MODEL 2
REMARK VINA RESULT: -5.263647819      1.602      2.491
REMARK  9 active torsions:
REMARK  status: ('A' for Active; 'I' for Inactive)
REMARK    1  A    between atoms: O1_2  and  C2_3 
REMARK    2  A    between atoms: C5_7  and  N1_8 
REMARK       I    between atoms: N1_8  and  C6_10 
REMARK    3  A    between atoms: C6_10  and  C7_12 
REMARK    4  A    between atoms: C7_12  and  O4_13 
REMARK    5  A    between atoms: C7_12  and  C8_15 
REMARK    6  A    between atoms: C8_15  and  C9_16 
REMARK    7  A    between atoms: C9_16  and  O5_17 
REMARK    8  A    between atoms: C10_19  and  O6_20 
REMARK    9  A    between atoms: C11_22  and  O7_23 
ROOT
HETATM    1  C2  UNL     1      -7.733 -21.421  18.514  1.00  0.00     0.291 C 
HETATM    2  O2  UNL     1      -7.577 -22.409  17.540  1.00  0.00    -0.352 OA
HETATM    3  C3  UNL     1      -8.751 -23.143  17.356  1.00  0.00     0.146 C 
HETATM    4  C4  UNL     1      -8.372 -24.397  16.595  1.00  0.00     0.042 C 
HETATM    5  C5  UNL     1      -9.674 -22.261  16.544  1.00  0.00     0.144 C 
HETATM    6  C10 UNL     1      -9.933 -21.020  17.368  1.00  0.00     0.177 C 
HETATM    7  C11 UNL     1      -9.182 -21.021  18.675  1.00  0.00     0.206 C 
ENDROOT
BRANCH   5   8
HETATM    8  N1  UNL     1     -10.895 -22.899  16.184  1.00  0.00    -0.349 N 
HETATM    9  C6  UNL     1     -11.627 -22.404  15.070  1.00  0.00     0.247 C 
HETATM   10  O3  UNL     1     -11.202 -21.415  14.410  1.00  0.00    -0.271 OA
ATOM     11  H1  UNL     1     -11.239 -23.698  16.716  1.00  0.00     0.163 HD
BRANCH   9  12
HETATM   12  C7  UNL     1     -12.903 -23.010  14.631  1.00  0.00     0.212 C 
BRANCH  12  13
HETATM   13  O4  UNL     1     -13.333 -22.411  13.449  1.00  0.00    -0.386 OA
ATOM     14  H4  UNL     1     -13.439 -23.068  12.771  1.00  0.00     0.210 HD
ENDBRANCH  12  13
BRANCH  12  15
HETATM   15  C8  UNL     1     -13.968 -22.913  15.713  1.00  0.00     0.067 C 
BRANCH  15  16
HETATM   16  C9  UNL     1     -15.172 -22.219  15.063  1.00  0.00     0.167 C 
BRANCH  16  17
HETATM   17  O5  UNL     1     -15.115 -20.854  15.240  1.00  0.00    -0.401 OA
ATOM     18  H5  UNL     1     -15.868 -20.425  14.850  1.00  0.00     0.209 HD
ENDBRANCH  16  17
ENDBRANCH  15  16
ENDBRANCH  12  15
ENDBRANCH   9  12
ENDBRANCH   5   8
BRANCH   6  19
HETATM   19  O6  UNL     1      -9.511 -19.897  16.655  1.00  0.00    -0.391 OA
ATOM     20  H6  UNL     1      -9.332 -19.188  17.262  1.00  0.00     0.210 HD
ENDBRANCH   6  19
BRANCH   7  21
HETATM   21  O7  UNL     1      -9.227 -19.704  19.155  1.00  0.00    -0.383 OA
HETATM   22  C12 UNL     1     -10.257 -19.522  20.068  1.00  0.00     0.202 C 
ENDBRANCH   7  21
BRANCH   1  23
HETATM   23  O1  UNL     1      -7.218 -21.941  19.693  1.00  0.00    -0.363 OA
HETATM   24  C1  UNL     1      -8.245 -22.590  20.368  1.00  0.00     0.204 C 
ENDBRANCH   1  23
TORSDOF 9
ENDMDL
