MODEL 10
REMARK VINA RESULT: -3.559950366      2.682      2.918
REMARK  3 active torsions:
REMARK  status: ('A' for Active; 'I' for Inactive)
REMARK    1  A    between atoms: N1_1  and  C1_5 
REMARK    2  A    between atoms: C1_5  and  C2_6 
REMARK    3  A    between atoms: C1_5  and  C3_8 
ROOT
HETATM    1  C1  UNL     1      10.909  -9.023  23.478  1.00  0.00     0.293 C 
ENDROOT
BRANCH   1   2
HETATM    2  N1  UNL     1      10.216  -8.860  22.190  1.00  0.00    -0.064 N 
ATOM      3  H13 UNL     1      10.817  -8.513  21.443  1.00  0.00     0.275 HD
ATOM      4  H12 UNL     1       9.967  -9.742  21.744  1.00  0.00     0.275 HD
ATOM      5  H11 UNL     1       9.415  -8.259  22.385  1.00  0.00     0.275 HD
ENDBRANCH   1   2
BRANCH   1   6
HETATM    6  C2  UNL     1      11.756 -10.266  23.328  1.00  0.00     0.130 C 
HETATM    7  S1  UNL     1      13.512  -9.933  23.514  1.00  0.00    -0.095 SA
ENDBRANCH   1   6
BRANCH   1   8
HETATM    8  C3  UNL     1       9.907  -9.155  24.543  1.00  0.00     0.205 C 
HETATM    9  O1  UNL     1      10.226  -9.657  25.653  1.00  0.00    -0.646 OA
HETATM   10  O2  UNL     1       8.579  -8.746  24.401  1.00  0.00    -0.646 OA
ENDBRANCH   1   8
TORSDOF 3
ENDMDL
