MODEL 20
REMARK VINA RESULT: -3.446175502      6.582      6.964
REMARK  3 active torsions:
REMARK  status: ('A' for Active; 'I' for Inactive)
REMARK    1  A    between atoms: N1_1  and  C1_5 
REMARK    2  A    between atoms: C1_5  and  C2_6 
REMARK    3  A    between atoms: C1_5  and  C3_8 
ROOT
HETATM    1  C1  UNL     1       6.013  -9.788  22.769  1.00  0.00     0.293 C 
ENDROOT
BRANCH   1   2
HETATM    2  N1  UNL     1       7.392 -10.035  23.220  1.00  0.00    -0.064 N 
ATOM      3  H13 UNL     1       7.450 -10.513  24.118  1.00  0.00     0.275 HD
ATOM      4  H12 UNL     1       7.880 -10.744  22.674  1.00  0.00     0.275 HD
ATOM      5  H11 UNL     1       7.850  -9.124  23.210  1.00  0.00     0.275 HD
ENDBRANCH   1   2
BRANCH   1   6
HETATM    6  C2  UNL     1       6.131  -8.818  21.616  1.00  0.00     0.130 C 
HETATM    7  S1  UNL     1       7.834  -8.547  21.111  1.00  0.00    -0.095 SA
ENDBRANCH   1   6
BRANCH   1   8
HETATM    8  C3  UNL     1       5.239  -9.234  23.888  1.00  0.00     0.205 C 
HETATM    9  O1  UNL     1       3.982  -9.288  23.874  1.00  0.00    -0.646 OA
HETATM   10  O2  UNL     1       5.828  -8.631  25.001  1.00  0.00    -0.646 OA
ENDBRANCH   1   8
TORSDOF 3
ENDMDL
