MODEL 9
REMARK VINA RESULT: -3.561371238      2.702      3.062
REMARK  3 active torsions:
REMARK  status: ('A' for Active; 'I' for Inactive)
REMARK    1  A    between atoms: N1_1  and  C1_5 
REMARK    2  A    between atoms: C1_5  and  C2_6 
REMARK    3  A    between atoms: C1_5  and  C3_8 
ROOT
HETATM    1  C1  UNL     1      10.891  -8.968  23.419  1.00  0.00     0.293 C 
ENDROOT
BRANCH   1   2
HETATM    2  N1  UNL     1      10.117  -8.838  22.174  1.00  0.00    -0.064 N 
ATOM      3  H13 UNL     1       9.950  -7.871  21.894  1.00  0.00     0.275 HD
ATOM      4  H12 UNL     1      10.634  -9.116  21.339  1.00  0.00     0.275 HD
ATOM      5  H11 UNL     1       9.264  -9.375  22.324  1.00  0.00     0.275 HD
ENDBRANCH   1   2
BRANCH   1   6
HETATM    6  C2  UNL     1      11.728 -10.214  23.248  1.00  0.00     0.130 C 
HETATM    7  S1  UNL     1      13.479  -9.913  23.518  1.00  0.00    -0.095 SA
ENDBRANCH   1   6
BRANCH   1   8
HETATM    8  C3  UNL     1       9.957  -9.072  24.548  1.00  0.00     0.205 C 
HETATM    9  O1  UNL     1       8.863  -8.451  24.522  1.00  0.00    -0.646 OA
HETATM   10  O2  UNL     1      10.214  -9.840  25.686  1.00  0.00    -0.646 OA
ENDBRANCH   1   8
TORSDOF 3
ENDMDL
