MODEL 6
REMARK VINA RESULT: -4.795640035      1.110      1.723
REMARK  1 active torsions:
REMARK  status: ('A' for Active; 'I' for Inactive)
REMARK    1  A    between atoms: C1_2  and  C2_6 
ROOT
HETATM    1  C2  UNL     1      30.760   5.303  28.704  1.00  0.00     0.004 A 
HETATM    2  C3  UNL     1      31.175   6.154  27.720  1.00  0.00     0.015 A 
HETATM    3  C4  UNL     1      30.557   7.386  27.469  1.00  0.00     0.001 A 
HETATM    4  C5  UNL     1      29.497   7.734  28.249  1.00  0.00     0.000 A 
HETATM    5  C6  UNL     1      29.021   6.927  29.261  1.00  0.00     0.001 A 
HETATM    6  C7  UNL     1      29.660   5.727  29.470  1.00  0.00     0.015 A 
ENDROOT
BRANCH   1   7
HETATM    7  C1  UNL     1      31.396   4.038  28.962  1.00  0.00     0.120 C 
HETATM    8  N1  UNL     1      32.404   3.590  28.064  1.00  0.00    -0.082 NA
HETATM    9  N2  UNL     1      31.088   3.324  29.953  1.00  0.00    -0.387 N 
ATOM     10  H22 UNL     1      31.538   2.427  30.136  1.00  0.00     0.157 HD
ATOM     11  H21 UNL     1      30.364   3.645  30.597  1.00  0.00     0.157 HD
ENDBRANCH   1   7
TORSDOF 1
ENDMDL
