MODEL 1
REMARK VINA RESULT: -5.356403981      0.000      0.000
REMARK  1 active torsions:
REMARK  status: ('A' for Active; 'I' for Inactive)
REMARK    1  A    between atoms: C1_2  and  C2_6 
ROOT
HETATM    1  C2  UNL     1      31.352   5.519  28.307  1.00  0.00     0.004 A 
HETATM    2  C3  UNL     1      31.395   6.877  28.165  1.00  0.00     0.015 A 
HETATM    3  C4  UNL     1      30.417   7.728  28.698  1.00  0.00     0.001 A 
HETATM    4  C5  UNL     1      29.388   7.160  29.382  1.00  0.00     0.000 A 
HETATM    5  C6  UNL     1      29.277   5.798  29.567  1.00  0.00     0.001 A 
HETATM    6  C7  UNL     1      30.261   5.002  29.025  1.00  0.00     0.015 A 
ENDROOT
BRANCH   1   7
HETATM    7  C1  UNL     1      32.357   4.646  27.760  1.00  0.00     0.120 C 
HETATM    8  N1  UNL     1      32.476   3.332  28.293  1.00  0.00    -0.082 NA
HETATM    9  N2  UNL     1      33.126   5.009  26.831  1.00  0.00    -0.387 N 
ATOM     10  H22 UNL     1      33.838   4.389  26.443  1.00  0.00     0.157 HD
ATOM     11  H21 UNL     1      33.040   5.951  26.449  1.00  0.00     0.157 HD
ENDBRANCH   1   7
TORSDOF 1
ENDMDL
