MODEL 2
REMARK VINA RESULT: -5.310471435      0.078      1.588
REMARK  1 active torsions:
REMARK  status: ('A' for Active; 'I' for Inactive)
REMARK    1  A    between atoms: C1_2  and  C2_6 
ROOT
HETATM    1  C2  UNL     1      31.337   5.536  28.315  1.00  0.00     0.004 A 
HETATM    2  C3  UNL     1      30.277   5.077  29.045  1.00  0.00     0.015 A 
HETATM    3  C4  UNL     1      29.299   5.925  29.583  1.00  0.00     0.001 A 
HETATM    4  C5  UNL     1      29.427   7.261  29.358  1.00  0.00     0.000 A 
HETATM    5  C6  UNL     1      30.469   7.799  28.632  1.00  0.00     0.001 A 
HETATM    6  C7  UNL     1      31.405   6.927  28.124  1.00  0.00     0.015 A 
ENDROOT
BRANCH   1   7
HETATM    7  C1  UNL     1      32.340   4.665  27.763  1.00  0.00     0.120 C 
HETATM    8  N1  UNL     1      32.456   3.347  28.286  1.00  0.00    -0.082 NA
HETATM    9  N2  UNL     1      33.110   5.034  26.837  1.00  0.00    -0.387 N 
ATOM     10  H22 UNL     1      33.822   4.416  26.446  1.00  0.00     0.157 HD
ATOM     11  H21 UNL     1      33.027   5.979  26.462  1.00  0.00     0.157 HD
ENDBRANCH   1   7
TORSDOF 1
ENDMDL
