MODEL 4
REMARK VINA RESULT: -5.045247173      1.080      1.993
REMARK  1 active torsions:
REMARK  status: ('A' for Active; 'I' for Inactive)
REMARK    1  A    between atoms: C1_2  and  C2_6 
ROOT
HETATM    1  C2  UNL     1      31.019   5.320  28.258  1.00  0.00     0.004 A 
HETATM    2  C3  UNL     1      29.729   5.544  28.645  1.00  0.00     0.015 A 
HETATM    3  C4  UNL     1      29.056   6.747  28.388  1.00  0.00     0.001 A 
HETATM    4  C5  UNL     1      29.734   7.722  27.723  1.00  0.00     0.000 A 
HETATM    5  C6  UNL     1      31.038   7.568  27.301  1.00  0.00     0.001 A 
HETATM    6  C7  UNL     1      31.657   6.370  27.576  1.00  0.00     0.015 A 
ENDROOT
BRANCH   1   7
HETATM    7  C1  UNL     1      31.709   4.085  28.521  1.00  0.00     0.120 C 
HETATM    8  N1  UNL     1      31.301   3.305  29.639  1.00  0.00    -0.082 NA
HETATM    9  N2  UNL     1      32.656   3.679  27.795  1.00  0.00    -0.387 N 
ATOM     10  H22 UNL     1      33.145   2.803  27.983  1.00  0.00     0.157 HD
ATOM     11  H21 UNL     1      32.949   4.238  26.994  1.00  0.00     0.157 HD
ENDBRANCH   1   7
TORSDOF 1
ENDMDL
