MODEL 3
REMARK VINA RESULT: -5.046622333      1.079      1.357
REMARK  1 active torsions:
REMARK  status: ('A' for Active; 'I' for Inactive)
REMARK    1  A    between atoms: C1_2  and  C2_6 
ROOT
HETATM    1  C2  UNL     1      31.051   5.341  28.232  1.00  0.00     0.004 A 
HETATM    2  C3  UNL     1      31.651   6.377  27.575  1.00  0.00     0.015 A 
HETATM    3  C4  UNL     1      31.000   7.589  27.309  1.00  0.00     0.001 A 
HETATM    4  C5  UNL     1      29.713   7.722  27.731  1.00  0.00     0.000 A 
HETATM    5  C6  UNL     1      29.041   6.720  28.400  1.00  0.00     0.001 A 
HETATM    6  C7  UNL     1      29.721   5.548  28.638  1.00  0.00     0.015 A 
ENDROOT
BRANCH   1   7
HETATM    7  C1  UNL     1      31.721   4.097  28.506  1.00  0.00     0.120 C 
HETATM    8  N1  UNL     1      31.290   3.325  29.621  1.00  0.00    -0.082 NA
HETATM    9  N2  UNL     1      32.668   3.676  27.790  1.00  0.00    -0.387 N 
ATOM     10  H22 UNL     1      33.143   2.794  27.985  1.00  0.00     0.157 HD
ATOM     11  H21 UNL     1      32.978   4.230  26.991  1.00  0.00     0.157 HD
ENDBRANCH   1   7
TORSDOF 1
ENDMDL
