MODEL 18
REMARK VINA RESULT: -4.230442561      3.923      4.753
REMARK  1 active torsions:
REMARK  status: ('A' for Active; 'I' for Inactive)
REMARK    1  A    between atoms: C1_2  and  C2_6 
ROOT
HETATM    1  C2  UNL     1      29.137   8.258  29.423  1.00  0.00     0.004 A 
HETATM    2  C3  UNL     1      29.646   8.849  28.302  1.00  0.00     0.015 A 
HETATM    3  C4  UNL     1      30.400   8.150  27.350  1.00  0.00     0.001 A 
HETATM    4  C5  UNL     1      30.626   6.827  27.569  1.00  0.00     0.000 A 
HETATM    5  C6  UNL     1      30.145   6.162  28.677  1.00  0.00     0.001 A 
HETATM    6  C7  UNL     1      29.410   6.889  29.584  1.00  0.00     0.015 A 
ENDROOT
BRANCH   1   7
HETATM    7  C1  UNL     1      28.362   8.976  30.401  1.00  0.00     0.120 C 
HETATM    8  N1  UNL     1      27.022   9.332  30.076  1.00  0.00    -0.082 NA
HETATM    9  N2  UNL     1      28.832   9.295  31.525  1.00  0.00    -0.387 N 
ATOM     10  H22 UNL     1      28.282   9.804  32.218  1.00  0.00     0.157 HD
ATOM     11  H21 UNL     1      29.792   9.040  31.757  1.00  0.00     0.157 HD
ENDBRANCH   1   7
TORSDOF 1
ENDMDL
