MODEL 2
REMARK VINA RESULT: -6.918326623      2.200      2.776
REMARK  1 active torsions:
REMARK  status: ('A' for Active; 'I' for Inactive)
REMARK       I    between atoms: N3_4  and  C2_6 
REMARK    1  A    between atoms: C2_6  and  C3_8 
ROOT
HETATM    1  C3  UNL     1      30.890   7.137  28.319  1.00  0.00     0.144 A 
HETATM    2  N4  UNL     1      31.960   6.358  28.042  1.00  0.00    -0.337 N 
ATOM      3  H4  UNL     1      32.709   6.711  27.446  1.00  0.00     0.167 HD
HETATM    4  C4  UNL     1      32.031   5.118  28.557  1.00  0.00     0.145 A 
HETATM    5 CL1  UNL     1      33.402   4.065  28.226  1.00  0.00    -0.061 Cl
HETATM    6  C5  UNL     1      30.995   4.672  29.365  1.00  0.00     0.156 A 
HETATM    7  N5  UNL     1      31.103   3.372  29.885  1.00  0.00    -0.079 NA
HETATM    8  N6  UNL     1      29.922   5.473  29.633  1.00  0.00    -0.329 N 
ATOM      9  H6  UNL     1      29.169   5.128  30.228  1.00  0.00     0.168 HD
HETATM   10  C6  UNL     1      29.853   6.712  29.118  1.00  0.00     0.150 A 
HETATM   11  N7  UNL     1      28.762   7.590  29.364  1.00  0.00    -0.080 NA
ENDROOT
BRANCH   1  12
HETATM   12  C2  UNL     1      30.793   8.494  27.767  1.00  0.00     0.277 C 
HETATM   13  N3  UNL     1      31.154   9.593  28.591  1.00  0.00    -0.298 N 
HETATM   14  C1  UNL     1      30.574  10.715  28.406  1.00  0.00     0.203 C 
ATOM     15  H3  UNL     1      31.863   9.488  29.317  1.00  0.00     0.171 HD
HETATM   16  N1  UNL     1      30.933  11.818  29.229  1.00  0.00    -0.066 NA
HETATM   17  N2  UNL     1      29.585  10.860  27.393  1.00  0.00    -0.066 NA
HETATM   18  O1  UNL     1      30.408   8.721  26.604  1.00  0.00    -0.265 OA
ENDBRANCH   1  12
TORSDOF 1
ENDMDL
