MODEL 1
REMARK VINA RESULT: -7.199804423      0.000      0.000
REMARK  1 active torsions:
REMARK  status: ('A' for Active; 'I' for Inactive)
REMARK       I    between atoms: N3_4  and  C2_6 
REMARK    1  A    between atoms: C2_6  and  C3_8 
ROOT
HETATM    1  C3  UNL     1      30.187   6.635  29.059  1.00  0.00     0.144 A 
HETATM    2  N4  UNL     1      30.108   5.489  29.772  1.00  0.00    -0.337 N 
ATOM      3  H4  UNL     1      29.385   5.377  30.484  1.00  0.00     0.167 HD
HETATM    4  C4  UNL     1      30.987   4.499  29.539  1.00  0.00     0.145 A 
HETATM    5 CL1  UNL     1      30.928   2.989  30.439  1.00  0.00    -0.061 Cl
HETATM    6  C5  UNL     1      31.956   4.685  28.563  1.00  0.00     0.156 A 
HETATM    7  N5  UNL     1      32.858   3.631  28.345  1.00  0.00    -0.079 NA
HETATM    8  N6  UNL     1      32.020   5.850  27.853  1.00  0.00    -0.329 N 
ATOM      9  H6  UNL     1      32.739   5.970  27.140  1.00  0.00     0.168 HD
HETATM   10  C6  UNL     1      31.140   6.838  28.087  1.00  0.00     0.150 A 
HETATM   11  N7  UNL     1      31.157   8.071  27.379  1.00  0.00    -0.080 NA
ENDROOT
BRANCH   1  12
HETATM   12  C2  UNL     1      29.236   7.728  29.299  1.00  0.00     0.277 C 
HETATM   13  N3  UNL     1      29.594   8.755  30.213  1.00  0.00    -0.298 N 
HETATM   14  C1  UNL     1      28.670   9.345  30.866  1.00  0.00     0.203 C 
ATOM     15  H3  UNL     1      30.571   9.016  30.344  1.00  0.00     0.171 HD
HETATM   16  N1  UNL     1      29.024  10.374  31.781  1.00  0.00    -0.066 NA
HETATM   17  N2  UNL     1      27.307   8.979  30.682  1.00  0.00    -0.066 NA
HETATM   18  O1  UNL     1      28.127   7.792  28.735  1.00  0.00    -0.265 OA
ENDBRANCH   1  12
TORSDOF 1
ENDMDL
