MODEL 19
REMARK VINA RESULT: -5.927659909      2.925      5.475
REMARK  1 active torsions:
REMARK  status: ('A' for Active; 'I' for Inactive)
REMARK       I    between atoms: N3_4  and  C2_6 
REMARK    1  A    between atoms: C2_6  and  C3_8 
ROOT
HETATM    1  C3  UNL     1      30.372   7.582  28.526  1.00  0.00     0.144 A 
HETATM    2  N4  UNL     1      31.276   8.587  28.551  1.00  0.00    -0.337 N 
ATOM      3  H4  UNL     1      32.266   8.390  28.404  1.00  0.00     0.167 HD
HETATM    4  C4  UNL     1      30.863   9.848  28.769  1.00  0.00     0.145 A 
HETATM    5 CL1  UNL     1      31.999  11.191  28.811  1.00  0.00    -0.061 Cl
HETATM    6  C5  UNL     1      29.508  10.081  28.963  1.00  0.00     0.156 A 
HETATM    7  N5  UNL     1      29.113  11.409  29.188  1.00  0.00    -0.079 NA
HETATM    8  N6  UNL     1      28.610   9.052  28.935  1.00  0.00    -0.329 N 
ATOM      9  H6  UNL     1      27.619   9.241  29.081  1.00  0.00     0.168 HD
HETATM   10  C6  UNL     1      29.025   7.793  28.716  1.00  0.00     0.150 A 
HETATM   11  N7  UNL     1      28.136   6.684  28.675  1.00  0.00    -0.080 NA
ENDROOT
BRANCH   1  12
HETATM   12  C2  UNL     1      30.803   6.199  28.289  1.00  0.00     0.277 C 
HETATM   13  N3  UNL     1      30.526   5.219  29.280  1.00  0.00    -0.298 N 
HETATM   14  C1  UNL     1      31.325   4.232  29.407  1.00  0.00     0.203 C 
ATOM     15  H3  UNL     1      29.705   5.303  29.878  1.00  0.00     0.171 HD
HETATM   16  N1  UNL     1      31.051   3.248  30.396  1.00  0.00    -0.066 NA
HETATM   17  N2  UNL     1      32.471   4.117  28.571  1.00  0.00    -0.066 NA
HETATM   18  O1  UNL     1      31.403   5.848  27.255  1.00  0.00    -0.265 OA
ENDBRANCH   1  12
TORSDOF 1
ENDMDL
