MODEL 5
REMARK VINA RESULT: -6.559306685      2.138      2.875
REMARK  1 active torsions:
REMARK  status: ('A' for Active; 'I' for Inactive)
REMARK       I    between atoms: N3_4  and  C2_6 
REMARK    1  A    between atoms: C2_6  and  C3_8 
ROOT
HETATM    1  C3  UNL     1      30.554   8.130  29.290  1.00  0.00     0.144 A 
HETATM    2  N4  UNL     1      31.550   7.450  28.678  1.00  0.00    -0.337 N 
ATOM      3  H4  UNL     1      32.384   7.942  28.356  1.00  0.00     0.167 HD
HETATM    4  C4  UNL     1      31.435   6.123  28.496  1.00  0.00     0.145 A 
HETATM    5 CL1  UNL     1      32.703   5.193  27.705  1.00  0.00    -0.061 Cl
HETATM    6  C5  UNL     1      30.288   5.485  28.947  1.00  0.00     0.156 A 
HETATM    7  N5  UNL     1      30.203   4.099  28.741  1.00  0.00    -0.079 NA
HETATM    8  N6  UNL     1      29.293   6.189  29.563  1.00  0.00    -0.329 N 
ATOM      9  H6  UNL     1      28.456   5.704  29.888  1.00  0.00     0.168 HD
HETATM   10  C6  UNL     1      29.409   7.515  29.745  1.00  0.00     0.150 A 
HETATM   11  N7  UNL     1      28.407   8.298  30.379  1.00  0.00    -0.080 NA
ENDROOT
BRANCH   1  12
HETATM   12  C2  UNL     1      30.660   9.579  29.498  1.00  0.00     0.277 C 
HETATM   13  N3  UNL     1      31.104  10.057  30.760  1.00  0.00    -0.298 N 
HETATM   14  C1  UNL     1      30.680  11.188  31.172  1.00  0.00     0.203 C 
ATOM     15  H3  UNL     1      31.749   9.506  31.326  1.00  0.00     0.171 HD
HETATM   16  N1  UNL     1      31.123  11.670  32.434  1.00  0.00    -0.066 NA
HETATM   17  N2  UNL     1      29.779  11.954  30.381  1.00  0.00    -0.066 NA
HETATM   18  O1  UNL     1      30.376  10.409  28.613  1.00  0.00    -0.265 OA
ENDBRANCH   1  12
TORSDOF 1
ENDMDL
