MODEL 12
REMARK VINA RESULT: -6.232187791      1.296      6.471
REMARK  15 active torsions:
REMARK  status: ('A' for Active; 'I' for Inactive)
REMARK       I    between atoms: C2_2  and  N1_4 
REMARK    1  A    between atoms: N1_4  and  C3_6 
REMARK    2  A    between atoms: C3_6  and  C4_7 
REMARK    3  A    between atoms: C3_6  and  C8_17 
REMARK    4  A    between atoms: C4_7  and  O2_8 
REMARK    5  A    between atoms: C4_7  and  C5_10 
REMARK    6  A    between atoms: C5_10  and  C6_11 
REMARK    7  A    between atoms: C6_11  and  O3_12 
REMARK    8  A    between atoms: C6_11  and  C7_14 
REMARK    9  A    between atoms: C8_17  and  O6_18 
REMARK   10  A    between atoms: C8_17  and  C9_20 
REMARK   11  A    between atoms: C9_20  and  O7_21 
REMARK   12  A    between atoms: C9_20  and  C10_23 
REMARK   13  A    between atoms: C10_23  and  O8_24 
REMARK   14  A    between atoms: C10_23  and  C11_26 
REMARK   15  A    between atoms: C11_26  and  O9_27 
ROOT
HETATM    1  C3  UNL     1      -5.289  45.317  50.873  1.00  0.00     0.144 C 
ENDROOT
BRANCH   1   2
HETATM    2  N1  UNL     1      -5.739  44.178  50.085  1.00  0.00    -0.352 N 
HETATM    3  C2  UNL     1      -5.605  44.168  48.644  1.00  0.00     0.214 C 
HETATM    4  C1  UNL     1      -6.048  43.036  47.814  1.00  0.00     0.117 C 
HETATM    5  O1  UNL     1      -5.084  45.184  48.118  1.00  0.00    -0.274 OA
ATOM      6  H1  UNL     1      -6.155  43.374  50.556  1.00  0.00     0.163 HD
ENDBRANCH   1   2
BRANCH   1   7
HETATM    7  C4  UNL     1      -4.358  44.801  51.962  1.00  0.00     0.146 C 
BRANCH   7   8
HETATM    8  O2  UNL     1      -5.123  44.477  53.068  1.00  0.00    -0.393 OA
ATOM      9  H2  UNL     1      -4.545  44.132  53.738  1.00  0.00     0.210 HD
ENDBRANCH   7   8
BRANCH   7  10
HETATM   10  C5  UNL     1      -3.372  43.791  51.533  1.00  0.00     0.076 C 
BRANCH  10  11
HETATM   11  C6  UNL     1      -2.278  43.576  52.582  1.00  0.00     0.221 C 
BRANCH  11  12
HETATM   12  O3  UNL     1      -2.137  44.676  53.416  1.00  0.00    -0.385 OA
ATOM     13  H3  UNL     1      -1.871  44.424  54.292  1.00  0.00     0.210 HD
ENDBRANCH  11  12
BRANCH  11  14
HETATM   14  C7  UNL     1      -2.495  42.328  53.352  1.00  0.00     0.203 C 
HETATM   15  O4  UNL     1      -1.848  41.281  53.165  1.00  0.00    -0.646 OA
HETATM   16  O5  UNL     1      -3.476  42.318  54.342  1.00  0.00    -0.646 OA
ENDBRANCH  11  14
ENDBRANCH  10  11
ENDBRANCH   7  10
ENDBRANCH   1   7
BRANCH   1  17
HETATM   17  C8  UNL     1      -6.368  46.217  51.361  1.00  0.00     0.174 C 
BRANCH  17  18
HETATM   18  O6  UNL     1      -5.797  47.004  52.395  1.00  0.00    -0.391 OA
ATOM     19  H6  UNL     1      -5.092  47.501  51.995  1.00  0.00     0.210 HD
ENDBRANCH  17  18
BRANCH  17  20
HETATM   20  C9  UNL     1      -6.830  47.225  50.342  1.00  0.00     0.179 C 
BRANCH  20  21
HETATM   21  O7  UNL     1      -7.349  48.368  51.023  1.00  0.00    -0.390 OA
ATOM     22  H7  UNL     1      -8.017  48.085  51.636  1.00  0.00     0.210 HD
ENDBRANCH  20  21
BRANCH  20  23
HETATM   23  C10 UNL     1      -7.975  46.751  49.483  1.00  0.00     0.173 C 
BRANCH  23  24
HETATM   24  O8  UNL     1      -7.671  47.216  48.178  1.00  0.00    -0.391 OA
ATOM     25  H8  UNL     1      -8.418  47.745  47.926  1.00  0.00     0.210 HD
ENDBRANCH  23  24
BRANCH  23  26
HETATM   26  C11 UNL     1      -9.280  47.436  49.863  1.00  0.00     0.198 C 
BRANCH  26  27
HETATM   27  O9  UNL     1     -10.254  46.438  49.897  1.00  0.00    -0.398 OA
ATOM     28  H9  UNL     1     -10.969  46.743  49.352  1.00  0.00     0.209 HD
ENDBRANCH  26  27
ENDBRANCH  23  26
ENDBRANCH  20  23
ENDBRANCH  17  20
ENDBRANCH   1  17
TORSDOF 15
ENDMDL
