MODEL 13
REMARK VINA RESULT: -6.210283493      1.768      4.533
REMARK  15 active torsions:
REMARK  status: ('A' for Active; 'I' for Inactive)
REMARK       I    between atoms: C2_2  and  N1_4 
REMARK    1  A    between atoms: N1_4  and  C3_6 
REMARK    2  A    between atoms: C3_6  and  C4_7 
REMARK    3  A    between atoms: C3_6  and  C8_17 
REMARK    4  A    between atoms: C4_7  and  O2_8 
REMARK    5  A    between atoms: C4_7  and  C5_10 
REMARK    6  A    between atoms: C5_10  and  C6_11 
REMARK    7  A    between atoms: C6_11  and  O3_12 
REMARK    8  A    between atoms: C6_11  and  C7_14 
REMARK    9  A    between atoms: C8_17  and  O6_18 
REMARK   10  A    between atoms: C8_17  and  C9_20 
REMARK   11  A    between atoms: C9_20  and  O7_21 
REMARK   12  A    between atoms: C9_20  and  C10_23 
REMARK   13  A    between atoms: C10_23  and  O8_24 
REMARK   14  A    between atoms: C10_23  and  C11_26 
REMARK   15  A    between atoms: C11_26  and  O9_27 
ROOT
HETATM    1  C3  UNL     1      -6.272  45.545  50.092  1.00  0.00     0.144 C 
ENDROOT
BRANCH   1   2
HETATM    2  N1  UNL     1      -7.637  45.911  50.444  1.00  0.00    -0.352 N 
HETATM    3  C2  UNL     1      -8.393  46.841  49.633  1.00  0.00     0.214 C 
HETATM    4  C1  UNL     1      -9.774  47.235  49.956  1.00  0.00     0.117 C 
HETATM    5  O1  UNL     1      -7.814  47.308  48.620  1.00  0.00    -0.274 OA
ATOM      6  H1  UNL     1      -8.068  45.506  51.276  1.00  0.00     0.163 HD
ENDBRANCH   1   2
BRANCH   1   7
HETATM    7  C4  UNL     1      -6.308  44.182  49.415  1.00  0.00     0.146 C 
BRANCH   7   8
HETATM    8  O2  UNL     1      -7.623  43.759  49.363  1.00  0.00    -0.393 OA
ATOM      9  H2  UNL     1      -7.629  42.830  49.165  1.00  0.00     0.210 HD
ENDBRANCH   7   8
BRANCH   7  10
HETATM   10  C5  UNL     1      -5.537  44.070  48.163  1.00  0.00     0.076 C 
BRANCH  10  11
HETATM   11  C6  UNL     1      -5.253  42.613  47.792  1.00  0.00     0.221 C 
BRANCH  11  12
HETATM   12  O3  UNL     1      -5.699  41.733  48.768  1.00  0.00    -0.385 OA
ATOM     13  H3  UNL     1      -6.614  41.873  48.979  1.00  0.00     0.210 HD
ENDBRANCH  11  12
BRANCH  11  14
HETATM   14  C7  UNL     1      -5.797  42.271  46.455  1.00  0.00     0.203 C 
HETATM   15  O4  UNL     1      -6.979  42.471  46.120  1.00  0.00    -0.646 OA
HETATM   16  O5  UNL     1      -4.944  41.694  45.517  1.00  0.00    -0.646 OA
ENDBRANCH  11  14
ENDBRANCH  10  11
ENDBRANCH   7  10
ENDBRANCH   1   7
BRANCH   1  17
HETATM   17  C8  UNL     1      -5.280  45.659  51.194  1.00  0.00     0.174 C 
BRANCH  17  18
HETATM   18  O6  UNL     1      -5.851  46.528  52.160  1.00  0.00    -0.391 OA
ATOM     19  H6  UNL     1      -6.278  45.972  52.802  1.00  0.00     0.210 HD
ENDBRANCH  17  18
BRANCH  17  20
HETATM   20  C9  UNL     1      -5.051  44.373  51.945  1.00  0.00     0.179 C 
BRANCH  20  21
HETATM   21  O7  UNL     1      -5.133  44.634  53.347  1.00  0.00    -0.390 OA
ATOM     22  H7  UNL     1      -4.327  45.048  53.631  1.00  0.00     0.210 HD
ENDBRANCH  20  21
BRANCH  20  23
HETATM   23  C10 UNL     1      -3.675  43.787  51.755  1.00  0.00     0.173 C 
BRANCH  23  24
HETATM   24  O8  UNL     1      -3.899  42.487  51.233  1.00  0.00    -0.391 OA
ATOM     25  H8  UNL     1      -4.409  42.624  50.444  1.00  0.00     0.210 HD
ENDBRANCH  23  24
BRANCH  23  26
HETATM   26  C11 UNL     1      -2.970  43.572  53.086  1.00  0.00     0.198 C 
BRANCH  26  27
HETATM   27  O9  UNL     1      -2.218  44.723  53.323  1.00  0.00    -0.398 OA
ATOM     28  H9  UNL     1      -1.306  44.460  53.288  1.00  0.00     0.209 HD
ENDBRANCH  26  27
ENDBRANCH  23  26
ENDBRANCH  20  23
ENDBRANCH  17  20
ENDBRANCH   1  17
TORSDOF 15
ENDMDL
