MODEL 14
REMARK VINA RESULT: -6.205506485      2.389      5.794
REMARK  15 active torsions:
REMARK  status: ('A' for Active; 'I' for Inactive)
REMARK       I    between atoms: C2_2  and  N1_4 
REMARK    1  A    between atoms: N1_4  and  C3_6 
REMARK    2  A    between atoms: C3_6  and  C4_7 
REMARK    3  A    between atoms: C3_6  and  C8_17 
REMARK    4  A    between atoms: C4_7  and  O2_8 
REMARK    5  A    between atoms: C4_7  and  C5_10 
REMARK    6  A    between atoms: C5_10  and  C6_11 
REMARK    7  A    between atoms: C6_11  and  O3_12 
REMARK    8  A    between atoms: C6_11  and  C7_14 
REMARK    9  A    between atoms: C8_17  and  O6_18 
REMARK   10  A    between atoms: C8_17  and  C9_20 
REMARK   11  A    between atoms: C9_20  and  O7_21 
REMARK   12  A    between atoms: C9_20  and  C10_23 
REMARK   13  A    between atoms: C10_23  and  O8_24 
REMARK   14  A    between atoms: C10_23  and  C11_26 
REMARK   15  A    between atoms: C11_26  and  O9_27 
ROOT
HETATM    1  C3  UNL     1      -5.827  45.906  48.146  1.00  0.00     0.144 C 
ENDROOT
BRANCH   1   2
HETATM    2  N1  UNL     1      -6.112  45.567  46.758  1.00  0.00    -0.352 N 
HETATM    3  C2  UNL     1      -5.064  45.564  45.761  1.00  0.00     0.214 C 
HETATM    4  C1  UNL     1      -5.311  45.228  44.350  1.00  0.00     0.117 C 
HETATM    5  O1  UNL     1      -3.908  45.866  46.154  1.00  0.00    -0.274 OA
ATOM      6  H1  UNL     1      -7.065  45.327  46.485  1.00  0.00     0.163 HD
ENDBRANCH   1   2
BRANCH   1   7
HETATM    7  C4  UNL     1      -5.735  44.610  48.940  1.00  0.00     0.146 C 
BRANCH   7   8
HETATM    8  O2  UNL     1      -6.579  43.684  48.355  1.00  0.00    -0.393 OA
ATOM      9  H2  UNL     1      -6.805  43.995  47.487  1.00  0.00     0.210 HD
ENDBRANCH   7   8
BRANCH   7  10
HETATM   10  C5  UNL     1      -4.370  44.145  49.248  1.00  0.00     0.076 C 
BRANCH  10  11
HETATM   11  C6  UNL     1      -3.991  44.402  50.708  1.00  0.00     0.221 C 
BRANCH  11  12
HETATM   12  O3  UNL     1      -3.827  45.755  50.970  1.00  0.00    -0.385 OA
ATOM     13  H3  UNL     1      -4.520  46.277  50.586  1.00  0.00     0.210 HD
ENDBRANCH  11  12
BRANCH  11  14
HETATM   14  C7  UNL     1      -4.957  43.776  51.643  1.00  0.00     0.203 C 
HETATM   15  O4  UNL     1      -5.149  42.548  51.717  1.00  0.00    -0.646 OA
HETATM   16  O5  UNL     1      -5.694  44.601  52.490  1.00  0.00    -0.646 OA
ENDBRANCH  11  14
ENDBRANCH  10  11
ENDBRANCH   7  10
ENDBRANCH   1   7
BRANCH   1  17
HETATM   17  C8  UNL     1      -6.721  46.932  48.745  1.00  0.00     0.174 C 
BRANCH  17  18
HETATM   18  O6  UNL     1      -7.686  47.250  47.755  1.00  0.00    -0.391 OA
ATOM     19  H6  UNL     1      -7.586  48.177  47.569  1.00  0.00     0.210 HD
ENDBRANCH  17  18
BRANCH  17  20
HETATM   20  C9  UNL     1      -7.537  46.428  49.907  1.00  0.00     0.179 C 
BRANCH  20  21
HETATM   21  O7  UNL     1      -8.804  45.979  49.424  1.00  0.00    -0.390 OA
ATOM     22  H7  UNL     1      -9.453  46.094  50.107  1.00  0.00     0.210 HD
ENDBRANCH  20  21
BRANCH  20  23
HETATM   23  C10 UNL     1      -7.881  47.488  50.923  1.00  0.00     0.173 C 
BRANCH  23  24
HETATM   24  O8  UNL     1      -8.786  48.353  50.257  1.00  0.00    -0.391 OA
ATOM     25  H8  UNL     1      -9.632  47.929  50.334  1.00  0.00     0.210 HD
ENDBRANCH  23  24
BRANCH  23  26
HETATM   26  C11 UNL     1      -6.673  48.349  51.263  1.00  0.00     0.198 C 
BRANCH  26  27
HETATM   27  O9  UNL     1      -5.816  47.546  52.015  1.00  0.00    -0.398 OA
ATOM     28  H9  UNL     1      -5.055  48.078  52.214  1.00  0.00     0.209 HD
ENDBRANCH  26  27
ENDBRANCH  23  26
ENDBRANCH  20  23
ENDBRANCH  17  20
ENDBRANCH   1  17
TORSDOF 15
ENDMDL
