MODEL 1
REMARK VINA RESULT: -6.782980841      0.000      0.000
REMARK  15 active torsions:
REMARK  status: ('A' for Active; 'I' for Inactive)
REMARK       I    between atoms: C2_2  and  N1_4 
REMARK    1  A    between atoms: N1_4  and  C3_6 
REMARK    2  A    between atoms: C3_6  and  C4_7 
REMARK    3  A    between atoms: C3_6  and  C8_17 
REMARK    4  A    between atoms: C4_7  and  O2_8 
REMARK    5  A    between atoms: C4_7  and  C5_10 
REMARK    6  A    between atoms: C5_10  and  C6_11 
REMARK    7  A    between atoms: C6_11  and  O3_12 
REMARK    8  A    between atoms: C6_11  and  C7_14 
REMARK    9  A    between atoms: C8_17  and  O6_18 
REMARK   10  A    between atoms: C8_17  and  C9_20 
REMARK   11  A    between atoms: C9_20  and  O7_21 
REMARK   12  A    between atoms: C9_20  and  C10_23 
REMARK   13  A    between atoms: C10_23  and  O8_24 
REMARK   14  A    between atoms: C10_23  and  C11_26 
REMARK   15  A    between atoms: C11_26  and  O9_27 
ROOT
HETATM    1  C3  UNL     1      -5.666  44.428  51.341  1.00  0.00     0.144 C 
ENDROOT
BRANCH   1   2
HETATM    2  N1  UNL     1      -5.364  44.239  49.928  1.00  0.00    -0.352 N 
HETATM    3  C2  UNL     1      -5.941  43.140  49.184  1.00  0.00     0.214 C 
HETATM    4  C1  UNL     1      -5.660  42.915  47.757  1.00  0.00     0.117 C 
HETATM    5  O1  UNL     1      -6.708  42.370  49.816  1.00  0.00    -0.274 OA
ATOM      6  H1  UNL     1      -4.737  44.890  49.457  1.00  0.00     0.163 HD
ENDBRANCH   1   2
BRANCH   1   7
HETATM    7  C4  UNL     1      -6.552  45.659  51.474  1.00  0.00     0.146 C 
BRANCH   7   8
HETATM    8  O2  UNL     1      -5.838  46.637  52.141  1.00  0.00    -0.393 OA
ATOM      9  H2  UNL     1      -6.420  47.370  52.306  1.00  0.00     0.210 HD
ENDBRANCH   7   8
BRANCH   7  10
HETATM   10  C5  UNL     1      -7.244  46.084  50.242  1.00  0.00     0.076 C 
BRANCH  10  11
HETATM   11  C6  UNL     1      -8.273  47.184  50.512  1.00  0.00     0.221 C 
BRANCH  11  12
HETATM   12  O3  UNL     1      -7.713  48.450  50.425  1.00  0.00    -0.385 OA
ATOM     13  H3  UNL     1      -7.435  48.655  49.541  1.00  0.00     0.210 HD
ENDBRANCH  11  12
BRANCH  11  14
HETATM   14  C7  UNL     1      -9.462  47.049  49.636  1.00  0.00     0.203 C 
HETATM   15  O4  UNL     1     -10.529  46.520  49.999  1.00  0.00    -0.646 OA
HETATM   16  O5  UNL     1      -9.388  47.539  48.334  1.00  0.00    -0.646 OA
ENDBRANCH  11  14
ENDBRANCH  10  11
ENDBRANCH   7  10
ENDBRANCH   1   7
BRANCH   1  17
HETATM   17  C8  UNL     1      -4.488  44.418  52.248  1.00  0.00     0.174 C 
BRANCH  17  18
HETATM   18  O6  UNL     1      -4.998  44.498  53.570  1.00  0.00    -0.391 OA
ATOM     19  H6  UNL     1      -4.244  44.533  54.148  1.00  0.00     0.210 HD
ENDBRANCH  17  18
BRANCH  17  20
HETATM   20  C9  UNL     1      -3.715  43.124  52.230  1.00  0.00     0.179 C 
BRANCH  20  21
HETATM   21  O7  UNL     1      -4.626  42.043  52.027  1.00  0.00    -0.390 OA
ATOM     22  H7  UNL     1      -5.230  42.006  52.759  1.00  0.00     0.210 HD
ENDBRANCH  20  21
BRANCH  20  23
HETATM   23  C10 UNL     1      -3.034  42.797  53.535  1.00  0.00     0.173 C 
BRANCH  23  24
HETATM   24  O8  UNL     1      -2.163  43.890  53.779  1.00  0.00    -0.391 OA
ATOM     25  H8  UNL     1      -1.542  43.570  54.422  1.00  0.00     0.210 HD
ENDBRANCH  23  24
BRANCH  23  26
HETATM   26  C11 UNL     1      -2.130  41.580  53.404  1.00  0.00     0.198 C 
BRANCH  26  27
HETATM   27  O9  UNL     1      -1.501  41.688  52.163  1.00  0.00    -0.398 OA
ATOM     28  H9  UNL     1      -0.989  40.896  52.053  1.00  0.00     0.209 HD
ENDBRANCH  26  27
ENDBRANCH  23  26
ENDBRANCH  20  23
ENDBRANCH  17  20
ENDBRANCH   1  17
TORSDOF 15
ENDMDL
