MODEL 2
REMARK VINA RESULT: -6.776640240      1.001      1.116
REMARK  15 active torsions:
REMARK  status: ('A' for Active; 'I' for Inactive)
REMARK       I    between atoms: C2_2  and  N1_4 
REMARK    1  A    between atoms: N1_4  and  C3_6 
REMARK    2  A    between atoms: C3_6  and  C4_7 
REMARK    3  A    between atoms: C3_6  and  C8_17 
REMARK    4  A    between atoms: C4_7  and  O2_8 
REMARK    5  A    between atoms: C4_7  and  C5_10 
REMARK    6  A    between atoms: C5_10  and  C6_11 
REMARK    7  A    between atoms: C6_11  and  O3_12 
REMARK    8  A    between atoms: C6_11  and  C7_14 
REMARK    9  A    between atoms: C8_17  and  O6_18 
REMARK   10  A    between atoms: C8_17  and  C9_20 
REMARK   11  A    between atoms: C9_20  and  O7_21 
REMARK   12  A    between atoms: C9_20  and  C10_23 
REMARK   13  A    between atoms: C10_23  and  O8_24 
REMARK   14  A    between atoms: C10_23  and  C11_26 
REMARK   15  A    between atoms: C11_26  and  O9_27 
ROOT
HETATM    1  C3  UNL     1      -5.726  44.454  51.449  1.00  0.00     0.144 C 
ENDROOT
BRANCH   1   2
HETATM    2  N1  UNL     1      -5.516  44.193  50.031  1.00  0.00    -0.352 N 
HETATM    3  C2  UNL     1      -6.228  43.132  49.354  1.00  0.00     0.214 C 
HETATM    4  C1  UNL     1      -6.043  42.837  47.925  1.00  0.00     0.117 C 
HETATM    5  O1  UNL     1      -7.030  42.457  50.049  1.00  0.00    -0.274 OA
ATOM      6  H1  UNL     1      -4.855  44.768  49.507  1.00  0.00     0.163 HD
ENDBRANCH   1   2
BRANCH   1   7
HETATM    7  C4  UNL     1      -6.559  45.722  51.578  1.00  0.00     0.146 C 
BRANCH   7   8
HETATM    8  O2  UNL     1      -5.834  46.644  52.311  1.00  0.00    -0.393 OA
ATOM      9  H2  UNL     1      -6.447  47.220  52.753  1.00  0.00     0.210 HD
ENDBRANCH   7   8
BRANCH   7  10
HETATM   10  C5  UNL     1      -7.167  46.216  50.328  1.00  0.00     0.076 C 
BRANCH  10  11
HETATM   11  C6  UNL     1      -8.286  47.226  50.594  1.00  0.00     0.221 C 
BRANCH  11  12
HETATM   12  O3  UNL     1      -7.819  48.532  50.587  1.00  0.00    -0.385 OA
ATOM     13  H3  UNL     1      -7.933  48.954  51.430  1.00  0.00     0.210 HD
ENDBRANCH  11  12
BRANCH  11  14
HETATM   14  C7  UNL     1      -9.422  47.045  49.658  1.00  0.00     0.203 C 
HETATM   15  O4  UNL     1     -10.492  46.490  49.970  1.00  0.00    -0.646 OA
HETATM   16  O5  UNL     1      -9.291  47.519  48.354  1.00  0.00    -0.646 OA
ENDBRANCH  11  14
ENDBRANCH  10  11
ENDBRANCH   7  10
ENDBRANCH   1   7
BRANCH   1  17
HETATM   17  C8  UNL     1      -4.497  44.438  52.286  1.00  0.00     0.174 C 
BRANCH  17  18
HETATM   18  O6  UNL     1      -4.925  44.219  53.622  1.00  0.00    -0.391 OA
ATOM     19  H6  UNL     1      -4.226  43.739  54.052  1.00  0.00     0.210 HD
ENDBRANCH  17  18
BRANCH  17  20
HETATM   20  C9  UNL     1      -3.579  43.278  52.000  1.00  0.00     0.179 C 
BRANCH  20  21
HETATM   21  O7  UNL     1      -4.007  42.148  52.761  1.00  0.00    -0.390 OA
ATOM     22  H7  UNL     1      -3.826  41.357  52.267  1.00  0.00     0.210 HD
ENDBRANCH  20  21
BRANCH  20  23
HETATM   23  C10 UNL     1      -2.152  43.501  52.435  1.00  0.00     0.173 C 
BRANCH  23  24
HETATM   24  O8  UNL     1      -2.193  44.670  53.238  1.00  0.00    -0.391 OA
ATOM     25  H8  UNL     1      -2.839  44.484  53.909  1.00  0.00     0.210 HD
ENDBRANCH  23  24
BRANCH  23  26
HETATM   26  C11 UNL     1      -1.255  43.850  51.257  1.00  0.00     0.198 C 
BRANCH  26  27
HETATM   27  O9  UNL     1      -0.217  44.628  51.769  1.00  0.00    -0.398 OA
ATOM     28  H9  UNL     1       0.445  44.022  52.080  1.00  0.00     0.209 HD
ENDBRANCH  26  27
ENDBRANCH  23  26
ENDBRANCH  20  23
ENDBRANCH  17  20
ENDBRANCH   1  17
TORSDOF 15
ENDMDL
