MODEL 4
REMARK VINA RESULT: -6.689364692      1.688      1.695
REMARK  15 active torsions:
REMARK  status: ('A' for Active; 'I' for Inactive)
REMARK       I    between atoms: C2_2  and  N1_4 
REMARK    1  A    between atoms: N1_4  and  C3_6 
REMARK    2  A    between atoms: C3_6  and  C4_7 
REMARK    3  A    between atoms: C3_6  and  C8_17 
REMARK    4  A    between atoms: C4_7  and  O2_8 
REMARK    5  A    between atoms: C4_7  and  C5_10 
REMARK    6  A    between atoms: C5_10  and  C6_11 
REMARK    7  A    between atoms: C6_11  and  O3_12 
REMARK    8  A    between atoms: C6_11  and  C7_14 
REMARK    9  A    between atoms: C8_17  and  O6_18 
REMARK   10  A    between atoms: C8_17  and  C9_20 
REMARK   11  A    between atoms: C9_20  and  O7_21 
REMARK   12  A    between atoms: C9_20  and  C10_23 
REMARK   13  A    between atoms: C10_23  and  O8_24 
REMARK   14  A    between atoms: C10_23  and  C11_26 
REMARK   15  A    between atoms: C11_26  and  O9_27 
ROOT
HETATM    1  C3  UNL     1      -4.976  45.278  51.142  1.00  0.00     0.144 C 
ENDROOT
BRANCH   1   2
HETATM    2  N1  UNL     1      -4.230  46.192  50.288  1.00  0.00    -0.352 N 
HETATM    3  C2  UNL     1      -3.938  45.856  48.911  1.00  0.00     0.214 C 
HETATM    4  C1  UNL     1      -3.187  46.752  48.018  1.00  0.00     0.117 C 
HETATM    5  O1  UNL     1      -4.359  44.746  48.499  1.00  0.00    -0.274 OA
ATOM      6  H1  UNL     1      -3.909  47.084  50.666  1.00  0.00     0.163 HD
ENDBRANCH   1   2
BRANCH   1   7
HETATM    7  C4  UNL     1      -6.250  45.982  51.589  1.00  0.00     0.146 C 
BRANCH   7   8
HETATM    8  O2  UNL     1      -5.923  47.274  51.960  1.00  0.00    -0.393 OA
ATOM      9  H2  UNL     1      -6.729  47.744  52.140  1.00  0.00     0.210 HD
ENDBRANCH   7   8
BRANCH   7  10
HETATM   10  C5  UNL     1      -7.410  45.835  50.690  1.00  0.00     0.076 C 
BRANCH  10  11
HETATM   11  C6  UNL     1      -7.856  47.178  50.105  1.00  0.00     0.221 C 
BRANCH  11  12
HETATM   12  O3  UNL     1      -6.886  47.731  49.281  1.00  0.00    -0.385 OA
ATOM     13  H3  UNL     1      -6.009  47.495  49.558  1.00  0.00     0.210 HD
ENDBRANCH  11  12
BRANCH  11  14
HETATM   14  C7  UNL     1      -9.164  47.067  49.415  1.00  0.00     0.203 C 
HETATM   15  O4  UNL     1     -10.162  46.515  49.913  1.00  0.00    -0.646 OA
HETATM   16  O5  UNL     1      -9.290  47.609  48.138  1.00  0.00    -0.646 OA
ENDBRANCH  11  14
ENDBRANCH  10  11
ENDBRANCH   7  10
ENDBRANCH   1   7
BRANCH   1  17
HETATM   17  C8  UNL     1      -4.195  44.661  52.246  1.00  0.00     0.174 C 
BRANCH  17  18
HETATM   18  O6  UNL     1      -5.063  44.597  53.367  1.00  0.00    -0.391 OA
ATOM     19  H6  UNL     1      -5.275  45.496  53.594  1.00  0.00     0.210 HD
ENDBRANCH  17  18
BRANCH  17  20
HETATM   20  C9  UNL     1      -3.812  43.225  51.995  1.00  0.00     0.179 C 
BRANCH  20  21
HETATM   21  O7  UNL     1      -4.999  42.461  51.777  1.00  0.00    -0.390 OA
ATOM     22  H7  UNL     1      -5.377  42.232  52.618  1.00  0.00     0.210 HD
ENDBRANCH  20  21
BRANCH  20  23
HETATM   23  C10 UNL     1      -3.146  42.552  53.169  1.00  0.00     0.173 C 
BRANCH  23  24
HETATM   24  O8  UNL     1      -2.368  43.568  53.781  1.00  0.00    -0.391 OA
ATOM     25  H8  UNL     1      -2.516  43.461  54.713  1.00  0.00     0.210 HD
ENDBRANCH  23  24
BRANCH  23  26
HETATM   26  C11 UNL     1      -2.149  41.496  52.716  1.00  0.00     0.198 C 
BRANCH  26  27
HETATM   27  O9  UNL     1      -1.346  41.212  53.821  1.00  0.00    -0.398 OA
ATOM     28  H9  UNL     1      -0.484  41.009  53.481  1.00  0.00     0.209 HD
ENDBRANCH  26  27
ENDBRANCH  23  26
ENDBRANCH  20  23
ENDBRANCH  17  20
ENDBRANCH   1  17
TORSDOF 15
ENDMDL
