MODEL 18
REMARK VINA RESULT: -6.137882732      1.388      1.678
REMARK  15 active torsions:
REMARK  status: ('A' for Active; 'I' for Inactive)
REMARK       I    between atoms: C2_2  and  N1_4 
REMARK    1  A    between atoms: N1_4  and  C3_6 
REMARK    2  A    between atoms: C3_6  and  C4_7 
REMARK    3  A    between atoms: C3_6  and  C8_17 
REMARK    4  A    between atoms: C4_7  and  O2_8 
REMARK    5  A    between atoms: C4_7  and  C5_10 
REMARK    6  A    between atoms: C5_10  and  C6_11 
REMARK    7  A    between atoms: C6_11  and  O3_12 
REMARK    8  A    between atoms: C6_11  and  C7_14 
REMARK    9  A    between atoms: C8_17  and  O6_18 
REMARK   10  A    between atoms: C8_17  and  C9_20 
REMARK   11  A    between atoms: C9_20  and  O7_21 
REMARK   12  A    between atoms: C9_20  and  C10_23 
REMARK   13  A    between atoms: C10_23  and  O8_24 
REMARK   14  A    between atoms: C10_23  and  C11_26 
REMARK   15  A    between atoms: C11_26  and  O9_27 
ROOT
HETATM    1  C3  UNL     1      -5.666  44.425  51.140  1.00  0.00     0.144 C 
ENDROOT
BRANCH   1   2
HETATM    2  N1  UNL     1      -5.297  44.079  49.773  1.00  0.00    -0.352 N 
HETATM    3  C2  UNL     1      -5.899  42.947  49.102  1.00  0.00     0.214 C 
HETATM    4  C1  UNL     1      -5.553  42.565  47.724  1.00  0.00     0.117 C 
HETATM    5  O1  UNL     1      -6.748  42.289  49.756  1.00  0.00    -0.274 OA
ATOM      6  H1  UNL     1      -4.603  44.643  49.282  1.00  0.00     0.163 HD
ENDBRANCH   1   2
BRANCH   1   7
HETATM    7  C4  UNL     1      -6.570  45.650  51.089  1.00  0.00     0.146 C 
BRANCH   7   8
HETATM    8  O2  UNL     1      -7.542  45.510  52.063  1.00  0.00    -0.393 OA
ATOM      9  H2  UNL     1      -8.143  46.242  51.989  1.00  0.00     0.210 HD
ENDBRANCH   7   8
BRANCH   7  10
HETATM   10  C5  UNL     1      -5.880  46.952  51.039  1.00  0.00     0.076 C 
BRANCH  10  11
HETATM   11  C6  UNL     1      -5.650  47.424  49.601  1.00  0.00     0.221 C 
BRANCH  11  12
HETATM   12  O3  UNL     1      -4.408  47.035  49.120  1.00  0.00    -0.385 OA
ATOM     13  H3  UNL     1      -4.450  46.760  48.212  1.00  0.00     0.210 HD
ENDBRANCH  11  12
BRANCH  11  14
HETATM   14  C7  UNL     1      -6.746  46.993  48.700  1.00  0.00     0.203 C 
HETATM   15  O4  UNL     1      -7.922  47.387  48.808  1.00  0.00    -0.646 OA
HETATM   16  O5  UNL     1      -6.451  46.099  47.674  1.00  0.00    -0.646 OA
ENDBRANCH  11  14
ENDBRANCH  10  11
ENDBRANCH   7  10
ENDBRANCH   1   7
BRANCH   1  17
HETATM   17  C8  UNL     1      -4.531  44.538  52.094  1.00  0.00     0.174 C 
BRANCH  17  18
HETATM   18  O6  UNL     1      -5.104  44.666  53.386  1.00  0.00    -0.391 OA
ATOM     19  H6  UNL     1      -5.151  43.788  53.747  1.00  0.00     0.210 HD
ENDBRANCH  17  18
BRANCH  17  20
HETATM   20  C9  UNL     1      -3.687  43.293  52.188  1.00  0.00     0.179 C 
BRANCH  20  21
HETATM   21  O7  UNL     1      -4.524  42.150  52.006  1.00  0.00    -0.390 OA
ATOM     22  H7  UNL     1      -5.364  42.434  51.664  1.00  0.00     0.210 HD
ENDBRANCH  20  21
BRANCH  20  23
HETATM   23  C10 UNL     1      -3.054  43.080  53.540  1.00  0.00     0.173 C 
BRANCH  23  24
HETATM   24  O8  UNL     1      -2.101  44.123  53.667  1.00  0.00    -0.391 OA
ATOM     25  H8  UNL     1      -2.368  44.606  54.439  1.00  0.00     0.210 HD
ENDBRANCH  23  24
BRANCH  23  26
HETATM   26  C11 UNL     1      -2.250  41.789  53.583  1.00  0.00     0.198 C 
BRANCH  26  27
HETATM   27  O9  UNL     1      -1.518  41.740  52.397  1.00  0.00    -0.398 OA
ATOM     28  H9  UNL     1      -0.603  41.690  52.648  1.00  0.00     0.209 HD
ENDBRANCH  26  27
ENDBRANCH  23  26
ENDBRANCH  20  23
ENDBRANCH  17  20
ENDBRANCH   1  17
TORSDOF 15
ENDMDL
