MODEL 1
REMARK VINA RESULT: -6.827780192      0.000      0.000
REMARK  13 active torsions:
REMARK  status: ('A' for Active; 'I' for Inactive)
REMARK       I    between atoms: C2_2  and  N1_4 
REMARK    1  A    between atoms: N1_4  and  C3_6 
REMARK    2  A    between atoms: C3_6  and  C4_7 
REMARK    3  A    between atoms: C3_6  and  C8_14 
REMARK    4  A    between atoms: C4_7  and  C5_8 
REMARK    5  A    between atoms: C5_8  and  C6_9 
REMARK    6  A    between atoms: C6_9  and  C7_11 
REMARK    7  A    between atoms: C8_14  and  O5_15 
REMARK    8  A    between atoms: C8_14  and  C9_17 
REMARK    9  A    between atoms: C9_17  and  O6_18 
REMARK   10  A    between atoms: C9_17  and  C10_20 
REMARK   11  A    between atoms: C10_20  and  O7_21 
REMARK   12  A    between atoms: C10_20  and  C11_23 
REMARK   13  A    between atoms: C11_23  and  O8_24 
ROOT
HETATM    1  C3  UNL     1      -0.082  16.118   9.780  1.00  0.00     0.116 C 
ENDROOT
BRANCH   1   2
HETATM    2  N1  UNL     1      -0.320  14.706   9.991  1.00  0.00    -0.354 N 
HETATM    3  C2  UNL     1      -1.287  13.954   9.279  1.00  0.00     0.214 C 
HETATM    4  C1  UNL     1      -1.443  12.518   9.576  1.00  0.00     0.117 C 
HETATM    5  O1  UNL     1      -2.001  14.503   8.407  1.00  0.00    -0.274 OA
ATOM      6  H1  UNL     1       0.241  14.224  10.693  1.00  0.00     0.162 HD
ENDBRANCH   1   2
BRANCH   1   7
HETATM    7  C4  UNL     1       1.256  16.411   9.213  1.00  0.00     0.036 C 
BRANCH   7   8
HETATM    8  C5  UNL     1       1.477  16.060   7.786  1.00  0.00     0.092 C 
BRANCH   8   9
HETATM    9  C6  UNL     1       1.874  14.663   7.523  1.00  0.00     0.225 C 
HETATM   10  O2  UNL     1       2.218  13.912   8.460  1.00  0.00    -0.286 OA
BRANCH   9  11
HETATM   11  C7  UNL     1       1.883  14.106   6.176  1.00  0.00     0.246 C 
HETATM   12  O3  UNL     1       1.153  14.652   5.301  1.00  0.00    -0.642 OA
HETATM   13  O4  UNL     1       2.657  13.013   5.832  1.00  0.00    -0.642 OA
ENDBRANCH   9  11
ENDBRANCH   8   9
ENDBRANCH   7   8
ENDBRANCH   1   7
BRANCH   1  14
HETATM   14  C8  UNL     1      -0.393  16.929  11.024  1.00  0.00     0.172 C 
BRANCH  14  15
HETATM   15  O5  UNL     1      -0.564  18.252  10.608  1.00  0.00    -0.391 OA
ATOM     16  H5  UNL     1      -1.497  18.427  10.629  1.00  0.00     0.210 HD
ENDBRANCH  14  15
BRANCH  14  17
HETATM   17  C9  UNL     1      -1.562  16.464  11.802  1.00  0.00     0.179 C 
BRANCH  17  18
HETATM   18  O6  UNL     1      -2.707  16.272  11.022  1.00  0.00    -0.390 OA
ATOM     19  H6  UNL     1      -3.070  17.081  10.680  1.00  0.00     0.210 HD
ENDBRANCH  17  18
BRANCH  17  20
HETATM   20  C10 UNL     1      -1.936  17.508  12.828  1.00  0.00     0.173 C 
BRANCH  20  21
HETATM   21  O7  UNL     1      -0.866  18.036  13.521  1.00  0.00    -0.391 OA
ATOM     22  H7  UNL     1      -0.912  18.975  13.657  1.00  0.00     0.210 HD
ENDBRANCH  20  21
BRANCH  20  23
HETATM   23  C11 UNL     1      -3.024  16.994  13.714  1.00  0.00     0.198 C 
BRANCH  23  24
HETATM   24  O8  UNL     1      -3.839  18.075  14.133  1.00  0.00    -0.398 OA
ATOM     25  H8  UNL     1      -3.598  18.328  15.016  1.00  0.00     0.209 HD
ENDBRANCH  23  24
ENDBRANCH  20  23
ENDBRANCH  17  20
ENDBRANCH  14  17
ENDBRANCH   1  14
TORSDOF 13
ENDMDL
