MODEL 19
REMARK VINA RESULT: -6.071774575      1.819      5.472
REMARK  13 active torsions:
REMARK  status: ('A' for Active; 'I' for Inactive)
REMARK       I    between atoms: C2_2  and  N1_4 
REMARK    1  A    between atoms: N1_4  and  C3_6 
REMARK    2  A    between atoms: C3_6  and  C4_7 
REMARK    3  A    between atoms: C3_6  and  C8_14 
REMARK    4  A    between atoms: C4_7  and  C5_8 
REMARK    5  A    between atoms: C5_8  and  C6_9 
REMARK    6  A    between atoms: C6_9  and  C7_11 
REMARK    7  A    between atoms: C8_14  and  O5_15 
REMARK    8  A    between atoms: C8_14  and  C9_17 
REMARK    9  A    between atoms: C9_17  and  O6_18 
REMARK   10  A    between atoms: C9_17  and  C10_20 
REMARK   11  A    between atoms: C10_20  and  O7_21 
REMARK   12  A    between atoms: C10_20  and  C11_23 
REMARK   13  A    between atoms: C11_23  and  O8_24 
ROOT
HETATM    1  C3  UNL     1       0.733  15.253  10.585  1.00  0.00     0.116 C 
ENDROOT
BRANCH   1   2
HETATM    2  N1  UNL     1       0.253  15.980  11.741  1.00  0.00    -0.354 N 
HETATM    3  C2  UNL     1      -0.616  17.097  11.666  1.00  0.00     0.214 C 
HETATM    4  C1  UNL     1      -1.042  17.761  12.912  1.00  0.00     0.117 C 
HETATM    5  O1  UNL     1      -1.017  17.514  10.554  1.00  0.00    -0.274 OA
ATOM      6  H1  UNL     1       0.559  15.670  12.664  1.00  0.00     0.162 HD
ENDBRANCH   1   2
BRANCH   1   7
HETATM    7  C4  UNL     1       1.047  13.833  10.872  1.00  0.00     0.036 C 
BRANCH   7   8
HETATM    8  C5  UNL     1      -0.102  12.918  11.093  1.00  0.00     0.092 C 
BRANCH   8   9
HETATM    9  C6  UNL     1      -0.654  12.275   9.884  1.00  0.00     0.225 C 
HETATM   10  O2  UNL     1      -0.141  11.231   9.429  1.00  0.00    -0.286 OA
BRANCH   9  11
HETATM   11  C7  UNL     1      -1.804  12.825   9.178  1.00  0.00     0.246 C 
HETATM   12  O3  UNL     1      -2.864  12.140   9.142  1.00  0.00    -0.642 OA
HETATM   13  O4  UNL     1      -1.768  14.058   8.552  1.00  0.00    -0.642 OA
ENDBRANCH   9  11
ENDBRANCH   8   9
ENDBRANCH   7   8
ENDBRANCH   1   7
BRANCH   1  14
HETATM   14  C8  UNL     1       1.868  15.987   9.895  1.00  0.00     0.172 C 
BRANCH  14  15
HETATM   15  O5  UNL     1       3.032  15.260  10.153  1.00  0.00    -0.391 OA
ATOM     16  H5  UNL     1       2.762  14.369  10.339  1.00  0.00     0.210 HD
ENDBRANCH  14  15
BRANCH  14  17
HETATM   17  C9  UNL     1       1.687  16.199   8.442  1.00  0.00     0.179 C 
BRANCH  17  18
HETATM   18  O6  UNL     1       0.345  16.241   8.050  1.00  0.00    -0.390 OA
ATOM     19  H6  UNL     1       0.228  16.436   7.128  1.00  0.00     0.210 HD
ENDBRANCH  17  18
BRANCH  17  20
HETATM   20  C10 UNL     1       2.299  15.045   7.682  1.00  0.00     0.173 C 
BRANCH  20  21
HETATM   21  O7  UNL     1       3.287  15.409   6.791  1.00  0.00    -0.391 OA
ATOM     22  H7  UNL     1       3.516  14.736   6.161  1.00  0.00     0.210 HD
ENDBRANCH  20  21
BRANCH  20  23
HETATM   23  C11 UNL     1       1.227  14.204   7.070  1.00  0.00     0.198 C 
BRANCH  23  24
HETATM   24  O8  UNL     1       1.152  14.473   5.681  1.00  0.00    -0.398 OA
ATOM     25  H8  UNL     1       2.021  14.422   5.303  1.00  0.00     0.209 HD
ENDBRANCH  23  24
ENDBRANCH  20  23
ENDBRANCH  17  20
ENDBRANCH  14  17
ENDBRANCH   1  14
TORSDOF 13
ENDMDL
