MODEL 5
REMARK VINA RESULT: -6.395207913      1.292      1.338
REMARK  13 active torsions:
REMARK  status: ('A' for Active; 'I' for Inactive)
REMARK       I    between atoms: C2_2  and  N1_4 
REMARK    1  A    between atoms: N1_4  and  C3_6 
REMARK    2  A    between atoms: C3_6  and  C4_7 
REMARK    3  A    between atoms: C3_6  and  C8_14 
REMARK    4  A    between atoms: C4_7  and  C5_8 
REMARK    5  A    between atoms: C5_8  and  C6_9 
REMARK    6  A    between atoms: C6_9  and  C7_11 
REMARK    7  A    between atoms: C8_14  and  O5_15 
REMARK    8  A    between atoms: C8_14  and  C9_17 
REMARK    9  A    between atoms: C9_17  and  O6_18 
REMARK   10  A    between atoms: C9_17  and  C10_20 
REMARK   11  A    between atoms: C10_20  and  O7_21 
REMARK   12  A    between atoms: C10_20  and  C11_23 
REMARK   13  A    between atoms: C11_23  and  O8_24 
ROOT
HETATM    1  C3  UNL     1       0.336  15.866  10.357  1.00  0.00     0.116 C 
ENDROOT
BRANCH   1   2
HETATM    2  N1  UNL     1       0.879  14.742  11.089  1.00  0.00    -0.354 N 
HETATM    3  C2  UNL     1       0.799  13.398  10.644  1.00  0.00     0.214 C 
HETATM    4  C1  UNL     1       1.389  12.331  11.472  1.00  0.00     0.117 C 
HETATM    5  O1  UNL     1       0.233  13.123   9.560  1.00  0.00    -0.274 OA
ATOM      6  H1  UNL     1       1.347  14.926  11.976  1.00  0.00     0.162 HD
ENDBRANCH   1   2
BRANCH   1   7
HETATM    7  C4  UNL     1       1.303  16.474   9.411  1.00  0.00     0.036 C 
BRANCH   7   8
HETATM    8  C5  UNL     1       1.108  16.184   7.967  1.00  0.00     0.092 C 
BRANCH   8   9
HETATM    9  C6  UNL     1       2.140  15.337   7.338  1.00  0.00     0.225 C 
HETATM   10  O2  UNL     1       3.346  15.481   7.630  1.00  0.00    -0.286 OA
BRANCH   9  11
HETATM   11  C7  UNL     1       1.802  14.311   6.359  1.00  0.00     0.246 C 
HETATM   12  O3  UNL     1       1.094  14.644   5.368  1.00  0.00    -0.642 OA
HETATM   13  O4  UNL     1       2.228  13.001   6.483  1.00  0.00    -0.642 OA
ENDBRANCH   9  11
ENDBRANCH   8   9
ENDBRANCH   7   8
ENDBRANCH   1   7
BRANCH   1  14
HETATM   14  C8  UNL     1      -0.307  16.880  11.286  1.00  0.00     0.172 C 
BRANCH  14  15
HETATM   15  O5  UNL     1      -0.439  18.065  10.557  1.00  0.00    -0.391 OA
ATOM     16  H5  UNL     1       0.055  18.728  11.024  1.00  0.00     0.210 HD
ENDBRANCH  14  15
BRANCH  14  17
HETATM   17  C9  UNL     1      -1.603  16.466  11.865  1.00  0.00     0.179 C 
BRANCH  17  18
HETATM   18  O6  UNL     1      -2.616  16.320  10.912  1.00  0.00    -0.390 OA
ATOM     19  H6  UNL     1      -3.379  15.860  11.240  1.00  0.00     0.210 HD
ENDBRANCH  17  18
BRANCH  17  20
HETATM   20  C10 UNL     1      -2.093  17.530  12.821  1.00  0.00     0.173 C 
BRANCH  20  21
HETATM   21  O7  UNL     1      -1.095  18.150  13.544  1.00  0.00    -0.391 OA
ATOM     22  H7  UNL     1      -0.852  17.699  14.344  1.00  0.00     0.210 HD
ENDBRANCH  20  21
BRANCH  20  23
HETATM   23  C11 UNL     1      -3.196  16.991  13.671  1.00  0.00     0.198 C 
BRANCH  23  24
HETATM   24  O8  UNL     1      -3.940  18.067  14.216  1.00  0.00    -0.398 OA
ATOM     25  H8  UNL     1      -4.822  17.775  14.411  1.00  0.00     0.209 HD
ENDBRANCH  23  24
ENDBRANCH  20  23
ENDBRANCH  17  20
ENDBRANCH  14  17
ENDBRANCH   1  14
TORSDOF 13
ENDMDL
