MODEL 17
REMARK VINA RESULT: -6.136245260      2.210      5.005
REMARK  13 active torsions:
REMARK  status: ('A' for Active; 'I' for Inactive)
REMARK       I    between atoms: C2_2  and  N1_4 
REMARK    1  A    between atoms: N1_4  and  C3_6 
REMARK    2  A    between atoms: C3_6  and  C4_7 
REMARK    3  A    between atoms: C3_6  and  C8_14 
REMARK    4  A    between atoms: C4_7  and  C5_8 
REMARK    5  A    between atoms: C5_8  and  C6_9 
REMARK    6  A    between atoms: C6_9  and  C7_11 
REMARK    7  A    between atoms: C8_14  and  O5_15 
REMARK    8  A    between atoms: C8_14  and  C9_17 
REMARK    9  A    between atoms: C9_17  and  O6_18 
REMARK   10  A    between atoms: C9_17  and  C10_20 
REMARK   11  A    between atoms: C10_20  and  O7_21 
REMARK   12  A    between atoms: C10_20  and  C11_23 
REMARK   13  A    between atoms: C11_23  and  O8_24 
ROOT
HETATM    1  C3  UNL     1      -1.364  16.161  11.636  1.00  0.00     0.116 C 
ENDROOT
BRANCH   1   2
HETATM    2  N1  UNL     1      -0.479  15.845  12.736  1.00  0.00    -0.354 N 
HETATM    3  C2  UNL     1      -0.909  15.697  14.078  1.00  0.00     0.214 C 
HETATM    4  C1  UNL     1       0.083  15.373  15.120  1.00  0.00     0.117 C 
HETATM    5  O1  UNL     1      -2.118  15.840  14.375  1.00  0.00    -0.274 OA
ATOM      6  H1  UNL     1       0.514  15.722  12.534  1.00  0.00     0.162 HD
ENDBRANCH   1   2
BRANCH   1   7
HETATM    7  C4  UNL     1      -2.106  14.985  11.122  1.00  0.00     0.036 C 
BRANCH   7   8
HETATM    8  C5  UNL     1      -2.335  14.918   9.655  1.00  0.00     0.092 C 
BRANCH   8   9
HETATM    9  C6  UNL     1      -1.698  13.784   8.958  1.00  0.00     0.225 C 
HETATM   10  O2  UNL     1      -0.872  13.983   8.043  1.00  0.00    -0.286 OA
BRANCH   9  11
HETATM   11  C7  UNL     1      -2.004  12.401   9.301  1.00  0.00     0.246 C 
HETATM   12  O3  UNL     1      -3.208  12.025   9.246  1.00  0.00    -0.642 OA
HETATM   13  O4  UNL     1      -1.026  11.499   9.681  1.00  0.00    -0.642 OA
ENDBRANCH   9  11
ENDBRANCH   8   9
ENDBRANCH   7   8
ENDBRANCH   1   7
BRANCH   1  14
HETATM   14  C8  UNL     1      -0.647  16.937  10.546  1.00  0.00     0.172 C 
BRANCH  14  15
HETATM   15  O5  UNL     1      -0.940  18.287  10.756  1.00  0.00    -0.391 OA
ATOM     16  H5  UNL     1      -1.871  18.339  10.936  1.00  0.00     0.210 HD
ENDBRANCH  14  15
BRANCH  14  17
HETATM   17  C9  UNL     1       0.814  16.716  10.476  1.00  0.00     0.179 C 
BRANCH  17  18
HETATM   18  O6  UNL     1       1.557  17.706  11.125  1.00  0.00    -0.390 OA
ATOM     19  H6  UNL     1       1.064  18.174  11.789  1.00  0.00     0.210 HD
ENDBRANCH  17  18
BRANCH  17  20
HETATM   20  C10 UNL     1       1.262  16.749   9.032  1.00  0.00     0.173 C 
BRANCH  20  21
HETATM   21  O7  UNL     1       0.231  16.733   8.115  1.00  0.00    -0.391 OA
ATOM     22  H7  UNL     1      -0.442  17.384   8.270  1.00  0.00     0.210 HD
ENDBRANCH  20  21
BRANCH  20  23
HETATM   23  C11 UNL     1       2.293  15.696   8.788  1.00  0.00     0.198 C 
BRANCH  23  24
HETATM   24  O8  UNL     1       3.523  16.100   9.363  1.00  0.00    -0.398 OA
ATOM     25  H8  UNL     1       4.240  15.790   8.823  1.00  0.00     0.209 HD
ENDBRANCH  23  24
ENDBRANCH  20  23
ENDBRANCH  17  20
ENDBRANCH  14  17
ENDBRANCH   1  14
TORSDOF 13
ENDMDL
