MODEL 2
REMARK VINA RESULT: -6.764597555      0.893      1.028
REMARK  13 active torsions:
REMARK  status: ('A' for Active; 'I' for Inactive)
REMARK       I    between atoms: C2_2  and  N1_4 
REMARK    1  A    between atoms: N1_4  and  C3_6 
REMARK    2  A    between atoms: C3_6  and  C4_7 
REMARK    3  A    between atoms: C3_6  and  C8_14 
REMARK    4  A    between atoms: C4_7  and  C5_8 
REMARK    5  A    between atoms: C5_8  and  C6_9 
REMARK    6  A    between atoms: C6_9  and  C7_11 
REMARK    7  A    between atoms: C8_14  and  O5_15 
REMARK    8  A    between atoms: C8_14  and  C9_17 
REMARK    9  A    between atoms: C9_17  and  O6_18 
REMARK   10  A    between atoms: C9_17  and  C10_20 
REMARK   11  A    between atoms: C10_20  and  O7_21 
REMARK   12  A    between atoms: C10_20  and  C11_23 
REMARK   13  A    between atoms: C11_23  and  O8_24 
ROOT
HETATM    1  C3  UNL     1      -0.186  16.229   9.720  1.00  0.00     0.116 C 
ENDROOT
BRANCH   1   2
HETATM    2  N1  UNL     1      -0.588  14.841   9.799  1.00  0.00    -0.354 N 
HETATM    3  C2  UNL     1      -1.759  14.324   9.191  1.00  0.00     0.214 C 
HETATM    4  C1  UNL     1      -2.070  12.889   9.337  1.00  0.00     0.117 C 
HETATM    5  O1  UNL     1      -2.520  15.076   8.539  1.00  0.00    -0.274 OA
ATOM      6  H1  UNL     1       0.006  14.198  10.322  1.00  0.00     0.162 HD
ENDBRANCH   1   2
BRANCH   1   7
HETATM    7  C4  UNL     1       1.208  16.412   9.246  1.00  0.00     0.036 C 
BRANCH   7   8
HETATM    8  C5  UNL     1       1.492  16.060   7.831  1.00  0.00     0.092 C 
BRANCH   8   9
HETATM    9  C6  UNL     1       1.831  14.646   7.577  1.00  0.00     0.225 C 
HETATM   10  O2  UNL     1       2.122  13.882   8.521  1.00  0.00    -0.286 OA
BRANCH   9  11
HETATM   11  C7  UNL     1       1.842  14.088   6.231  1.00  0.00     0.246 C 
HETATM   12  O3  UNL     1       1.136  14.649   5.347  1.00  0.00    -0.642 OA
HETATM   13  O4  UNL     1       2.593  12.975   5.897  1.00  0.00    -0.642 OA
ENDBRANCH   9  11
ENDBRANCH   8   9
ENDBRANCH   7   8
ENDBRANCH   1   7
BRANCH   1  14
HETATM   14  C8  UNL     1      -0.479  16.971  11.011  1.00  0.00     0.172 C 
BRANCH  14  15
HETATM   15  O5  UNL     1      -0.743  18.297  10.661  1.00  0.00    -0.391 OA
ATOM     16  H5  UNL     1      -1.348  18.636  11.310  1.00  0.00     0.210 HD
ENDBRANCH  14  15
BRANCH  14  17
HETATM   17  C9  UNL     1      -1.580  16.408  11.822  1.00  0.00     0.179 C 
BRANCH  17  18
HETATM   18  O6  UNL     1      -2.849  16.687  11.306  1.00  0.00    -0.390 OA
ATOM     19  H6  UNL     1      -3.510  16.057  11.567  1.00  0.00     0.210 HD
ENDBRANCH  17  18
BRANCH  17  20
HETATM   20  C10 UNL     1      -1.556  17.021  13.204  1.00  0.00     0.173 C 
BRANCH  20  21
HETATM   21  O7  UNL     1      -0.639  18.040  13.359  1.00  0.00    -0.391 OA
ATOM     22  H7  UNL     1       0.258  17.747  13.470  1.00  0.00     0.210 HD
ENDBRANCH  20  21
BRANCH  20  23
HETATM   23  C11 UNL     1      -1.441  15.952  14.240  1.00  0.00     0.198 C 
BRANCH  23  24
HETATM   24  O8  UNL     1      -0.606  16.405  15.292  1.00  0.00    -0.398 OA
ATOM     25  H8  UNL     1       0.252  16.615  14.945  1.00  0.00     0.209 HD
ENDBRANCH  23  24
ENDBRANCH  20  23
ENDBRANCH  17  20
ENDBRANCH  14  17
ENDBRANCH   1  14
TORSDOF 13
ENDMDL
