MODEL 4
REMARK VINA RESULT: -6.412483938      1.992      2.500
REMARK  13 active torsions:
REMARK  status: ('A' for Active; 'I' for Inactive)
REMARK       I    between atoms: C2_2  and  N1_4 
REMARK    1  A    between atoms: N1_4  and  C3_6 
REMARK    2  A    between atoms: C3_6  and  C4_7 
REMARK    3  A    between atoms: C3_6  and  C8_14 
REMARK    4  A    between atoms: C4_7  and  C5_8 
REMARK    5  A    between atoms: C5_8  and  C6_9 
REMARK    6  A    between atoms: C6_9  and  C7_11 
REMARK    7  A    between atoms: C8_14  and  O5_15 
REMARK    8  A    between atoms: C8_14  and  C9_17 
REMARK    9  A    between atoms: C9_17  and  O6_18 
REMARK   10  A    between atoms: C9_17  and  C10_20 
REMARK   11  A    between atoms: C10_20  and  O7_21 
REMARK   12  A    between atoms: C10_20  and  C11_23 
REMARK   13  A    between atoms: C11_23  and  O8_24 
ROOT
HETATM    1  C3  UNL     1      -0.537  15.734  11.280  1.00  0.00     0.116 C 
ENDROOT
BRANCH   1   2
HETATM    2  N1  UNL     1       0.436  14.800  11.804  1.00  0.00    -0.354 N 
HETATM    3  C2  UNL     1       0.171  13.893  12.860  1.00  0.00     0.214 C 
HETATM    4  C1  UNL     1       1.241  12.985  13.313  1.00  0.00     0.117 C 
HETATM    5  O1  UNL     1      -0.959  13.865  13.401  1.00  0.00    -0.274 OA
ATOM      6  H1  UNL     1       1.368  14.795  11.389  1.00  0.00     0.162 HD
ENDBRANCH   1   2
BRANCH   1   7
HETATM    7  C4  UNL     1      -0.756  15.599   9.820  1.00  0.00     0.036 C 
BRANCH   7   8
HETATM    8  C5  UNL     1       0.237  14.797   9.059  1.00  0.00     0.092 C 
BRANCH   8   9
HETATM    9  C6  UNL     1       1.177  15.566   8.221  1.00  0.00     0.225 C 
HETATM   10  O2  UNL     1       1.474  16.743   8.515  1.00  0.00    -0.286 OA
BRANCH   9  11
HETATM   11  C7  UNL     1       1.790  14.994   7.029  1.00  0.00     0.246 C 
HETATM   12  O3  UNL     1       3.038  15.125   6.880  1.00  0.00    -0.642 OA
HETATM   13  O4  UNL     1       1.056  14.322   6.068  1.00  0.00    -0.642 OA
ENDBRANCH   9  11
ENDBRANCH   8   9
ENDBRANCH   7   8
ENDBRANCH   1   7
BRANCH   1  14
HETATM   14  C8  UNL     1      -0.234  17.158  11.708  1.00  0.00     0.172 C 
BRANCH  14  15
HETATM   15  O5  UNL     1      -0.412  17.963  10.580  1.00  0.00    -0.391 OA
ATOM     16  H5  UNL     1      -1.300  17.814  10.277  1.00  0.00     0.210 HD
ENDBRANCH  14  15
BRANCH  14  17
HETATM   17  C9  UNL     1      -1.036  17.656  12.847  1.00  0.00     0.179 C 
BRANCH  17  18
HETATM   18  O6  UNL     1      -0.959  16.839  13.979  1.00  0.00    -0.390 OA
ATOM     19  H6  UNL     1      -0.848  17.325  14.788  1.00  0.00     0.210 HD
ENDBRANCH  17  18
BRANCH  17  20
HETATM   20  C10 UNL     1      -2.498  17.684  12.463  1.00  0.00     0.173 C 
BRANCH  20  21
HETATM   21  O7  UNL     1      -2.964  18.928  12.088  1.00  0.00    -0.391 OA
ATOM     22  H7  UNL     1      -3.490  18.927  11.297  1.00  0.00     0.210 HD
ENDBRANCH  20  21
BRANCH  20  23
HETATM   23  C11 UNL     1      -3.323  17.034  13.524  1.00  0.00     0.198 C 
BRANCH  23  24
HETATM   24  O8  UNL     1      -3.908  18.032  14.343  1.00  0.00    -0.398 OA
ATOM     25  H8  UNL     1      -3.707  18.889  13.987  1.00  0.00     0.209 HD
ENDBRANCH  23  24
ENDBRANCH  20  23
ENDBRANCH  17  20
ENDBRANCH  14  17
ENDBRANCH   1  14
TORSDOF 13
ENDMDL
