MODEL 3
REMARK VINA RESULT: -5.520685182      2.105      2.986
REMARK  5 active torsions:
REMARK  status: ('A' for Active; 'I' for Inactive)
REMARK    1  A    between atoms: N1_5  and  C4_6 
REMARK    2  A    between atoms: C6_8  and  O2_9 
REMARK    3  A    between atoms: C7_11  and  C8_12 
REMARK    4  A    between atoms: C8_12  and  O3_13 
REMARK    5  A    between atoms: O3_13  and  P1_14 
ROOT
HETATM    1  C4  UNL     1      13.088   9.386  27.019  1.00  0.00     0.235 C 
HETATM    2  C5  UNL     1      14.263   8.992  26.167  1.00  0.00     0.088 C 
HETATM    3  C6  UNL     1      14.767  10.361  25.700  1.00  0.00     0.153 C 
HETATM    4  C7  UNL     1      13.531  11.199  25.834  1.00  0.00     0.177 C 
HETATM    5  O7  UNL     1      12.512  10.405  26.293  1.00  0.00    -0.356 OA
ENDROOT
BRANCH   1   6
HETATM    6  N1  UNL     1      12.189   8.291  27.263  1.00  0.00    -0.282 N 
HETATM    7  C3  UNL     1      11.382   7.750  26.333  1.00  0.00     0.104 A 
HETATM    8  C2  UNL     1      10.528   6.700  26.589  1.00  0.00     0.092 A 
HETATM    9  C1  UNL     1      10.506   6.182  27.866  1.00  0.00     0.250 A 
HETATM   10  O1  UNL     1       9.732   5.232  28.095  1.00  0.00    -0.268 OA
HETATM   11  N2  UNL     1      11.322   6.731  28.797  1.00  0.00    -0.275 N 
HETATM   12  C9  UNL     1      12.145   7.765  28.495  1.00  0.00     0.331 A 
ATOM     13  H2  UNL     1      11.318   6.358  29.747  1.00  0.00     0.173 HD
HETATM   14  O8  UNL     1      12.862   8.205  29.421  1.00  0.00    -0.246 OA
ENDBRANCH   1   6
BRANCH   3  15
HETATM   15  O2  UNL     1      15.815  10.801  26.500  1.00  0.00    -0.393 OA
ATOM     16  H2  UNL     1      16.575  10.240  26.399  1.00  0.00     0.210 HD
ENDBRANCH   3  15
BRANCH   4  17
HETATM   17  C8  UNL     1      13.229  11.825  24.495  1.00  0.00     0.217 C 
BRANCH  17  18
HETATM   18  O3  UNL     1      14.279  12.695  24.121  1.00  0.00    -0.280 OA
BRANCH  18  19
HETATM   19  P1  UNL     1      13.987  14.261  24.631  1.00  0.00     0.422 P 
HETATM   20  O4  UNL     1      14.782  14.552  25.892  1.00  0.00    -0.617 OA
HETATM   21  O5  UNL     1      12.340  14.556  24.878  1.00  0.00    -0.617 OA
HETATM   22  O6  UNL     1      14.528  15.371  23.454  1.00  0.00    -0.617 OA
ENDBRANCH  18  19
ENDBRANCH  17  18
ENDBRANCH   4  17
TORSDOF 5
ENDMDL
