MODEL 2
REMARK VINA RESULT: -5.639290846      3.904      5.938
REMARK  5 active torsions:
REMARK  status: ('A' for Active; 'I' for Inactive)
REMARK    1  A    between atoms: N1_5  and  C4_6 
REMARK    2  A    between atoms: C6_8  and  O2_9 
REMARK    3  A    between atoms: C7_11  and  C8_12 
REMARK    4  A    between atoms: C8_12  and  O3_13 
REMARK    5  A    between atoms: O3_13  and  P1_14 
ROOT
HETATM    1  C4  UNL     1      12.561   7.660  29.422  1.00  0.00     0.235 C 
HETATM    2  C5  UNL     1      12.992   8.431  28.205  1.00  0.00     0.088 C 
HETATM    3  C6  UNL     1      11.650   8.656  27.502  1.00  0.00     0.153 C 
HETATM    4  C7  UNL     1      10.827   7.532  28.057  1.00  0.00     0.177 C 
HETATM    5  O7  UNL     1      11.605   6.804  28.919  1.00  0.00    -0.356 OA
ENDROOT
BRANCH   1   6
HETATM    6  N1  UNL     1      13.653   6.973  30.058  1.00  0.00    -0.282 N 
HETATM    7  C3  UNL     1      14.750   6.535  29.415  1.00  0.00     0.104 A 
HETATM    8  C2  UNL     1      15.785   5.879  30.045  1.00  0.00     0.092 A 
HETATM    9  C1  UNL     1      15.683   5.665  31.402  1.00  0.00     0.250 A 
HETATM   10  O1  UNL     1      16.621   5.071  31.969  1.00  0.00    -0.268 OA
HETATM   11  N2  UNL     1      14.575   6.109  32.042  1.00  0.00    -0.275 N 
HETATM   12  C9  UNL     1      13.583   6.750  31.377  1.00  0.00     0.331 A 
ATOM     13  H2  UNL     1      14.485   5.959  33.048  1.00  0.00     0.173 HD
HETATM   14  O8  UNL     1      12.599   7.123  32.054  1.00  0.00    -0.246 OA
ENDBRANCH   1   6
BRANCH   3  15
HETATM   15  O2  UNL     1      11.137   9.911  27.807  1.00  0.00    -0.393 OA
ATOM     16  H2  UNL     1      10.207   9.860  27.990  1.00  0.00     0.210 HD
ENDBRANCH   3  15
BRANCH   4  17
HETATM   17  C8  UNL     1      10.301   6.710  26.906  1.00  0.00     0.217 C 
BRANCH  17  18
HETATM   18  O3  UNL     1      11.349   5.950  26.336  1.00  0.00    -0.280 OA
BRANCH  18  19
HETATM   19  P1  UNL     1      11.185   4.323  26.691  1.00  0.00     0.422 P 
HETATM   20  O4  UNL     1      11.002   3.529  25.409  1.00  0.00    -0.617 OA
HETATM   21  O5  UNL     1       9.915   4.028  27.768  1.00  0.00    -0.617 OA
HETATM   22  O6  UNL     1      12.612   3.737  27.420  1.00  0.00    -0.617 OA
ENDBRANCH  18  19
ENDBRANCH  17  18
ENDBRANCH   4  17
TORSDOF 5
ENDMDL
