MODEL 1
REMARK VINA RESULT: -5.642694087      0.000      0.000
REMARK  5 active torsions:
REMARK  status: ('A' for Active; 'I' for Inactive)
REMARK    1  A    between atoms: N1_5  and  C4_6 
REMARK    2  A    between atoms: C6_8  and  O2_9 
REMARK    3  A    between atoms: C7_11  and  C8_12 
REMARK    4  A    between atoms: C8_12  and  O3_13 
REMARK    5  A    between atoms: O3_13  and  P1_14 
ROOT
HETATM    1  C4  UNL     1      13.264   8.411  27.158  1.00  0.00     0.235 C 
HETATM    2  C5  UNL     1      11.929   8.957  26.731  1.00  0.00     0.088 C 
HETATM    3  C6  UNL     1      12.324   9.787  25.505  1.00  0.00     0.153 C 
HETATM    4  C7  UNL     1      13.771  10.066  25.783  1.00  0.00     0.177 C 
HETATM    5  O7  UNL     1      14.106   9.487  26.979  1.00  0.00    -0.356 OA
ENDROOT
BRANCH   1   6
HETATM    6  N1  UNL     1      13.255   7.922  28.510  1.00  0.00    -0.282 N 
HETATM    7  C3  UNL     1      12.417   8.357  29.468  1.00  0.00     0.104 A 
HETATM    8  C2  UNL     1      12.426   7.873  30.759  1.00  0.00     0.092 A 
HETATM    9  C1  UNL     1      13.343   6.895  31.075  1.00  0.00     0.250 A 
HETATM   10  O1  UNL     1      13.348   6.460  32.243  1.00  0.00    -0.268 OA
HETATM   11  N2  UNL     1      14.182   6.462  30.105  1.00  0.00    -0.275 N 
HETATM   12  C9  UNL     1      14.134   6.970  28.849  1.00  0.00     0.331 A 
ATOM     13  H2  UNL     1      14.867   5.737  30.323  1.00  0.00     0.173 HD
HETATM   14  O8  UNL     1      14.950   6.506  28.021  1.00  0.00    -0.246 OA
ENDBRANCH   1   6
BRANCH   3  15
HETATM   15  O2  UNL     1      12.121   9.065  24.335  1.00  0.00    -0.393 OA
ATOM     16  H2  UNL     1      12.950   8.851  23.923  1.00  0.00     0.210 HD
ENDBRANCH   3  15
BRANCH   4  17
HETATM   17  C8  UNL     1      13.979  11.561  25.776  1.00  0.00     0.217 C 
BRANCH  17  18
HETATM   18  O3  UNL     1      12.903  12.196  25.116  1.00  0.00    -0.280 OA
BRANCH  18  19
HETATM   19  P1  UNL     1      13.318  13.737  24.614  1.00  0.00     0.422 P 
HETATM   20  O4  UNL     1      12.095  14.638  24.638  1.00  0.00    -0.617 OA
HETATM   21  O5  UNL     1      14.035  13.739  23.082  1.00  0.00    -0.617 OA
HETATM   22  O6  UNL     1      14.442  14.423  25.699  1.00  0.00    -0.617 OA
ENDBRANCH  18  19
ENDBRANCH  17  18
ENDBRANCH   4  17
TORSDOF 5
ENDMDL
