MODEL 3
REMARK VINA RESULT: -6.843655465      0.965      1.567
REMARK  9 active torsions:
REMARK  status: ('A' for Active; 'I' for Inactive)
REMARK       I    between atoms: C2_2  and  N1_4 
REMARK    1  A    between atoms: N1_4  and  C3_6 
REMARK    2  A    between atoms: C4_7  and  O2_8 
REMARK    3  A    between atoms: C6_11  and  C7_12 
REMARK    4  A    between atoms: C8_16  and  C9_17 
REMARK    5  A    between atoms: C9_17  and  O6_18 
REMARK    6  A    between atoms: C9_17  and  C10_20 
REMARK    7  A    between atoms: C10_20  and  O7_21 
REMARK    8  A    between atoms: C10_20  and  C11_23 
REMARK    9  A    between atoms: C11_23  and  O8_24 
ROOT
HETATM    1  C3  UNL     1      25.471  18.307  63.499  1.00  0.00     0.149 C 
HETATM    2  C4  UNL     1      24.669  17.063  63.214  1.00  0.00     0.169 C 
HETATM    3  C5  UNL     1      25.062  16.574  61.876  1.00  0.00     0.050 C 
HETATM    4  C6  UNL     1      26.266  16.810  61.403  1.00  0.00     0.144 C 
HETATM    5  O5  UNL     1      27.208  17.514  62.118  1.00  0.00    -0.335 OA
HETATM    6  C8  UNL     1      26.970  18.052  63.396  1.00  0.00     0.186 C 
ENDROOT
BRANCH   6   7
HETATM    7  C9  UNL     1      27.620  19.376  63.615  1.00  0.00     0.180 C 
BRANCH   7   8
HETATM    8  O6  UNL     1      27.042  20.345  62.813  1.00  0.00    -0.390 OA
ATOM      9  H6  UNL     1      26.716  21.065  63.338  1.00  0.00     0.210 HD
ENDBRANCH   7   8
BRANCH   7  10
HETATM   10  C10 UNL     1      29.102  19.382  63.493  1.00  0.00     0.173 C 
BRANCH  10  11
HETATM   11  O7  UNL     1      29.559  18.133  63.978  1.00  0.00    -0.391 OA
ATOM     12  H7  UNL     1      30.429  18.275  64.330  1.00  0.00     0.210 HD
ENDBRANCH  10  11
BRANCH  10  13
HETATM   13  C11 UNL     1      29.758  20.420  64.393  1.00  0.00     0.198 C 
BRANCH  13  14
HETATM   14  O8  UNL     1      28.984  21.576  64.444  1.00  0.00    -0.398 OA
ATOM     15  H8  UNL     1      29.486  22.324  64.143  1.00  0.00     0.209 HD
ENDBRANCH  13  14
ENDBRANCH  10  13
ENDBRANCH   7  10
ENDBRANCH   6   7
BRANCH   1  16
HETATM   16  N1  UNL     1      25.209  18.704  64.868  1.00  0.00    -0.351 N 
HETATM   17  C2  UNL     1      24.677  19.965  65.232  1.00  0.00     0.214 C 
HETATM   18  C1  UNL     1      24.424  20.326  66.669  1.00  0.00     0.117 C 
HETATM   19  O1  UNL     1      24.415  20.783  64.322  1.00  0.00    -0.274 OA
ATOM     20  H1  UNL     1      25.421  18.038  65.611  1.00  0.00     0.163 HD
ENDBRANCH   1  16
BRANCH   2  21
HETATM   21  O2  UNL     1      23.328  17.439  63.161  1.00  0.00    -0.389 OA
ATOM     22  H2  UNL     1      22.821  16.732  63.543  1.00  0.00     0.210 HD
ENDBRANCH   2  21
BRANCH   4  23
HETATM   23  C7  UNL     1      26.598  16.294  60.059  1.00  0.00     0.233 C 
HETATM   24  O3  UNL     1      26.754  15.083  59.845  1.00  0.00    -0.642 OA
HETATM   25  O4  UNL     1      26.746  17.164  58.985  1.00  0.00    -0.642 OA
ENDBRANCH   4  23
TORSDOF 9
ENDMDL
