MODEL 2
REMARK VINA RESULT: -6.867213545      2.084      4.808
REMARK  9 active torsions:
REMARK  status: ('A' for Active; 'I' for Inactive)
REMARK       I    between atoms: C2_2  and  N1_4 
REMARK    1  A    between atoms: N1_4  and  C3_6 
REMARK    2  A    between atoms: C4_7  and  O2_8 
REMARK    3  A    between atoms: C6_11  and  C7_12 
REMARK    4  A    between atoms: C8_16  and  C9_17 
REMARK    5  A    between atoms: C9_17  and  O6_18 
REMARK    6  A    between atoms: C9_17  and  C10_20 
REMARK    7  A    between atoms: C10_20  and  O7_21 
REMARK    8  A    between atoms: C10_20  and  C11_23 
REMARK    9  A    between atoms: C11_23  and  O8_24 
ROOT
HETATM    1  C3  UNL     1      25.631  16.700  62.451  1.00  0.00     0.149 C 
HETATM    2  C4  UNL     1      24.137  16.511  62.506  1.00  0.00     0.169 C 
HETATM    3  C5  UNL     1      23.631  17.270  63.669  1.00  0.00     0.050 C 
HETATM    4  C6  UNL     1      24.264  18.341  64.097  1.00  0.00     0.144 C 
HETATM    5  O5  UNL     1      25.411  18.803  63.493  1.00  0.00    -0.335 OA
HETATM    6  C8  UNL     1      26.014  18.174  62.389  1.00  0.00     0.186 C 
ENDROOT
BRANCH   6   7
HETATM    7  C9  UNL     1      27.505  18.205  62.427  1.00  0.00     0.180 C 
BRANCH   7   8
HETATM    8  O6  UNL     1      27.997  17.180  63.217  1.00  0.00    -0.390 OA
ATOM      9  H6  UNL     1      28.214  16.423  62.687  1.00  0.00     0.210 HD
ENDBRANCH   7   8
BRANCH   7  10
HETATM   10  C10 UNL     1      28.102  19.514  62.802  1.00  0.00     0.173 C 
BRANCH  10  11
HETATM   11  O7  UNL     1      27.559  20.480  61.921  1.00  0.00    -0.391 OA
ATOM     12  H7  UNL     1      27.819  20.229  61.043  1.00  0.00     0.210 HD
ENDBRANCH  10  11
BRANCH  10  13
HETATM   13  C11 UNL     1      29.604  19.561  62.563  1.00  0.00     0.198 C 
BRANCH  13  14
HETATM   14  O8  UNL     1      29.942  18.800  61.448  1.00  0.00    -0.398 OA
ATOM     15  H8  UNL     1      30.878  18.838  61.291  1.00  0.00     0.209 HD
ENDBRANCH  13  14
ENDBRANCH  10  13
ENDBRANCH   7  10
ENDBRANCH   6   7
BRANCH   1  16
HETATM   16  N1  UNL     1      26.115  16.092  61.228  1.00  0.00    -0.351 N 
HETATM   17  C2  UNL     1      26.794  14.850  61.184  1.00  0.00     0.214 C 
HETATM   18  C1  UNL     1      27.276  14.263  59.887  1.00  0.00     0.117 C 
HETATM   19  O1  UNL     1      26.987  14.241  62.260  1.00  0.00    -0.274 OA
ATOM     20  H1  UNL     1      25.958  16.586  60.350  1.00  0.00     0.163 HD
ENDBRANCH   1  16
BRANCH   2  21
HETATM   21  O2  UNL     1      23.900  15.156  62.736  1.00  0.00    -0.389 OA
ATOM     22  H2  UNL     1      23.116  14.922  62.255  1.00  0.00     0.210 HD
ENDBRANCH   2  21
BRANCH   4  23
HETATM   23  C7  UNL     1      23.708  19.056  65.263  1.00  0.00     0.233 C 
HETATM   24  O3  UNL     1      24.063  18.791  66.422  1.00  0.00    -0.642 OA
HETATM   25  O4  UNL     1      22.760  20.058  65.092  1.00  0.00    -0.642 OA
ENDBRANCH   4  23
TORSDOF 9
ENDMDL
