MODEL 5
REMARK VINA RESULT: -6.652239714      1.478      2.052
REMARK  9 active torsions:
REMARK  status: ('A' for Active; 'I' for Inactive)
REMARK       I    between atoms: C2_2  and  N1_4 
REMARK    1  A    between atoms: N1_4  and  C3_6 
REMARK    2  A    between atoms: C4_7  and  O2_8 
REMARK    3  A    between atoms: C6_11  and  C7_12 
REMARK    4  A    between atoms: C8_16  and  C9_17 
REMARK    5  A    between atoms: C9_17  and  O6_18 
REMARK    6  A    between atoms: C9_17  and  C10_20 
REMARK    7  A    between atoms: C10_20  and  O7_21 
REMARK    8  A    between atoms: C10_20  and  C11_23 
REMARK    9  A    between atoms: C11_23  and  O8_24 
ROOT
HETATM    1  C3  UNL     1      25.229  18.297  63.660  1.00  0.00     0.149 C 
HETATM    2  C4  UNL     1      24.393  17.173  64.215  1.00  0.00     0.169 C 
HETATM    3  C5  UNL     1      24.136  16.220  63.115  1.00  0.00     0.050 C 
HETATM    4  C6  UNL     1      24.992  16.094  62.124  1.00  0.00     0.144 C 
HETATM    5  O5  UNL     1      26.152  16.832  62.061  1.00  0.00    -0.335 OA
HETATM    6  C8  UNL     1      26.518  17.786  63.028  1.00  0.00     0.186 C 
ENDROOT
BRANCH   6   7
HETATM    7  C9  UNL     1      27.190  18.987  62.453  1.00  0.00     0.180 C 
BRANCH   7   8
HETATM    8  O6  UNL     1      26.258  19.864  61.925  1.00  0.00    -0.390 OA
ATOM      9  H6  UNL     1      26.281  20.695  62.384  1.00  0.00     0.210 HD
ENDBRANCH   7   8
BRANCH   7  10
HETATM   10  C10 UNL     1      28.279  18.701  61.483  1.00  0.00     0.173 C 
BRANCH  10  11
HETATM   11  O7  UNL     1      29.326  19.613  61.760  1.00  0.00    -0.391 OA
ATOM     12  H7  UNL     1      29.489  20.096  60.959  1.00  0.00     0.210 HD
ENDBRANCH  10  11
BRANCH  10  13
HETATM   13  C11 UNL     1      27.871  18.991  60.045  1.00  0.00     0.198 C 
BRANCH  13  14
HETATM   14  O8  UNL     1      26.954  18.043  59.601  1.00  0.00    -0.398 OA
ATOM     15  H8  UNL     1      26.478  18.370  58.847  1.00  0.00     0.209 HD
ENDBRANCH  13  14
ENDBRANCH  10  13
ENDBRANCH   7  10
ENDBRANCH   6   7
BRANCH   1  16
HETATM   16  N1  UNL     1      25.617  19.152  64.763  1.00  0.00    -0.351 N 
HETATM   17  C2  UNL     1      25.046  20.425  65.009  1.00  0.00     0.214 C 
HETATM   18  C1  UNL     1      25.485  21.273  66.169  1.00  0.00     0.117 C 
HETATM   19  O1  UNL     1      24.155  20.835  64.231  1.00  0.00    -0.274 OA
ATOM     20  H1  UNL     1      26.343  18.820  65.398  1.00  0.00     0.163 HD
ENDBRANCH   1  16
BRANCH   2  21
HETATM   21  O2  UNL     1      23.172  17.721  64.607  1.00  0.00    -0.389 OA
ATOM     22  H2  UNL     1      23.051  17.513  65.526  1.00  0.00     0.210 HD
ENDBRANCH   2  21
BRANCH   4  23
HETATM   23  C7  UNL     1      24.679  15.125  61.055  1.00  0.00     0.233 C 
HETATM   24  O3  UNL     1      23.519  14.738  60.843  1.00  0.00    -0.642 OA
HETATM   25  O4  UNL     1      25.688  14.614  60.246  1.00  0.00    -0.642 OA
ENDBRANCH   4  23
TORSDOF 9
ENDMDL
