MODEL 1
REMARK VINA RESULT: -6.923137502      0.000      0.000
REMARK  9 active torsions:
REMARK  status: ('A' for Active; 'I' for Inactive)
REMARK       I    between atoms: C2_2  and  N1_4 
REMARK    1  A    between atoms: N1_4  and  C3_6 
REMARK    2  A    between atoms: C4_7  and  O2_8 
REMARK    3  A    between atoms: C6_11  and  C7_12 
REMARK    4  A    between atoms: C8_16  and  C9_17 
REMARK    5  A    between atoms: C9_17  and  O6_18 
REMARK    6  A    between atoms: C9_17  and  C10_20 
REMARK    7  A    between atoms: C10_20  and  O7_21 
REMARK    8  A    between atoms: C10_20  and  C11_23 
REMARK    9  A    between atoms: C11_23  and  O8_24 
ROOT
HETATM    1  C3  UNL     1      25.838  18.624  63.349  1.00  0.00     0.149 C 
HETATM    2  C4  UNL     1      25.148  17.285  63.302  1.00  0.00     0.169 C 
HETATM    3  C5  UNL     1      25.352  16.723  61.950  1.00  0.00     0.050 C 
HETATM    4  C6  UNL     1      26.419  17.038  61.248  1.00  0.00     0.144 C 
HETATM    5  O5  UNL     1      27.384  17.893  61.727  1.00  0.00    -0.335 OA
HETATM    6  C8  UNL     1      27.315  18.514  62.987  1.00  0.00     0.186 C 
ENDROOT
BRANCH   6   7
HETATM    7  C9  UNL     1      27.836  19.911  62.992  1.00  0.00     0.180 C 
BRANCH   7   8
HETATM    8  O6  UNL     1      27.562  20.541  61.790  1.00  0.00    -0.390 OA
ATOM      9  H6  UNL     1      26.628  20.552  61.622  1.00  0.00     0.210 HD
ENDBRANCH   7   8
BRANCH   7  10
HETATM   10  C10 UNL     1      29.268  20.052  63.366  1.00  0.00     0.173 C 
BRANCH  10  11
HETATM   11  O7  UNL     1      29.762  21.187  62.679  1.00  0.00    -0.391 OA
ATOM     12  H7  UNL     1      29.345  21.947  63.066  1.00  0.00     0.210 HD
ENDBRANCH  10  11
BRANCH  10  13
HETATM   13  C11 UNL     1      30.117  18.889  62.873  1.00  0.00     0.198 C 
BRANCH  13  14
HETATM   14  O8  UNL     1      30.241  18.932  61.487  1.00  0.00    -0.398 OA
ATOM     15  H8  UNL     1      30.829  18.250  61.186  1.00  0.00     0.209 HD
ENDBRANCH  13  14
ENDBRANCH  10  13
ENDBRANCH   7  10
ENDBRANCH   6   7
BRANCH   1  16
HETATM   16  N1  UNL     1      25.779  19.110  64.712  1.00  0.00    -0.351 N 
HETATM   17  C2  UNL     1      25.028  20.245  65.110  1.00  0.00     0.214 C 
HETATM   18  C1  UNL     1      25.001  20.707  66.539  1.00  0.00     0.117 C 
HETATM   19  O1  UNL     1      24.380  20.862  64.236  1.00  0.00    -0.274 OA
ATOM     20  H1  UNL     1      26.306  18.608  65.427  1.00  0.00     0.163 HD
ENDBRANCH   1  16
BRANCH   2  21
HETATM   21  O2  UNL     1      23.784  17.517  63.473  1.00  0.00    -0.389 OA
ATOM     22  H2  UNL     1      23.389  16.694  63.734  1.00  0.00     0.210 HD
ENDBRANCH   2  21
BRANCH   4  23
HETATM   23  C7  UNL     1      26.566  16.443  59.904  1.00  0.00     0.233 C 
HETATM   24  O3  UNL     1      26.609  17.143  58.881  1.00  0.00    -0.642 OA
HETATM   25  O4  UNL     1      26.662  15.065  59.748  1.00  0.00    -0.642 OA
ENDBRANCH   4  23
TORSDOF 9
ENDMDL
