MODEL 3
REMARK VINA RESULT: -6.351132463      2.161      5.218
REMARK  9 active torsions:
REMARK  status: ('A' for Active; 'I' for Inactive)
REMARK       I    between atoms: C2_2  and  N1_4 
REMARK    1  A    between atoms: N1_4  and  C3_6 
REMARK    2  A    between atoms: C4_7  and  N2_8 
REMARK    3  A    between atoms: C6_13  and  C7_14 
REMARK    4  A    between atoms: C8_18  and  C9_19 
REMARK    5  A    between atoms: C9_19  and  O5_20 
REMARK    6  A    between atoms: C9_19  and  C10_22 
REMARK    7  A    between atoms: C10_22  and  O6_23 
REMARK    8  A    between atoms: C10_22  and  C11_25 
REMARK    9  A    between atoms: C11_25  and  O7_26 
ROOT
HETATM    1  C3  UNL     1      26.076  16.555  62.181  1.00  0.00     0.150 C 
HETATM    2  C4  UNL     1      27.318  16.064  61.522  1.00  0.00     0.234 C 
HETATM    3  C5  UNL     1      28.437  17.019  61.544  1.00  0.00     0.051 C 
HETATM    4  C6  UNL     1      28.517  18.033  62.376  1.00  0.00     0.144 C 
HETATM    5  O4  UNL     1      27.490  18.204  63.276  1.00  0.00    -0.335 OA
HETATM    6  C8  UNL     1      26.289  17.517  63.300  1.00  0.00     0.185 C 
ENDROOT
BRANCH   6   7
HETATM    7  C9  UNL     1      25.150  18.498  63.448  1.00  0.00     0.180 C 
BRANCH   7   8
HETATM    8  O5  UNL     1      25.559  19.809  63.623  1.00  0.00    -0.390 OA
ATOM      9  H5  UNL     1      24.842  20.428  63.696  1.00  0.00     0.210 HD
ENDBRANCH   7   8
BRANCH   7  10
HETATM   10  C10 UNL     1      24.163  18.140  64.514  1.00  0.00     0.173 C 
BRANCH  10  11
HETATM   11  O6  UNL     1      22.949  17.767  63.886  1.00  0.00    -0.391 OA
ATOM     12  H6  UNL     1      22.299  17.619  64.561  1.00  0.00     0.210 HD
ENDBRANCH  10  11
BRANCH  10  13
HETATM   13  C11 UNL     1      23.780  19.371  65.346  1.00  0.00     0.198 C 
BRANCH  13  14
HETATM   14  O7  UNL     1      22.607  19.939  64.818  1.00  0.00    -0.398 OA
ATOM     15  H7  UNL     1      22.124  20.364  65.517  1.00  0.00     0.209 HD
ENDBRANCH  13  14
ENDBRANCH  10  13
ENDBRANCH   7  10
ENDBRANCH   6   7
BRANCH   1  16
HETATM   16  N1  UNL     1      25.368  15.351  62.652  1.00  0.00    -0.352 N 
HETATM   17  C2  UNL     1      24.221  14.841  61.984  1.00  0.00     0.214 C 
HETATM   18  C1  UNL     1      23.497  13.626  62.451  1.00  0.00     0.117 C 
HETATM   19  O1  UNL     1      23.850  15.495  60.956  1.00  0.00    -0.274 OA
ATOM     20  H1  UNL     1      25.711  14.870  63.484  1.00  0.00     0.163 HD
ENDBRANCH   1  16
BRANCH   2  21
HETATM   21  N2  UNL     1      27.046  15.750  60.120  1.00  0.00    -0.070 N 
ATOM     22  H23 UNL     1      26.459  14.922  60.020  1.00  0.00     0.275 HD
ATOM     23  H22 UNL     1      26.417  16.429  59.691  1.00  0.00     0.275 HD
ATOM     24  H21 UNL     1      27.924  15.662  59.608  1.00  0.00     0.275 HD
ENDBRANCH   2  21
BRANCH   4  25
HETATM   25  C7  UNL     1      29.657  18.940  62.341  1.00  0.00     0.233 C 
HETATM   26  O2  UNL     1      30.767  18.545  61.909  1.00  0.00    -0.642 OA
HETATM   27  O3  UNL     1      29.537  20.234  62.777  1.00  0.00    -0.642 OA
ENDBRANCH   4  25
TORSDOF 9
ENDMDL
