MODEL 4
REMARK VINA RESULT: -6.276403802      1.170      1.557
REMARK  9 active torsions:
REMARK  status: ('A' for Active; 'I' for Inactive)
REMARK       I    between atoms: C2_2  and  N1_4 
REMARK    1  A    between atoms: N1_4  and  C3_6 
REMARK    2  A    between atoms: C4_7  and  N2_8 
REMARK    3  A    between atoms: C6_13  and  C7_14 
REMARK    4  A    between atoms: C8_18  and  C9_19 
REMARK    5  A    between atoms: C9_19  and  O5_20 
REMARK    6  A    between atoms: C9_19  and  C10_22 
REMARK    7  A    between atoms: C10_22  and  O6_23 
REMARK    8  A    between atoms: C10_22  and  C11_25 
REMARK    9  A    between atoms: C11_25  and  O7_26 
ROOT
HETATM    1  C3  UNL     1      25.537  18.376  63.468  1.00  0.00     0.150 C 
HETATM    2  C4  UNL     1      24.800  17.097  63.269  1.00  0.00     0.234 C 
HETATM    3  C5  UNL     1      25.331  16.250  62.189  1.00  0.00     0.051 C 
HETATM    4  C6  UNL     1      26.542  16.369  61.695  1.00  0.00     0.144 C 
HETATM    5  O4  UNL     1      27.356  17.344  62.224  1.00  0.00    -0.335 OA
HETATM    6  C8  UNL     1      26.986  18.334  63.118  1.00  0.00     0.185 C 
ENDROOT
BRANCH   6   7
HETATM    7  C9  UNL     1      27.507  19.668  62.637  1.00  0.00     0.180 C 
BRANCH   7   8
HETATM    8  O5  UNL     1      27.591  19.773  61.260  1.00  0.00    -0.390 OA
ATOM      9  H5  UNL     1      28.155  20.478  60.962  1.00  0.00     0.210 HD
ENDBRANCH   7   8
BRANCH   7  10
HETATM   10  C10 UNL     1      28.811  20.076  63.247  1.00  0.00     0.173 C 
BRANCH  10  11
HETATM   11  O6  UNL     1      29.299  21.200  62.535  1.00  0.00    -0.391 OA
ATOM     12  H6  UNL     1      28.816  21.965  62.822  1.00  0.00     0.210 HD
ENDBRANCH  10  11
BRANCH  10  13
HETATM   13  C11 UNL     1      29.886  19.004  63.017  1.00  0.00     0.198 C 
BRANCH  13  14
HETATM   14  O7  UNL     1      30.104  18.858  61.636  1.00  0.00    -0.398 OA
ATOM     15  H7  UNL     1      31.013  19.054  61.442  1.00  0.00     0.209 HD
ENDBRANCH  13  14
ENDBRANCH  10  13
ENDBRANCH   7  10
ENDBRANCH   6   7
BRANCH   1  16
HETATM   16  N1  UNL     1      25.351  18.732  64.886  1.00  0.00    -0.352 N 
HETATM   17  C2  UNL     1      24.780  19.971  65.284  1.00  0.00     0.214 C 
HETATM   18  C1  UNL     1      24.587  20.342  66.714  1.00  0.00     0.117 C 
HETATM   19  O1  UNL     1      24.444  20.749  64.333  1.00  0.00    -0.274 OA
ATOM     20  H1  UNL     1      25.641  18.068  65.604  1.00  0.00     0.163 HD
ENDBRANCH   1  16
BRANCH   2  21
HETATM   21  N2  UNL     1      23.400  17.376  62.952  1.00  0.00    -0.070 N 
ATOM     22  H23 UNL     1      23.011  18.110  63.545  1.00  0.00     0.275 HD
ATOM     23  H22 UNL     1      23.297  17.843  62.052  1.00  0.00     0.275 HD
ATOM     24  H21 UNL     1      22.856  16.514  63.002  1.00  0.00     0.275 HD
ENDBRANCH   2  21
BRANCH   4  25
HETATM   25  C7  UNL     1      27.000  15.494  60.623  1.00  0.00     0.233 C 
HETATM   26  O2  UNL     1      26.828  15.817  59.423  1.00  0.00    -0.642 OA
HETATM   27  O3  UNL     1      27.624  14.306  60.907  1.00  0.00    -0.642 OA
ENDBRANCH   4  25
TORSDOF 9
ENDMDL
