MODEL 2
REMARK VINA RESULT: -6.449260388      2.077      5.011
REMARK  9 active torsions:
REMARK  status: ('A' for Active; 'I' for Inactive)
REMARK       I    between atoms: C2_2  and  N1_4 
REMARK    1  A    between atoms: N1_4  and  C3_6 
REMARK    2  A    between atoms: C4_7  and  N2_8 
REMARK    3  A    between atoms: C6_13  and  C7_14 
REMARK    4  A    between atoms: C8_18  and  C9_19 
REMARK    5  A    between atoms: C9_19  and  O5_20 
REMARK    6  A    between atoms: C9_19  and  C10_22 
REMARK    7  A    between atoms: C10_22  and  O6_23 
REMARK    8  A    between atoms: C10_22  and  C11_25 
REMARK    9  A    between atoms: C11_25  and  O7_26 
ROOT
HETATM    1  C3  UNL     1      26.929  17.497  62.604  1.00  0.00     0.150 C 
HETATM    2  C4  UNL     1      25.942  17.012  63.609  1.00  0.00     0.234 C 
HETATM    3  C5  UNL     1      25.311  18.077  64.406  1.00  0.00     0.051 C 
HETATM    4  C6  UNL     1      25.285  19.340  64.047  1.00  0.00     0.144 C 
HETATM    5  O4  UNL     1      25.883  19.680  62.856  1.00  0.00    -0.335 OA
HETATM    6  C8  UNL     1      26.660  18.859  62.058  1.00  0.00     0.185 C 
ENDROOT
BRANCH   6   7
HETATM    7  C9  UNL     1      27.925  19.587  61.666  1.00  0.00     0.180 C 
BRANCH   7   8
HETATM    8  O5  UNL     1      28.627  18.976  60.641  1.00  0.00    -0.390 OA
ATOM      9  H5  UNL     1      28.289  18.121  60.400  1.00  0.00     0.210 HD
ENDBRANCH   7   8
BRANCH   7  10
HETATM   10  C10 UNL     1      28.854  19.867  62.805  1.00  0.00     0.173 C 
BRANCH  10  11
HETATM   11  O6  UNL     1      29.161  21.251  62.795  1.00  0.00    -0.391 OA
ATOM     12  H6  UNL     1      30.020  21.360  62.405  1.00  0.00     0.210 HD
ENDBRANCH  10  11
BRANCH  10  13
HETATM   13  C11 UNL     1      30.214  19.190  62.587  1.00  0.00     0.198 C 
BRANCH  13  14
HETATM   14  O7  UNL     1      30.158  17.874  63.078  1.00  0.00    -0.398 OA
ATOM     15  H7  UNL     1      30.514  17.854  63.958  1.00  0.00     0.209 HD
ENDBRANCH  13  14
ENDBRANCH  10  13
ENDBRANCH   7  10
ENDBRANCH   6   7
BRANCH   1  16
HETATM   16  N1  UNL     1      26.933  16.491  61.527  1.00  0.00    -0.352 N 
HETATM   17  C2  UNL     1      27.867  15.421  61.498  1.00  0.00     0.214 C 
HETATM   18  C1  UNL     1      27.881  14.398  60.415  1.00  0.00     0.117 C 
HETATM   19  O1  UNL     1      28.697  15.393  62.464  1.00  0.00    -0.274 OA
ATOM     20  H1  UNL     1      26.244  16.567  60.778  1.00  0.00     0.163 HD
ENDBRANCH   1  16
BRANCH   2  21
HETATM   21  N2  UNL     1      26.595  16.099  64.546  1.00  0.00    -0.070 N 
ATOM     22  H23 UNL     1      26.907  15.241  64.092  1.00  0.00     0.275 HD
ATOM     23  H22 UNL     1      27.507  16.446  64.846  1.00  0.00     0.275 HD
ATOM     24  H21 UNL     1      25.977  15.913  65.336  1.00  0.00     0.275 HD
ENDBRANCH   2  21
BRANCH   4  25
HETATM   25  C7  UNL     1      24.642  20.342  64.889  1.00  0.00     0.233 C 
HETATM   26  O2  UNL     1      23.392  20.372  64.994  1.00  0.00    -0.642 OA
HETATM   27  O3  UNL     1      25.388  21.264  65.576  1.00  0.00    -0.642 OA
ENDBRANCH   4  25
TORSDOF 9
ENDMDL
