MODEL 1
REMARK VINA RESULT: -6.524133892      0.000      0.000
REMARK  9 active torsions:
REMARK  status: ('A' for Active; 'I' for Inactive)
REMARK       I    between atoms: C2_2  and  N1_4 
REMARK    1  A    between atoms: N1_4  and  C3_6 
REMARK    2  A    between atoms: C4_7  and  N2_8 
REMARK    3  A    between atoms: C6_13  and  C7_14 
REMARK    4  A    between atoms: C8_18  and  C9_19 
REMARK    5  A    between atoms: C9_19  and  O5_20 
REMARK    6  A    between atoms: C9_19  and  C10_22 
REMARK    7  A    between atoms: C10_22  and  O6_23 
REMARK    8  A    between atoms: C10_22  and  C11_25 
REMARK    9  A    between atoms: C11_25  and  O7_26 
ROOT
HETATM    1  C3  UNL     1      25.275  18.102  63.563  1.00  0.00     0.150 C 
HETATM    2  C4  UNL     1      24.352  16.932  63.553  1.00  0.00     0.234 C 
HETATM    3  C5  UNL     1      24.707  15.886  62.580  1.00  0.00     0.051 C 
HETATM    4  C6  UNL     1      25.899  15.760  62.044  1.00  0.00     0.144 C 
HETATM    5  O4  UNL     1      26.868  16.662  62.419  1.00  0.00    -0.335 OA
HETATM    6  C8  UNL     1      26.685  17.800  63.185  1.00  0.00     0.185 C 
ENDROOT
BRANCH   6   7
HETATM    7  C9  UNL     1      27.372  18.971  62.520  1.00  0.00     0.180 C 
BRANCH   7   8
HETATM    8  O5  UNL     1      26.498  19.897  61.976  1.00  0.00    -0.390 OA
ATOM      9  H5  UNL     1      25.753  20.094  62.532  1.00  0.00     0.210 HD
ENDBRANCH   7   8
BRANCH   7  10
HETATM   10  C10 UNL     1      28.390  18.587  61.493  1.00  0.00     0.173 C 
BRANCH  10  11
HETATM   11  O6  UNL     1      29.518  19.430  61.653  1.00  0.00    -0.391 OA
ATOM     12  H6  UNL     1      30.114  19.266  60.932  1.00  0.00     0.210 HD
ENDBRANCH  10  11
BRANCH  10  13
HETATM   13  C11 UNL     1      27.892  18.907  60.077  1.00  0.00     0.198 C 
BRANCH  13  14
HETATM   14  O7  UNL     1      26.912  17.969  59.709  1.00  0.00    -0.398 OA
ATOM     15  H7  UNL     1      26.281  18.386  59.135  1.00  0.00     0.209 HD
ENDBRANCH  13  14
ENDBRANCH  10  13
ENDBRANCH   7  10
ENDBRANCH   6   7
BRANCH   1  16
HETATM   16  N1  UNL     1      25.205  18.657  64.927  1.00  0.00    -0.352 N 
HETATM   17  C2  UNL     1      24.766  19.986  65.178  1.00  0.00     0.214 C 
HETATM   18  C1  UNL     1      24.692  20.558  66.551  1.00  0.00     0.117 C 
HETATM   19  O1  UNL     1      24.441  20.659  64.147  1.00  0.00    -0.274 OA
ATOM     20  H1  UNL     1      25.480  18.070  65.714  1.00  0.00     0.163 HD
ENDBRANCH   1  16
BRANCH   2  21
HETATM   21  N2  UNL     1      22.994  17.374  63.238  1.00  0.00    -0.070 N 
ATOM     22  H23 UNL     1      22.290  16.711  63.563  1.00  0.00     0.275 HD
ATOM     23  H22 UNL     1      22.712  18.176  63.801  1.00  0.00     0.275 HD
ATOM     24  H21 UNL     1      22.914  17.560  62.238  1.00  0.00     0.275 HD
ENDBRANCH   2  21
BRANCH   4  25
HETATM   25  C7  UNL     1      26.178  14.699  61.085  1.00  0.00     0.233 C 
HETATM   26  O2  UNL     1      26.449  14.977  59.892  1.00  0.00    -0.642 OA
HETATM   27  O3  UNL     1      26.149  13.383  61.469  1.00  0.00    -0.642 OA
ENDBRANCH   4  25
TORSDOF 9
ENDMDL
