MODEL 20
REMARK VINA RESULT: -5.794378657      2.002      4.786
REMARK  9 active torsions:
REMARK  status: ('A' for Active; 'I' for Inactive)
REMARK       I    between atoms: C2_2  and  N1_4 
REMARK    1  A    between atoms: N1_4  and  C3_6 
REMARK    2  A    between atoms: C4_7  and  N2_8 
REMARK    3  A    between atoms: C6_13  and  C7_14 
REMARK    4  A    between atoms: C8_18  and  C9_19 
REMARK    5  A    between atoms: C9_19  and  O5_20 
REMARK    6  A    between atoms: C9_19  and  C10_22 
REMARK    7  A    between atoms: C10_22  and  O6_23 
REMARK    8  A    between atoms: C10_22  and  C11_25 
REMARK    9  A    between atoms: C11_25  and  O7_26 
ROOT
HETATM    1  C3  UNL     1      25.706  17.770  62.837  1.00  0.00     0.150 C 
HETATM    2  C4  UNL     1      24.280  17.409  63.069  1.00  0.00     0.234 C 
HETATM    3  C5  UNL     1      23.720  17.920  64.331  1.00  0.00     0.051 C 
HETATM    4  C6  UNL     1      24.244  18.912  65.014  1.00  0.00     0.144 C 
HETATM    5  O4  UNL     1      25.381  19.502  64.515  1.00  0.00    -0.335 OA
HETATM    6  C8  UNL     1      26.140  19.061  63.445  1.00  0.00     0.185 C 
ENDROOT
BRANCH   6   7
HETATM    7  C9  UNL     1      27.602  19.061  63.829  1.00  0.00     0.180 C 
BRANCH   7   8
HETATM    8  O5  UNL     1      27.843  19.510  65.115  1.00  0.00    -0.390 OA
ATOM      9  H5  UNL     1      28.575  19.079  65.542  1.00  0.00     0.210 HD
ENDBRANCH   7   8
BRANCH   7  10
HETATM   10  C10 UNL     1      28.490  19.793  62.873  1.00  0.00     0.173 C 
BRANCH  10  11
HETATM   11  O6  UNL     1      27.670  20.448  61.921  1.00  0.00    -0.391 OA
ATOM     12  H6  UNL     1      27.989  20.228  61.054  1.00  0.00     0.210 HD
ENDBRANCH  10  11
BRANCH  10  13
HETATM   13  C11 UNL     1      29.317  18.813  62.029  1.00  0.00     0.198 C 
BRANCH  13  14
HETATM   14  O7  UNL     1      28.945  18.937  60.680  1.00  0.00    -0.398 OA
ATOM     15  H7  UNL     1      29.293  18.201  60.191  1.00  0.00     0.209 HD
ENDBRANCH  13  14
ENDBRANCH  10  13
ENDBRANCH   7  10
ENDBRANCH   6   7
BRANCH   1  16
HETATM   16  N1  UNL     1      25.882  17.794  61.374  1.00  0.00    -0.352 N 
HETATM   17  C2  UNL     1      26.486  16.717  60.670  1.00  0.00     0.214 C 
HETATM   18  C1  UNL     1      26.670  16.730  59.191  1.00  0.00     0.117 C 
HETATM   19  O1  UNL     1      26.864  15.736  61.389  1.00  0.00    -0.274 OA
ATOM     20  H1  UNL     1      25.561  18.609  60.851  1.00  0.00     0.163 HD
ENDBRANCH   1  16
BRANCH   2  21
HETATM   21  N2  UNL     1      24.133  15.954  63.089  1.00  0.00    -0.070 N 
ATOM     22  H23 UNL     1      24.716  15.500  62.385  1.00  0.00     0.275 HD
ATOM     23  H22 UNL     1      24.555  15.538  63.920  1.00  0.00     0.275 HD
ATOM     24  H21 UNL     1      23.149  15.704  62.992  1.00  0.00     0.275 HD
ENDBRANCH   2  21
BRANCH   4  25
HETATM   25  C7  UNL     1      23.634  19.365  66.258  1.00  0.00     0.233 C 
HETATM   26  O2  UNL     1      22.921  18.586  66.935  1.00  0.00    -0.642 OA
HETATM   27  O3  UNL     1      23.827  20.646  66.707  1.00  0.00    -0.642 OA
ENDBRANCH   4  25
TORSDOF 9
ENDMDL
