MODEL 5
REMARK VINA RESULT: -6.491287982      1.681      1.955
REMARK  9 active torsions:
REMARK  status: ('A' for Active; 'I' for Inactive)
REMARK       I    between atoms: C2_2  and  N1_4 
REMARK    1  A    between atoms: N1_4  and  C3_6 
REMARK    2  A    between atoms: C4_7  and  O2_8 
REMARK    3  A    between atoms: C6_11  and  C7_12 
REMARK    4  A    between atoms: C8_16  and  C9_17 
REMARK    5  A    between atoms: C9_17  and  O6_18 
REMARK    6  A    between atoms: C9_17  and  C10_20 
REMARK    7  A    between atoms: C10_20  and  O7_21 
REMARK    8  A    between atoms: C10_20  and  C11_23 
REMARK    9  A    between atoms: C11_23  and  N2_24 
ROOT
HETATM    1  C3  UNL     1      25.341  18.268  63.371  1.00  0.00     0.149 C 
HETATM    2  C4  UNL     1      24.765  16.898  63.507  1.00  0.00     0.169 C 
HETATM    3  C5  UNL     1      25.129  15.981  62.396  1.00  0.00     0.050 C 
HETATM    4  C6  UNL     1      26.004  16.282  61.456  1.00  0.00     0.144 C 
HETATM    5  O5  UNL     1      26.638  17.507  61.471  1.00  0.00    -0.335 OA
HETATM    6  C8  UNL     1      26.686  18.250  62.674  1.00  0.00     0.186 C 
ENDROOT
BRANCH   6   7
HETATM    7  C9  UNL     1      27.155  19.630  62.322  1.00  0.00     0.180 C 
BRANCH   7   8
HETATM    8  O6  UNL     1      27.337  19.864  60.989  1.00  0.00    -0.390 OA
ATOM      9  H6  UNL     1      28.147  19.527  60.623  1.00  0.00     0.210 HD
ENDBRANCH   7   8
BRANCH   7  10
HETATM   10  C10 UNL     1      28.375  19.956  63.158  1.00  0.00     0.174 C 
BRANCH  10  11
HETATM   11  O7  UNL     1      28.992  21.118  62.711  1.00  0.00    -0.391 OA
ATOM     12  H7  UNL     1      28.413  21.618  62.149  1.00  0.00     0.210 HD
ENDBRANCH  10  11
BRANCH  10  13
HETATM   13  C11 UNL     1      29.377  18.796  63.110  1.00  0.00     0.263 C 
BRANCH  13  14
HETATM   14  N2  UNL     1      30.159  18.878  61.894  1.00  0.00    -0.077 N 
ATOM     15  H23 UNL     1      30.612  19.786  61.788  1.00  0.00     0.274 HD
ATOM     16  H22 UNL     1      30.999  18.300  61.937  1.00  0.00     0.274 HD
ATOM     17  H21 UNL     1      29.573  18.645  61.092  1.00  0.00     0.274 HD
ENDBRANCH  13  14
ENDBRANCH  10  13
ENDBRANCH   7  10
ENDBRANCH   6   7
BRANCH   1  18
HETATM   18  N1  UNL     1      25.549  18.802  64.686  1.00  0.00    -0.351 N 
HETATM   19  C2  UNL     1      25.028  20.059  65.037  1.00  0.00     0.214 C 
HETATM   20  C1  UNL     1      25.264  20.577  66.406  1.00  0.00     0.117 C 
HETATM   21  O1  UNL     1      24.363  20.790  64.257  1.00  0.00    -0.274 OA
ATOM     22  H1  UNL     1      26.079  18.264  65.372  1.00  0.00     0.163 HD
ENDBRANCH   1  18
BRANCH   2  23
HETATM   23  O2  UNL     1      23.360  16.940  63.669  1.00  0.00    -0.389 OA
ATOM     24  H2  UNL     1      23.112  16.838  64.581  1.00  0.00     0.210 HD
ENDBRANCH   2  23
BRANCH   4  25
HETATM   25  C7  UNL     1      26.323  15.333  60.381  1.00  0.00     0.233 C 
HETATM   26  O3  UNL     1      26.747  15.793  59.299  1.00  0.00    -0.642 OA
HETATM   27  O4  UNL     1      26.163  13.970  60.545  1.00  0.00    -0.642 OA
ENDBRANCH   4  25
TORSDOF 9
ENDMDL
