MODEL 6
REMARK VINA RESULT: -6.387601651      2.217      2.537
REMARK  9 active torsions:
REMARK  status: ('A' for Active; 'I' for Inactive)
REMARK       I    between atoms: C2_2  and  N1_4 
REMARK    1  A    between atoms: N1_4  and  C3_6 
REMARK    2  A    between atoms: C4_7  and  O2_8 
REMARK    3  A    between atoms: C6_11  and  C7_12 
REMARK    4  A    between atoms: C8_16  and  C9_17 
REMARK    5  A    between atoms: C9_17  and  O6_18 
REMARK    6  A    between atoms: C9_17  and  C10_20 
REMARK    7  A    between atoms: C10_20  and  O7_21 
REMARK    8  A    between atoms: C10_20  and  C11_23 
REMARK    9  A    between atoms: C11_23  and  N2_24 
ROOT
HETATM    1  C3  UNL     1      25.160  17.860  63.415  1.00  0.00     0.149 C 
HETATM    2  C4  UNL     1      24.307  16.838  62.739  1.00  0.00     0.169 C 
HETATM    3  C5  UNL     1      24.896  16.300  61.485  1.00  0.00     0.050 C 
HETATM    4  C6  UNL     1      26.122  16.570  61.078  1.00  0.00     0.144 C 
HETATM    5  O5  UNL     1      26.933  17.393  61.831  1.00  0.00    -0.335 OA
HETATM    6  C8  UNL     1      26.636  17.598  63.199  1.00  0.00     0.186 C 
ENDROOT
BRANCH   6   7
HETATM    7  C9  UNL     1      27.485  18.743  63.667  1.00  0.00     0.180 C 
BRANCH   7   8
HETATM    8  O6  UNL     1      26.921  19.980  63.538  1.00  0.00    -0.390 OA
ATOM      9  H6  UNL     1      26.023  19.988  63.226  1.00  0.00     0.210 HD
ENDBRANCH   7   8
BRANCH   7  10
HETATM   10  C10 UNL     1      28.848  18.635  63.016  1.00  0.00     0.174 C 
BRANCH  10  11
HETATM   11  O7  UNL     1      29.390  17.368  63.197  1.00  0.00    -0.391 OA
ATOM     12  H7  UNL     1      30.320  17.365  63.009  1.00  0.00     0.210 HD
ENDBRANCH  10  11
BRANCH  10  13
HETATM   13  C11 UNL     1      29.800  19.685  63.601  1.00  0.00     0.263 C 
BRANCH  13  14
HETATM   14  N2  UNL     1      29.757  20.886  62.793  1.00  0.00    -0.077 N 
ATOM     15  H23 UNL     1      30.650  21.379  62.790  1.00  0.00     0.274 HD
ATOM     16  H22 UNL     1      29.701  20.677  61.796  1.00  0.00     0.274 HD
ATOM     17  H21 UNL     1      28.990  21.482  63.105  1.00  0.00     0.274 HD
ENDBRANCH  13  14
ENDBRANCH  10  13
ENDBRANCH   7  10
ENDBRANCH   6   7
BRANCH   1  18
HETATM   18  N1  UNL     1      24.916  17.788  64.826  1.00  0.00    -0.351 N 
HETATM   19  C2  UNL     1      23.876  18.533  65.411  1.00  0.00     0.214 C 
HETATM   20  C1  UNL     1      23.656  18.432  66.873  1.00  0.00     0.117 C 
HETATM   21  O1  UNL     1      23.107  19.293  64.767  1.00  0.00    -0.274 OA
ATOM     22  H1  UNL     1      25.501  17.191  65.411  1.00  0.00     0.163 HD
ENDBRANCH   1  18
BRANCH   2  23
HETATM   23  O2  UNL     1      23.003  17.329  62.499  1.00  0.00    -0.389 OA
ATOM     24  H2  UNL     1      22.694  17.087  61.633  1.00  0.00     0.210 HD
ENDBRANCH   2  23
BRANCH   4  25
HETATM   25  C7  UNL     1      26.648  16.007  59.827  1.00  0.00     0.233 C 
HETATM   26  O3  UNL     1      26.875  16.792  58.881  1.00  0.00    -0.642 OA
HETATM   27  O4  UNL     1      26.891  14.654  59.685  1.00  0.00    -0.642 OA
ENDBRANCH   4  25
TORSDOF 9
ENDMDL
