MODEL 1
REMARK VINA RESULT: -7.011011656      0.000      0.000
REMARK  9 active torsions:
REMARK  status: ('A' for Active; 'I' for Inactive)
REMARK       I    between atoms: C2_2  and  N1_4 
REMARK    1  A    between atoms: N1_4  and  C3_6 
REMARK    2  A    between atoms: C4_7  and  O2_8 
REMARK    3  A    between atoms: C6_11  and  C7_12 
REMARK    4  A    between atoms: C8_16  and  C9_17 
REMARK    5  A    between atoms: C9_17  and  O6_18 
REMARK    6  A    between atoms: C9_17  and  C10_20 
REMARK    7  A    between atoms: C10_20  and  O7_21 
REMARK    8  A    between atoms: C10_20  and  C11_23 
REMARK    9  A    between atoms: C11_23  and  N2_24 
ROOT
HETATM    1  C3  UNL     1      25.164  18.429  63.413  1.00  0.00     0.149 C 
HETATM    2  C4  UNL     1      24.155  17.405  63.817  1.00  0.00     0.169 C 
HETATM    3  C5  UNL     1      24.086  16.238  62.900  1.00  0.00     0.050 C 
HETATM    4  C6  UNL     1      24.935  16.033  61.911  1.00  0.00     0.144 C 
HETATM    5  O5  UNL     1      25.958  16.930  61.684  1.00  0.00    -0.335 OA
HETATM    6  C8  UNL     1      26.357  17.806  62.721  1.00  0.00     0.186 C 
ENDROOT
BRANCH   6   7
HETATM    7  C9  UNL     1      27.253  18.840  62.105  1.00  0.00     0.180 C 
BRANCH   7   8
HETATM    8  O6  UNL     1      26.616  19.934  61.592  1.00  0.00    -0.390 OA
ATOM      9  H6  UNL     1      27.181  20.575  61.175  1.00  0.00     0.210 HD
ENDBRANCH   7   8
BRANCH   7  10
HETATM   10  C10 UNL     1      28.167  18.158  61.108  1.00  0.00     0.174 C 
BRANCH  10  11
HETATM   11  O7  UNL     1      29.500  18.447  61.373  1.00  0.00    -0.391 OA
ATOM     12  H7  UNL     1      29.976  17.664  61.622  1.00  0.00     0.210 HD
ENDBRANCH  10  11
BRANCH  10  13
HETATM   13  C11 UNL     1      27.824  18.604  59.682  1.00  0.00     0.263 C 
BRANCH  13  14
HETATM   14  N2  UNL     1      26.884  17.673  59.093  1.00  0.00    -0.077 N 
ATOM     15  H23 UNL     1      26.268  17.255  59.791  1.00  0.00     0.274 HD
ATOM     16  H22 UNL     1      26.173  18.146  58.534  1.00  0.00     0.274 HD
ATOM     17  H21 UNL     1      27.389  16.969  58.555  1.00  0.00     0.274 HD
ENDBRANCH  13  14
ENDBRANCH  10  13
ENDBRANCH   7  10
ENDBRANCH   6   7
BRANCH   1  18
HETATM   18  N1  UNL     1      25.647  19.076  64.599  1.00  0.00    -0.351 N 
HETATM   19  C2  UNL     1      25.110  20.308  65.011  1.00  0.00     0.214 C 
HETATM   20  C1  UNL     1      25.637  20.945  66.241  1.00  0.00     0.117 C 
HETATM   21  O1  UNL     1      24.197  20.919  64.396  1.00  0.00    -0.274 OA
ATOM     22  H1  UNL     1      26.388  18.638  65.148  1.00  0.00     0.163 HD
ENDBRANCH   1  18
BRANCH   2  23
HETATM   23  O2  UNL     1      22.872  17.978  63.981  1.00  0.00    -0.389 OA
ATOM     24  H2  UNL     1      22.198  17.310  64.042  1.00  0.00     0.210 HD
ENDBRANCH   2  23
BRANCH   4  25
HETATM   25  C7  UNL     1      24.816  14.859  61.037  1.00  0.00     0.233 C 
HETATM   26  O3  UNL     1      23.688  14.331  60.914  1.00  0.00    -0.642 OA
HETATM   27  O4  UNL     1      25.906  14.339  60.365  1.00  0.00    -0.642 OA
ENDBRANCH   4  25
TORSDOF 9
ENDMDL
