MODEL 14
REMARK VINA RESULT: -6.138088754      2.132      4.976
REMARK  9 active torsions:
REMARK  status: ('A' for Active; 'I' for Inactive)
REMARK       I    between atoms: C2_2  and  N1_4 
REMARK    1  A    between atoms: N1_4  and  C3_6 
REMARK    2  A    between atoms: C4_7  and  O2_8 
REMARK    3  A    between atoms: C6_11  and  C7_12 
REMARK    4  A    between atoms: C8_16  and  C9_17 
REMARK    5  A    between atoms: C9_17  and  O6_18 
REMARK    6  A    between atoms: C9_17  and  C10_20 
REMARK    7  A    between atoms: C10_20  and  O7_21 
REMARK    8  A    between atoms: C10_20  and  C11_23 
REMARK    9  A    between atoms: C11_23  and  N2_24 
ROOT
HETATM    1  C3  UNL     1      26.434  17.879  62.344  1.00  0.00     0.149 C 
HETATM    2  C4  UNL     1      25.218  17.418  63.079  1.00  0.00     0.169 C 
HETATM    3  C5  UNL     1      24.758  18.363  64.128  1.00  0.00     0.050 C 
HETATM    4  C6  UNL     1      25.265  19.569  64.300  1.00  0.00     0.144 C 
HETATM    5  O5  UNL     1      26.282  20.013  63.480  1.00  0.00    -0.335 OA
HETATM    6  C8  UNL     1      26.488  19.388  62.228  1.00  0.00     0.186 C 
ENDROOT
BRANCH   6   7
HETATM    7  C9  UNL     1      27.810  19.865  61.708  1.00  0.00     0.180 C 
BRANCH   7   8
HETATM    8  O6  UNL     1      28.275  19.212  60.602  1.00  0.00    -0.390 OA
ATOM      9  H6  UNL     1      28.276  19.720  59.799  1.00  0.00     0.210 HD
ENDBRANCH   7   8
BRANCH   7  10
HETATM   10  C10 UNL     1      28.803  19.885  62.852  1.00  0.00     0.174 C 
BRANCH  10  11
HETATM   11  O7  UNL     1      29.196  21.183  63.151  1.00  0.00    -0.391 OA
ATOM     12  H7  UNL     1      29.060  21.761  62.409  1.00  0.00     0.210 HD
ENDBRANCH  10  11
BRANCH  10  13
HETATM   13  C11 UNL     1      30.038  19.048  62.498  1.00  0.00     0.263 C 
BRANCH  13  14
HETATM   14  N2  UNL     1      29.763  17.646  62.738  1.00  0.00    -0.077 N 
ATOM     15  H23 UNL     1      30.538  17.177  63.205  1.00  0.00     0.274 HD
ATOM     16  H22 UNL     1      29.053  17.512  63.458  1.00  0.00     0.274 HD
ATOM     17  H21 UNL     1      29.511  17.191  61.860  1.00  0.00     0.274 HD
ENDBRANCH  13  14
ENDBRANCH  10  13
ENDBRANCH   7  10
ENDBRANCH   6   7
BRANCH   1  18
HETATM   18  N1  UNL     1      26.383  17.349  61.013  1.00  0.00    -0.351 N 
HETATM   19  C2  UNL     1      27.034  16.144  60.697  1.00  0.00     0.214 C 
HETATM   20  C1  UNL     1      26.957  15.630  59.309  1.00  0.00     0.117 C 
HETATM   21  O1  UNL     1      27.689  15.459  61.525  1.00  0.00    -0.274 OA
ATOM     22  H1  UNL     1      25.869  17.852  60.288  1.00  0.00     0.163 HD
ENDBRANCH   1  18
BRANCH   2  23
HETATM   23  O2  UNL     1      25.402  16.127  63.627  1.00  0.00    -0.389 OA
ATOM     24  H2  UNL     1      25.190  16.108  64.553  1.00  0.00     0.210 HD
ENDBRANCH   2  23
BRANCH   4  25
HETATM   25  C7  UNL     1      24.767  20.460  65.357  1.00  0.00     0.233 C 
HETATM   26  O3  UNL     1      25.446  21.473  65.638  1.00  0.00    -0.642 OA
HETATM   27  O4  UNL     1      23.589  20.201  66.030  1.00  0.00    -0.642 OA
ENDBRANCH   4  25
TORSDOF 9
ENDMDL
