MODEL 10
REMARK VINA RESULT: -6.218523128      2.355      4.967
REMARK  9 active torsions:
REMARK  status: ('A' for Active; 'I' for Inactive)
REMARK       I    between atoms: C2_2  and  N1_4 
REMARK    1  A    between atoms: N1_4  and  C3_6 
REMARK    2  A    between atoms: C4_7  and  O2_8 
REMARK    3  A    between atoms: C6_11  and  C7_12 
REMARK    4  A    between atoms: C8_16  and  C9_17 
REMARK    5  A    between atoms: C9_17  and  O6_18 
REMARK    6  A    between atoms: C9_17  and  C10_20 
REMARK    7  A    between atoms: C10_20  and  O7_21 
REMARK    8  A    between atoms: C10_20  and  C11_23 
REMARK    9  A    between atoms: C11_23  and  N2_24 
ROOT
HETATM    1  C3  UNL     1      25.519  16.312  62.759  1.00  0.00     0.149 C 
HETATM    2  C4  UNL     1      24.026  16.313  62.774  1.00  0.00     0.169 C 
HETATM    3  C5  UNL     1      23.437  17.319  63.694  1.00  0.00     0.050 C 
HETATM    4  C6  UNL     1      24.145  18.237  64.325  1.00  0.00     0.144 C 
HETATM    5  O5  UNL     1      25.511  18.298  64.145  1.00  0.00    -0.335 OA
HETATM    6  C8  UNL     1      26.090  17.692  63.005  1.00  0.00     0.186 C 
ENDROOT
BRANCH   6   7
HETATM    7  C9  UNL     1      27.572  17.657  63.229  1.00  0.00     0.180 C 
BRANCH   7   8
HETATM    8  O6  UNL     1      28.024  16.619  63.993  1.00  0.00    -0.390 OA
ATOM      9  H6  UNL     1      27.948  16.742  64.933  1.00  0.00     0.210 HD
ENDBRANCH   7   8
BRANCH   7  10
HETATM   10  C10 UNL     1      28.019  19.012  63.736  1.00  0.00     0.174 C 
BRANCH  10  11
HETATM   11  O7  UNL     1      27.312  20.035  63.117  1.00  0.00    -0.391 OA
ATOM     12  H7  UNL     1      26.421  19.768  62.926  1.00  0.00     0.210 HD
ENDBRANCH  10  11
BRANCH  10  13
HETATM   13  C11 UNL     1      29.519  19.205  63.482  1.00  0.00     0.263 C 
BRANCH  13  14
HETATM   14  N2  UNL     1      29.734  20.423  62.729  1.00  0.00    -0.077 N 
ATOM     15  H23 UNL     1      30.692  20.764  62.814  1.00  0.00     0.274 HD
ATOM     16  H22 UNL     1      29.725  20.259  61.722  1.00  0.00     0.274 HD
ATOM     17  H21 UNL     1      29.050  21.126  63.011  1.00  0.00     0.274 HD
ENDBRANCH  13  14
ENDBRANCH  10  13
ENDBRANCH   7  10
ENDBRANCH   6   7
BRANCH   1  18
HETATM   18  N1  UNL     1      25.956  15.895  61.458  1.00  0.00    -0.351 N 
HETATM   19  C2  UNL     1      26.824  14.799  61.312  1.00  0.00     0.214 C 
HETATM   20  C1  UNL     1      27.253  14.399  59.951  1.00  0.00     0.117 C 
HETATM   21  O1  UNL     1      27.272  14.122  62.274  1.00  0.00    -0.274 OA
ATOM     22  H1  UNL     1      25.633  16.398  60.631  1.00  0.00     0.163 HD
ENDBRANCH   1  18
BRANCH   2  23
HETATM   23  O2  UNL     1      23.509  15.027  63.055  1.00  0.00    -0.389 OA
ATOM     24  H2  UNL     1      22.664  15.078  63.486  1.00  0.00     0.210 HD
ENDBRANCH   2  23
BRANCH   4  25
HETATM   25  C7  UNL     1      23.505  19.206  65.225  1.00  0.00     0.233 C 
HETATM   26  O3  UNL     1      23.371  20.382  64.820  1.00  0.00    -0.642 OA
HETATM   27  O4  UNL     1      23.060  18.846  66.483  1.00  0.00    -0.642 OA
ENDBRANCH   4  25
TORSDOF 9
ENDMDL
