MODEL 2
REMARK VINA RESULT: -7.049024928      1.803      4.727
REMARK  9 active torsions:
REMARK  status: ('A' for Active; 'I' for Inactive)
REMARK       I    between atoms: C2_2  and  N1_4 
REMARK    1  A    between atoms: N1_4  and  C3_6 
REMARK    2  A    between atoms: C4_7  and  N2_8 
REMARK    3  A    between atoms: C6_13  and  C7_14 
REMARK    4  A    between atoms: C8_18  and  C9_19 
REMARK    5  A    between atoms: C9_19  and  O5_20 
REMARK    6  A    between atoms: C9_19  and  C10_22 
REMARK    7  A    between atoms: C10_22  and  O6_23 
REMARK    8  A    between atoms: C10_22  and  C11_25 
REMARK    9  A    between atoms: C11_25  and  N3_26 
ROOT
HETATM    1  C3  UNL     1      25.121  17.702  63.491  1.00  0.00     0.150 C 
HETATM    2  C4  UNL     1      24.151  16.764  62.871  1.00  0.00     0.234 C 
HETATM    3  C5  UNL     1      24.774  15.458  62.585  1.00  0.00     0.051 C 
HETATM    4  C6  UNL     1      26.043  15.352  62.243  1.00  0.00     0.144 C 
HETATM    5  O4  UNL     1      26.779  16.547  62.165  1.00  0.00    -0.335 OA
HETATM    6  C8  UNL     1      26.544  17.573  63.118  1.00  0.00     0.185 C 
ENDROOT
BRANCH   6   7
HETATM    7  C9  UNL     1      27.067  18.880  62.577  1.00  0.00     0.180 C 
BRANCH   7   8
HETATM    8  O5  UNL     1      26.052  19.597  61.965  1.00  0.00    -0.390 OA
ATOM      9  H5  UNL     1      25.882  20.405  62.435  1.00  0.00     0.210 HD
ENDBRANCH   7   8
BRANCH   7  10
HETATM   10  C10 UNL     1      28.162  18.658  61.561  1.00  0.00     0.174 C 
BRANCH  10  11
HETATM   11  O6  UNL     1      29.327  19.323  61.860  1.00  0.00    -0.391 OA
ATOM     12  H6  UNL     1      30.094  18.765  61.846  1.00  0.00     0.210 HD
ENDBRANCH  10  11
BRANCH  10  13
HETATM   13  C11 UNL     1      27.715  18.986  60.153  1.00  0.00     0.263 C 
BRANCH  13  14
HETATM   14  N3  UNL     1      27.054  17.811  59.600  1.00  0.00    -0.077 N 
ATOM     15  H33 UNL     1      26.460  17.337  60.280  1.00  0.00     0.274 HD
ATOM     16  H32 UNL     1      26.328  18.049  58.924  1.00  0.00     0.274 HD
ATOM     17  H31 UNL     1      27.769  17.198  59.208  1.00  0.00     0.274 HD
ENDBRANCH  13  14
ENDBRANCH  10  13
ENDBRANCH   7  10
ENDBRANCH   6   7
BRANCH   1  18
HETATM   18  N1  UNL     1      24.906  17.683  64.934  1.00  0.00    -0.352 N 
HETATM   19  C2  UNL     1      23.914  18.465  65.581  1.00  0.00     0.214 C 
HETATM   20  C1  UNL     1      23.711  18.430  67.064  1.00  0.00     0.117 C 
HETATM   21  O1  UNL     1      23.182  19.210  64.891  1.00  0.00    -0.274 OA
ATOM     22  H1  UNL     1      25.497  17.080  65.505  1.00  0.00     0.163 HD
ENDBRANCH   1  18
BRANCH   2  23
HETATM   23  N2  UNL     1      23.717  17.334  61.587  1.00  0.00    -0.070 N 
ATOM     24  H23 UNL     1      24.151  18.236  61.391  1.00  0.00     0.275 HD
ATOM     25  H22 UNL     1      24.089  16.826  60.785  1.00  0.00     0.275 HD
ATOM     26  H21 UNL     1      22.698  17.379  61.587  1.00  0.00     0.275 HD
ENDBRANCH   2  23
BRANCH   4  27
HETATM   27  C7  UNL     1      26.620  14.053  61.969  1.00  0.00     0.233 C 
HETATM   28  O2  UNL     1      27.859  13.961  61.824  1.00  0.00    -0.642 OA
HETATM   29  O3  UNL     1      25.846  12.909  61.862  1.00  0.00    -0.642 OA
ENDBRANCH   4  27
TORSDOF 9
ENDMDL
