MODEL 13
REMARK VINA RESULT: -6.475950792      2.633      5.678
REMARK  9 active torsions:
REMARK  status: ('A' for Active; 'I' for Inactive)
REMARK       I    between atoms: C2_2  and  N1_4 
REMARK    1  A    between atoms: N1_4  and  C3_6 
REMARK    2  A    between atoms: C4_7  and  N2_8 
REMARK    3  A    between atoms: C6_13  and  C7_14 
REMARK    4  A    between atoms: C8_18  and  C9_19 
REMARK    5  A    between atoms: C9_19  and  O5_20 
REMARK    6  A    between atoms: C9_19  and  C10_22 
REMARK    7  A    between atoms: C10_22  and  O6_23 
REMARK    8  A    between atoms: C10_22  and  C11_25 
REMARK    9  A    between atoms: C11_25  and  N3_26 
ROOT
HETATM    1  C3  UNL     1      26.182  17.567  62.442  1.00  0.00     0.150 C 
HETATM    2  C4  UNL     1      27.631  17.733  62.164  1.00  0.00     0.234 C 
HETATM    3  C5  UNL     1      27.871  18.070  60.748  1.00  0.00     0.051 C 
HETATM    4  C6  UNL     1      27.105  17.602  59.782  1.00  0.00     0.144 C 
HETATM    5  O4  UNL     1      26.041  16.767  60.166  1.00  0.00    -0.335 OA
HETATM    6  C8  UNL     1      25.322  17.058  61.356  1.00  0.00     0.185 C 
ENDROOT
BRANCH   6   7
HETATM    7  C9  UNL     1      24.585  15.820  61.802  1.00  0.00     0.180 C 
BRANCH   7   8
HETATM    8  O5  UNL     1      24.438  15.809  63.180  1.00  0.00    -0.390 OA
ATOM      9  H5  UNL     1      23.989  15.022  63.463  1.00  0.00     0.210 HD
ENDBRANCH   7   8
BRANCH   7  10
HETATM   10  C10 UNL     1      25.320  14.564  61.400  1.00  0.00     0.174 C 
BRANCH  10  11
HETATM   11  O6  UNL     1      25.108  14.204  60.090  1.00  0.00    -0.391 OA
ATOM     12  H6  UNL     1      24.351  14.624  59.702  1.00  0.00     0.210 HD
ENDBRANCH  10  11
BRANCH  10  13
HETATM   13  C11 UNL     1      25.019  13.401  62.320  1.00  0.00     0.263 C 
BRANCH  13  14
HETATM   14  N3  UNL     1      23.583  13.154  62.285  1.00  0.00    -0.077 N 
ATOM     15  H33 UNL     1      23.040  13.937  62.650  1.00  0.00     0.274 HD
ATOM     16  H32 UNL     1      23.206  13.154  61.338  1.00  0.00     0.274 HD
ATOM     17  H31 UNL     1      23.398  12.282  62.782  1.00  0.00     0.274 HD
ENDBRANCH  13  14
ENDBRANCH  10  13
ENDBRANCH   7  10
ENDBRANCH   6   7
BRANCH   1  18
HETATM   18  N1  UNL     1      25.690  18.811  63.023  1.00  0.00    -0.352 N 
HETATM   19  C2  UNL     1      25.335  18.941  64.391  1.00  0.00     0.214 C 
HETATM   20  C1  UNL     1      24.831  20.230  64.966  1.00  0.00     0.117 C 
HETATM   21  O1  UNL     1      25.446  17.948  65.145  1.00  0.00    -0.274 OA
ATOM     22  H1  UNL     1      25.596  19.626  62.417  1.00  0.00     0.163 HD
ENDBRANCH   1  18
BRANCH   2  23
HETATM   23  N2  UNL     1      28.300  16.450  62.430  1.00  0.00    -0.070 N 
ATOM     24  H23 UNL     1      28.334  16.224  63.424  1.00  0.00     0.275 HD
ATOM     25  H22 UNL     1      27.748  15.649  62.125  1.00  0.00     0.275 HD
ATOM     26  H21 UNL     1      29.224  16.478  62.001  1.00  0.00     0.275 HD
ENDBRANCH   2  23
BRANCH   4  27
HETATM   27  C7  UNL     1      27.371  17.954  58.404  1.00  0.00     0.233 C 
HETATM   28  O2  UNL     1      26.779  17.330  57.496  1.00  0.00    -0.642 OA
HETATM   29  O3  UNL     1      28.261  18.959  58.056  1.00  0.00    -0.642 OA
ENDBRANCH   4  27
TORSDOF 9
ENDMDL
