MODEL 11
REMARK VINA RESULT: -6.519426051      2.432      5.106
REMARK  9 active torsions:
REMARK  status: ('A' for Active; 'I' for Inactive)
REMARK       I    between atoms: C2_2  and  N1_4 
REMARK    1  A    between atoms: N1_4  and  C3_6 
REMARK    2  A    between atoms: C4_7  and  N2_8 
REMARK    3  A    between atoms: C6_13  and  C7_14 
REMARK    4  A    between atoms: C8_18  and  C9_19 
REMARK    5  A    between atoms: C9_19  and  O5_20 
REMARK    6  A    between atoms: C9_19  and  C10_22 
REMARK    7  A    between atoms: C10_22  and  O6_23 
REMARK    8  A    between atoms: C10_22  and  C11_25 
REMARK    9  A    between atoms: C11_25  and  N3_26 
ROOT
HETATM    1  C3  UNL     1      26.440  17.695  62.378  1.00  0.00     0.150 C 
HETATM    2  C4  UNL     1      27.302  18.326  61.347  1.00  0.00     0.234 C 
HETATM    3  C5  UNL     1      28.722  17.981  61.549  1.00  0.00     0.051 C 
HETATM    4  C6  UNL     1      29.229  17.797  62.752  1.00  0.00     0.144 C 
HETATM    5  O4  UNL     1      28.349  17.944  63.839  1.00  0.00    -0.335 OA
HETATM    6  C8  UNL     1      27.013  17.477  63.721  1.00  0.00     0.185 C 
ENDROOT
BRANCH   6   7
HETATM    7  C9  UNL     1      26.162  18.143  64.773  1.00  0.00     0.180 C 
BRANCH   7   8
HETATM    8  O5  UNL     1      24.938  17.504  64.888  1.00  0.00    -0.390 OA
ATOM      9  H5  UNL     1      24.227  18.110  64.721  1.00  0.00     0.210 HD
ENDBRANCH   7   8
BRANCH   7  10
HETATM   10  C10 UNL     1      25.904  19.593  64.436  1.00  0.00     0.174 C 
BRANCH  10  11
HETATM   11  O6  UNL     1      27.039  20.367  64.451  1.00  0.00    -0.391 OA
ATOM     12  H6  UNL     1      27.644  20.162  63.749  1.00  0.00     0.210 HD
ENDBRANCH  10  11
BRANCH  10  13
HETATM   13  C11 UNL     1      24.838  20.206  65.319  1.00  0.00     0.263 C 
BRANCH  13  14
HETATM   14  N3  UNL     1      23.537  19.927  64.722  1.00  0.00    -0.077 N 
ATOM     15  H33 UNL     1      23.395  20.420  63.840  1.00  0.00     0.274 HD
ATOM     16  H32 UNL     1      23.466  18.976  64.362  1.00  0.00     0.274 HD
ATOM     17  H31 UNL     1      22.818  20.142  65.413  1.00  0.00     0.274 HD
ENDBRANCH  13  14
ENDBRANCH  10  13
ENDBRANCH   7  10
ENDBRANCH   6   7
BRANCH   1  18
HETATM   18  N1  UNL     1      25.860  16.487  61.802  1.00  0.00    -0.352 N 
HETATM   19  C2  UNL     1      24.461  16.267  61.707  1.00  0.00     0.214 C 
HETATM   20  C1  UNL     1      23.889  15.017  61.112  1.00  0.00     0.117 C 
HETATM   21  O1  UNL     1      23.677  17.144  62.134  1.00  0.00    -0.274 OA
ATOM     22  H1  UNL     1      26.490  15.766  61.451  1.00  0.00     0.163 HD
ENDBRANCH   1  18
BRANCH   2  23
HETATM   23  N2  UNL     1      27.182  19.786  61.478  1.00  0.00    -0.070 N 
ATOM     24  H23 UNL     1      26.360  20.157  61.002  1.00  0.00     0.275 HD
ATOM     25  H22 UNL     1      26.936  20.076  62.424  1.00  0.00     0.275 HD
ATOM     26  H21 UNL     1      28.051  20.208  61.151  1.00  0.00     0.275 HD
ENDBRANCH   2  23
BRANCH   4  27
HETATM   27  C7  UNL     1      30.627  17.460  62.912  1.00  0.00     0.233 C 
HETATM   28  O2  UNL     1      31.271  17.066  61.913  1.00  0.00    -0.642 OA
HETATM   29  O3  UNL     1      31.277  17.559  64.132  1.00  0.00    -0.642 OA
ENDBRANCH   4  27
TORSDOF 9
ENDMDL
