MODEL 2
REMARK VINA RESULT: -6.140441043      1.510      4.988
REMARK  10 active torsions:
REMARK  status: ('A' for Active; 'I' for Inactive)
REMARK    1  A    between atoms: O1_1  and  C1_3 
REMARK    2  A    between atoms: C2_4  and  O2_5 
REMARK    3  A    between atoms: O2_5  and  P1_6 
REMARK    4  A    between atoms: C3_10  and  O6_11 
REMARK    5  A    between atoms: O6_11  and  P2_12 
REMARK    6  A    between atoms: C4_16  and  O10_17 
REMARK    7  A    between atoms: O10_17  and  P3_18 
REMARK    8  A    between atoms: C5_22  and  O14_23 
REMARK    9  A    between atoms: C6_25  and  O15_26 
REMARK   10  A    between atoms: O15_26  and  P4_27 
ROOT
HETATM    1  C1  UNL     1      22.431   3.593  10.130  1.00  0.00     0.182 C 
HETATM    2  C2  UNL     1      22.987   2.333   9.518  1.00  0.00     0.199 C 
HETATM    3  C3  UNL     1      24.113   1.940  10.455  1.00  0.00     0.200 C 
HETATM    4  C4  UNL     1      25.228   2.911  10.166  1.00  0.00     0.199 C 
HETATM    5  C5  UNL     1      24.810   4.260  10.655  1.00  0.00     0.182 C 
HETATM    6  C6  UNL     1      23.446   4.684  10.313  1.00  0.00     0.198 C 
ENDROOT
BRANCH   2   7
HETATM    7  O2  UNL     1      22.048   1.373   9.548  1.00  0.00    -0.272 OA
BRANCH   7   8
HETATM    8  P1  UNL     1      21.109   1.085   8.271  1.00  0.00     0.422 P 
HETATM    9  O3  UNL     1      22.234   1.089   7.252  1.00  0.00    -0.617 OA
HETATM   10  O4  UNL     1      20.203   2.238   7.563  1.00  0.00    -0.617 OA
HETATM   11  O5  UNL     1      20.766  -0.538   7.818  1.00  0.00    -0.617 OA
ENDBRANCH   7   8
ENDBRANCH   2   7
BRANCH   1  12
HETATM   12  O1  UNL     1      21.952   3.240  11.394  1.00  0.00    -0.390 OA
ATOM     13  H1  UNL     1      21.427   3.972  11.696  1.00  0.00     0.210 HD
ENDBRANCH   1  12
BRANCH   3  14
HETATM   14  O6  UNL     1      24.445   0.630  10.366  1.00  0.00    -0.272 OA
BRANCH  14  15
HETATM   15  P2  UNL     1      24.197  -0.315  11.663  1.00  0.00     0.422 P 
HETATM   16  O7  UNL     1      25.403  -0.421  12.848  1.00  0.00    -0.617 OA
HETATM   17  O8  UNL     1      23.568   0.809  12.481  1.00  0.00    -0.617 OA
HETATM   18  O9  UNL     1      22.923  -1.338  11.750  1.00  0.00    -0.617 OA
ENDBRANCH  14  15
ENDBRANCH   3  14
BRANCH   6  19
HETATM   19  O15 UNL     1      22.851   5.558  11.200  1.00  0.00    -0.272 OA
BRANCH  19  20
HETATM   20  P4  UNL     1      21.922   6.743  10.731  1.00  0.00     0.422 P 
HETATM   21  O16 UNL     1      21.854   8.220  11.557  1.00  0.00    -0.617 OA
HETATM   22  O17 UNL     1      20.668   6.264  11.480  1.00  0.00    -0.617 OA
HETATM   23  O18 UNL     1      21.055   6.665   9.288  1.00  0.00    -0.617 OA
ENDBRANCH  19  20
ENDBRANCH   6  19
BRANCH   4  24
HETATM   24  O10 UNL     1      26.429   2.553  10.713  1.00  0.00    -0.272 OA
BRANCH  24  25
HETATM   25  P3  UNL     1      27.601   2.590   9.563  1.00  0.00     0.422 P 
HETATM   26  O11 UNL     1      28.320   3.765  10.233  1.00  0.00    -0.617 OA
HETATM   27  O12 UNL     1      26.958   1.385   8.867  1.00  0.00    -0.617 OA
HETATM   28  O13 UNL     1      27.351   3.556   8.231  1.00  0.00    -0.617 OA
ENDBRANCH  24  25
ENDBRANCH   4  24
BRANCH   5  29
HETATM   29  O14 UNL     1      25.754   5.155  10.101  1.00  0.00    -0.390 OA
ATOM     30  H14 UNL     1      25.743   5.908  10.679  1.00  0.00     0.210 HD
ENDBRANCH   5  29
TORSDOF 10
ENDMDL
