MODEL 4
REMARK VINA RESULT: -6.054927361      1.519      5.728
REMARK  10 active torsions:
REMARK  status: ('A' for Active; 'I' for Inactive)
REMARK    1  A    between atoms: O1_1  and  C1_3 
REMARK    2  A    between atoms: C2_4  and  O2_5 
REMARK    3  A    between atoms: O2_5  and  P1_6 
REMARK    4  A    between atoms: C3_10  and  O6_11 
REMARK    5  A    between atoms: O6_11  and  P2_12 
REMARK    6  A    between atoms: C4_16  and  O10_17 
REMARK    7  A    between atoms: O10_17  and  P3_18 
REMARK    8  A    between atoms: C5_22  and  O14_23 
REMARK    9  A    between atoms: C6_25  and  O15_26 
REMARK   10  A    between atoms: O15_26  and  P4_27 
ROOT
HETATM    1  C1  UNL     1      24.647   2.029   9.724  1.00  0.00     0.182 C 
HETATM    2  C2  UNL     1      23.296   2.443  10.248  1.00  0.00     0.199 C 
HETATM    3  C3  UNL     1      22.811   3.463   9.235  1.00  0.00     0.200 C 
HETATM    4  C4  UNL     1      23.615   4.708   9.507  1.00  0.00     0.199 C 
HETATM    5  C5  UNL     1      25.030   4.446   9.102  1.00  0.00     0.182 C 
HETATM    6  C6  UNL     1      25.606   3.167   9.535  1.00  0.00     0.198 C 
ENDROOT
BRANCH   2   7
HETATM    7  O2  UNL     1      22.467   1.387  10.226  1.00  0.00    -0.272 OA
BRANCH   7   8
HETATM    8  P1  UNL     1      21.833   0.797  11.584  1.00  0.00     0.422 P 
HETATM    9  O3  UNL     1      22.650  -0.481  11.590  1.00  0.00    -0.617 OA
HETATM   10  O4  UNL     1      20.367   0.089  11.639  1.00  0.00    -0.617 OA
HETATM   11  O5  UNL     1      22.539   1.202  13.098  1.00  0.00    -0.617 OA
ENDBRANCH   7   8
ENDBRANCH   2   7
BRANCH   1  12
HETATM   12  O1  UNL     1      24.422   1.448   8.473  1.00  0.00    -0.390 OA
ATOM     13  H1  UNL     1      25.276   1.351   8.066  1.00  0.00     0.210 HD
ENDBRANCH   1  12
BRANCH   3  14
HETATM   14  O6  UNL     1      21.466   3.626   9.248  1.00  0.00    -0.272 OA
BRANCH  14  15
HETATM   15  P2  UNL     1      20.653   3.405   7.860  1.00  0.00     0.422 P 
HETATM   16  O7  UNL     1      20.729   4.600   6.661  1.00  0.00    -0.617 OA
HETATM   17  O8  UNL     1      21.827   2.715   7.171  1.00  0.00    -0.617 OA
HETATM   18  O9  UNL     1      19.587   2.178   7.674  1.00  0.00    -0.617 OA
ENDBRANCH  14  15
ENDBRANCH   3  14
BRANCH   6  19
HETATM   19  O15 UNL     1      26.594   2.650   8.721  1.00  0.00    -0.272 OA
BRANCH  19  20
HETATM   20  P4  UNL     1      28.022   2.255   9.263  1.00  0.00     0.422 P 
HETATM   21  O16 UNL     1      28.232   1.309  10.651  1.00  0.00    -0.617 OA
HETATM   22  O17 UNL     1      28.230   3.529  10.097  1.00  0.00    -0.617 OA
HETATM   23  O18 UNL     1      29.423   2.624   8.402  1.00  0.00    -0.617 OA
ENDBRANCH  19  20
ENDBRANCH   6  19
BRANCH   4  24
HETATM   24  O10 UNL     1      23.135   5.824   8.881  1.00  0.00    -0.272 OA
BRANCH  24  25
HETATM   25  P3  UNL     1      22.461   6.838   9.983  1.00  0.00     0.422 P 
HETATM   26  O11 UNL     1      23.717   6.836  10.859  1.00  0.00    -0.617 OA
HETATM   27  O12 UNL     1      21.190   6.920   9.130  1.00  0.00    -0.617 OA
HETATM   28  O13 UNL     1      21.624   6.159  11.253  1.00  0.00    -0.617 OA
ENDBRANCH  24  25
ENDBRANCH   4  24
BRANCH   5  29
HETATM   29  O14 UNL     1      25.768   5.524   9.643  1.00  0.00    -0.390 OA
ATOM     30  H14 UNL     1      26.530   5.121  10.042  1.00  0.00     0.210 HD
ENDBRANCH   5  29
TORSDOF 10
ENDMDL
