MODEL 16
REMARK VINA RESULT: -5.725342673      2.850      5.869
REMARK  10 active torsions:
REMARK  status: ('A' for Active; 'I' for Inactive)
REMARK    1  A    between atoms: O1_1  and  C1_3 
REMARK    2  A    between atoms: C2_4  and  O2_5 
REMARK    3  A    between atoms: O2_5  and  P1_6 
REMARK    4  A    between atoms: C3_10  and  O6_11 
REMARK    5  A    between atoms: O6_11  and  P2_12 
REMARK    6  A    between atoms: C4_16  and  O10_17 
REMARK    7  A    between atoms: O10_17  and  P3_18 
REMARK    8  A    between atoms: C5_22  and  O14_23 
REMARK    9  A    between atoms: C6_25  and  O15_26 
REMARK   10  A    between atoms: O15_26  and  P4_27 
ROOT
HETATM    1  C1  UNL     1      24.740   6.838   8.744  1.00  0.00     0.182 C 
HETATM    2  C2  UNL     1      23.817   5.707   9.120  1.00  0.00     0.199 C 
HETATM    3  C3  UNL     1      24.757   4.555   9.418  1.00  0.00     0.200 C 
HETATM    4  C4  UNL     1      25.248   4.084   8.073  1.00  0.00     0.199 C 
HETATM    5  C5  UNL     1      26.143   5.140   7.509  1.00  0.00     0.182 C 
HETATM    6  C6  UNL     1      25.658   6.523   7.600  1.00  0.00     0.198 C 
ENDROOT
BRANCH   2   7
HETATM    7  O2  UNL     1      23.159   6.027  10.246  1.00  0.00    -0.272 OA
BRANCH   7   8
HETATM    8  P1  UNL     1      21.550   5.978  10.315  1.00  0.00     0.422 P 
HETATM    9  O3  UNL     1      21.322   7.087   9.305  1.00  0.00    -0.617 OA
HETATM   10  O4  UNL     1      20.697   6.645  11.530  1.00  0.00    -0.617 OA
HETATM   11  O5  UNL     1      20.688   4.915   9.274  1.00  0.00    -0.617 OA
ENDBRANCH   7   8
ENDBRANCH   2   7
BRANCH   1  12
HETATM   12  O1  UNL     1      25.530   7.092   9.868  1.00  0.00    -0.390 OA
ATOM     13  H1  UNL     1      25.049   7.717  10.398  1.00  0.00     0.210 HD
ENDBRANCH   1  12
BRANCH   3  14
HETATM   14  O6  UNL     1      24.197   3.600  10.198  1.00  0.00    -0.272 OA
BRANCH  14  15
HETATM   15  P2  UNL     1      24.864   3.305  11.649  1.00  0.00     0.422 P 
HETATM   16  O7  UNL     1      24.430   4.275  12.968  1.00  0.00    -0.617 OA
HETATM   17  O8  UNL     1      23.759   2.338  12.066  1.00  0.00    -0.617 OA
HETATM   18  O9  UNL     1      26.103   2.251  11.827  1.00  0.00    -0.617 OA
ENDBRANCH  14  15
ENDBRANCH   3  14
BRANCH   6  19
HETATM   19  O15 UNL     1      26.636   7.496   7.669  1.00  0.00    -0.272 OA
BRANCH  19  20
HETATM   20  P4  UNL     1      27.191   8.235   6.391  1.00  0.00     0.422 P 
HETATM   21  O16 UNL     1      27.226   9.924   6.267  1.00  0.00    -0.617 OA
HETATM   22  O17 UNL     1      25.870   8.202   5.606  1.00  0.00    -0.617 OA
HETATM   23  O18 UNL     1      27.926   7.388   5.133  1.00  0.00    -0.617 OA
ENDBRANCH  19  20
ENDBRANCH   6  19
BRANCH   4  24
HETATM   24  O10 UNL     1      25.891   2.879   8.110  1.00  0.00    -0.272 OA
BRANCH  24  25
HETATM   25  P3  UNL     1      24.940   1.716   7.445  1.00  0.00     0.422 P 
HETATM   26  O11 UNL     1      24.747   2.514   6.152  1.00  0.00    -0.617 OA
HETATM   27  O12 UNL     1      25.130   0.847   8.693  1.00  0.00    -0.617 OA
HETATM   28  O13 UNL     1      23.298   1.816   7.703  1.00  0.00    -0.617 OA
ENDBRANCH  24  25
ENDBRANCH   4  24
BRANCH   5  29
HETATM   29  O14 UNL     1      26.327   4.774   6.155  1.00  0.00    -0.390 OA
ATOM     30  H14 UNL     1      27.235   4.979   5.969  1.00  0.00     0.210 HD
ENDBRANCH   5  29
TORSDOF 10
ENDMDL
