MODEL 1
REMARK VINA RESULT: -6.504929324      0.000      0.000
REMARK  10 active torsions:
REMARK  status: ('A' for Active; 'I' for Inactive)
REMARK    1  A    between atoms: O1_1  and  C1_3 
REMARK    2  A    between atoms: C2_4  and  O2_5 
REMARK    3  A    between atoms: O2_5  and  P1_6 
REMARK    4  A    between atoms: C3_10  and  O6_11 
REMARK    5  A    between atoms: O6_11  and  P2_12 
REMARK    6  A    between atoms: C4_16  and  O10_17 
REMARK    7  A    between atoms: O10_17  and  P3_18 
REMARK    8  A    between atoms: C5_22  and  O14_23 
REMARK    9  A    between atoms: C6_25  and  O15_26 
REMARK   10  A    between atoms: O15_26  and  P4_27 
ROOT
HETATM    1  C1  UNL     1      25.147   4.764  10.081  1.00  0.00     0.182 C 
HETATM    2  C2  UNL     1      25.556   3.324   9.915  1.00  0.00     0.199 C 
HETATM    3  C3  UNL     1      24.291   2.642   9.427  1.00  0.00     0.200 C 
HETATM    4  C4  UNL     1      23.398   2.546  10.637  1.00  0.00     0.199 C 
HETATM    5  C5  UNL     1      22.947   3.926  10.992  1.00  0.00     0.182 C 
HETATM    6  C6  UNL     1      23.981   4.968  11.003  1.00  0.00     0.198 C 
ENDROOT
BRANCH   2   7
HETATM    7  O2  UNL     1      26.490   3.234   8.955  1.00  0.00    -0.272 OA
BRANCH   7   8
HETATM    8  P1  UNL     1      27.933   2.583   9.254  1.00  0.00     0.422 P 
HETATM    9  O3  UNL     1      28.393   3.668  10.209  1.00  0.00    -0.617 OA
HETATM   10  O4  UNL     1      29.184   2.695   8.218  1.00  0.00    -0.617 OA
HETATM   11  O5  UNL     1      28.103   1.447  10.533  1.00  0.00    -0.617 OA
ENDBRANCH   7   8
ENDBRANCH   2   7
BRANCH   1  12
HETATM   12  O1  UNL     1      24.773   5.217   8.813  1.00  0.00    -0.390 OA
ATOM     13  H1  UNL     1      25.174   6.071   8.704  1.00  0.00     0.210 HD
ENDBRANCH   1  12
BRANCH   3  14
HETATM   14  O6  UNL     1      24.531   1.472   8.788  1.00  0.00    -0.272 OA
BRANCH  14  15
HETATM   15  P2  UNL     1      24.007   1.310   7.259  1.00  0.00     0.422 P 
HETATM   16  O7  UNL     1      22.372   0.968   6.981  1.00  0.00    -0.617 OA
HETATM   17  O8  UNL     1      23.666   2.791   7.119  1.00  0.00    -0.617 OA
HETATM   18  O9  UNL     1      25.046   1.243   5.997  1.00  0.00    -0.617 OA
ENDBRANCH  14  15
ENDBRANCH   3  14
BRANCH   6  19
HETATM   19  O15 UNL     1      23.543   6.247  10.723  1.00  0.00    -0.272 OA
BRANCH  19  20
HETATM   20  P4  UNL     1      22.043   6.571  10.360  1.00  0.00     0.422 P 
HETATM   21  O16 UNL     1      21.575   7.065   8.809  1.00  0.00    -0.617 OA
HETATM   22  O17 UNL     1      22.084   8.037  10.817  1.00  0.00    -0.617 OA
HETATM   23  O18 UNL     1      20.792   6.294  11.455  1.00  0.00    -0.617 OA
ENDBRANCH  19  20
ENDBRANCH   6  19
BRANCH   4  24
HETATM   24  O10 UNL     1      22.325   1.718  10.467  1.00  0.00    -0.272 OA
BRANCH  24  25
HETATM   25  P3  UNL     1      22.188   0.706  11.754  1.00  0.00     0.422 P 
HETATM   26  O11 UNL     1      20.834   1.294  12.163  1.00  0.00    -0.617 OA
HETATM   27  O12 UNL     1      23.517   0.043  11.374  1.00  0.00    -0.617 OA
HETATM   28  O13 UNL     1      22.805   1.220  13.213  1.00  0.00    -0.617 OA
ENDBRANCH  24  25
ENDBRANCH   4  24
BRANCH   5  29
HETATM   29  O14 UNL     1      22.368   3.798  12.277  1.00  0.00    -0.390 OA
ATOM     30  H14 UNL     1      21.907   2.968  12.254  1.00  0.00     0.210 HD
ENDBRANCH   5  29
TORSDOF 10
ENDMDL
