MODEL 13
REMARK VINA RESULT: -7.603806110      0.931      1.004
REMARK  6 active torsions:
REMARK  status: ('A' for Active; 'I' for Inactive)
REMARK    1  A    between atoms: C2_2  and  C3_3 
REMARK    2  A    between atoms: C3_3  and  C4_4 
REMARK    3  A    between atoms: C4_4  and  C5_5 
REMARK    4  A    between atoms: C6_6  and  C8_8 
REMARK    5  A    between atoms: C9_9  and  C10_10 
REMARK    6  A    between atoms: C19_19  and  C20_20 
ROOT
HETATM    1  C5  UNL     1      15.493  27.948  46.383  1.00  0.00     0.062 C 
HETATM    2  C6  UNL     1      14.393  28.578  46.800  1.00  0.00    -0.054 C 
HETATM    3  C7  UNL     1      13.559  29.317  45.874  1.00  0.00     0.049 C 
ENDROOT
BRANCH   2   4
HETATM    4  C8  UNL     1      14.091  28.470  48.249  1.00  0.00     0.008 C 
HETATM    5  C9  UNL     1      14.712  29.137  49.174  1.00  0.00     0.009 C 
BRANCH   5   6
HETATM    6  C10 UNL     1      14.494  29.102  50.608  1.00  0.00    -0.048 C 
HETATM    7  C11 UNL     1      14.212  27.892  51.168  1.00  0.00    -0.077 C 
HETATM    8  C12 UNL     1      14.160  26.730  50.236  1.00  0.00     0.044 C 
HETATM    9  C13 UNL     1      13.971  27.643  52.576  1.00  0.00     0.034 C 
HETATM   10  C14 UNL     1      13.453  28.825  53.345  1.00  0.00     0.005 C 
HETATM   11  C15 UNL     1      13.268  30.023  52.461  1.00  0.00     0.014 C 
HETATM   12  C16 UNL     1      14.539  30.189  51.570  1.00  0.00    -0.020 C 
HETATM   13  C17 UNL     1      15.747  30.061  52.505  1.00  0.00     0.020 C 
HETATM   14  C18 UNL     1      14.549  31.602  51.103  1.00  0.00     0.020 C 
ENDBRANCH   5   6
ENDBRANCH   2   4
BRANCH   1  15
HETATM   15  C4  UNL     1      16.086  27.823  45.163  1.00  0.00    -0.127 C 
BRANCH  15  16
HETATM   16  C3  UNL     1      16.618  27.710  44.052  1.00  0.00     0.062 C 
BRANCH  16  17
HETATM   17  C2  UNL     1      17.753  26.830  43.669  1.00  0.00    -0.048 C 
HETATM   18  C1  UNL     1      18.416  26.970  42.371  1.00  0.00     0.049 C 
HETATM   19  C19 UNL     1      18.124  25.938  44.571  1.00  0.00     0.091 C 
BRANCH  19  20
HETATM   20  C20 UNL     1      19.173  25.000  44.457  1.00  0.00     0.199 C 
HETATM   21  O1  UNL     1      19.947  24.865  45.491  1.00  0.00    -0.644 OA
HETATM   22  O2  UNL     1      19.493  24.202  43.399  1.00  0.00    -0.644 OA
ENDBRANCH  19  20
ENDBRANCH  16  17
ENDBRANCH  15  16
ENDBRANCH   1  15
TORSDOF 6
ENDMDL
