MODEL 10
REMARK VINA RESULT: -8.583527776      3.567      8.296
REMARK  6 active torsions:
REMARK  status: ('A' for Active; 'I' for Inactive)
REMARK    1  A    between atoms: C2_2  and  C3_3 
REMARK    2  A    between atoms: C3_3  and  C4_4 
REMARK    3  A    between atoms: C4_4  and  C5_5 
REMARK    4  A    between atoms: C6_6  and  C8_8 
REMARK    5  A    between atoms: C9_9  and  C10_10 
REMARK    6  A    between atoms: C19_19  and  C20_20 
ROOT
HETATM    1  C5  UNL     1      15.174  29.289  46.652  1.00  0.00     0.062 C 
HETATM    2  C6  UNL     1      15.083  29.028  45.346  1.00  0.00    -0.054 C 
HETATM    3  C7  UNL     1      14.230  29.820  44.485  1.00  0.00     0.049 C 
ENDROOT
BRANCH   2   4
HETATM    4  C8  UNL     1      15.901  27.893  44.851  1.00  0.00     0.008 C 
HETATM    5  C9  UNL     1      17.109  27.636  45.253  1.00  0.00     0.009 C 
BRANCH   5   6
HETATM    6  C10 UNL     1      17.986  26.559  44.833  1.00  0.00    -0.048 C 
HETATM    7  C11 UNL     1      18.447  25.715  45.797  1.00  0.00    -0.077 C 
HETATM    8  C12 UNL     1      17.993  25.994  47.190  1.00  0.00     0.044 C 
HETATM    9  C13 UNL     1      19.322  24.578  45.585  1.00  0.00     0.034 C 
HETATM   10  C14 UNL     1      20.197  24.677  44.368  1.00  0.00     0.005 C 
HETATM   11  C15 UNL     1      19.990  25.972  43.640  1.00  0.00     0.014 C 
HETATM   12  C16 UNL     1      18.457  26.228  43.499  1.00  0.00    -0.020 C 
HETATM   13  C17 UNL     1      17.840  24.916  42.997  1.00  0.00     0.020 C 
HETATM   14  C18 UNL     1      18.288  27.197  42.383  1.00  0.00     0.020 C 
ENDBRANCH   5   6
ENDBRANCH   2   4
BRANCH   1  15
HETATM   15  C4  UNL     1      14.590  30.221  47.457  1.00  0.00    -0.127 C 
BRANCH  15  16
HETATM   16  C3  UNL     1      14.062  31.072  48.182  1.00  0.00     0.062 C 
BRANCH  16  17
HETATM   17  C2  UNL     1      14.069  31.137  49.667  1.00  0.00    -0.048 C 
HETATM   18  C1  UNL     1      13.256  32.119  50.387  1.00  0.00     0.049 C 
HETATM   19  C19 UNL     1      14.837  30.253  50.281  1.00  0.00     0.091 C 
BRANCH  19  20
HETATM   20  C20 UNL     1      15.009  30.101  51.674  1.00  0.00     0.199 C 
HETATM   21  O1  UNL     1      14.189  29.293  52.277  1.00  0.00    -0.644 OA
HETATM   22  O2  UNL     1      15.927  30.690  52.491  1.00  0.00    -0.644 OA
ENDBRANCH  19  20
ENDBRANCH  16  17
ENDBRANCH  15  16
ENDBRANCH   1  15
TORSDOF 6
ENDMDL
