MODEL 1
REMARK VINA RESULT: -9.708596215      0.000      0.000
REMARK  6 active torsions:
REMARK  status: ('A' for Active; 'I' for Inactive)
REMARK    1  A    between atoms: C2_2  and  C3_3 
REMARK    2  A    between atoms: C3_3  and  C4_4 
REMARK    3  A    between atoms: C4_4  and  C5_5 
REMARK    4  A    between atoms: C6_6  and  C8_8 
REMARK    5  A    between atoms: C9_9  and  C10_10 
REMARK    6  A    between atoms: C19_19  and  C20_20 
ROOT
HETATM    1  C5  UNL     1      16.064  28.338  46.009  1.00  0.00     0.062 C 
HETATM    2  C6  UNL     1      14.959  28.983  46.389  1.00  0.00    -0.054 C 
HETATM    3  C7  UNL     1      13.866  29.199  45.463  1.00  0.00     0.049 C 
ENDROOT
BRANCH   2   4
HETATM    4  C8  UNL     1      14.930  29.451  47.796  1.00  0.00     0.008 C 
HETATM    5  C9  UNL     1      14.170  28.941  48.718  1.00  0.00     0.009 C 
BRANCH   5   6
HETATM    6  C10 UNL     1      14.068  29.327  50.113  1.00  0.00    -0.048 C 
HETATM    7  C11 UNL     1      14.233  28.347  51.046  1.00  0.00    -0.077 C 
HETATM    8  C12 UNL     1      14.503  26.977  50.523  1.00  0.00     0.044 C 
HETATM    9  C13 UNL     1      14.177  28.525  52.484  1.00  0.00     0.034 C 
HETATM   10  C14 UNL     1      13.353  29.695  52.942  1.00  0.00     0.005 C 
HETATM   11  C15 UNL     1      12.730  30.420  51.786  1.00  0.00     0.014 C 
HETATM   12  C16 UNL     1      13.817  30.637  50.687  1.00  0.00    -0.020 C 
HETATM   13  C17 UNL     1      15.059  31.182  51.403  1.00  0.00     0.020 C 
HETATM   14  C18 UNL     1      13.336  31.752  49.827  1.00  0.00     0.020 C 
ENDBRANCH   5   6
ENDBRANCH   2   4
BRANCH   1  15
HETATM   15  C4  UNL     1      16.454  27.777  44.830  1.00  0.00    -0.127 C 
BRANCH  15  16
HETATM   16  C3  UNL     1      16.814  27.271  43.761  1.00  0.00     0.062 C 
BRANCH  16  17
HETATM   17  C2  UNL     1      17.793  26.171  43.555  1.00  0.00    -0.048 C 
HETATM   18  C1  UNL     1      17.831  25.414  42.303  1.00  0.00     0.049 C 
HETATM   19  C19 UNL     1      18.620  25.938  44.560  1.00  0.00     0.091 C 
BRANCH  19  20
HETATM   20  C20 UNL     1      19.641  24.963  44.611  1.00  0.00     0.199 C 
HETATM   21  O1  UNL     1      19.564  24.090  45.570  1.00  0.00    -0.644 OA
HETATM   22  O2  UNL     1      20.711  24.803  43.783  1.00  0.00    -0.644 OA
ENDBRANCH  19  20
ENDBRANCH  16  17
ENDBRANCH  15  16
ENDBRANCH   1  15
TORSDOF 6
ENDMDL
