MODEL 8
REMARK VINA RESULT: -8.845921104      1.404      1.870
REMARK  6 active torsions:
REMARK  status: ('A' for Active; 'I' for Inactive)
REMARK    1  A    between atoms: C2_2  and  C3_3 
REMARK    2  A    between atoms: C3_3  and  C4_4 
REMARK    3  A    between atoms: C4_4  and  C5_5 
REMARK    4  A    between atoms: C6_6  and  C8_8 
REMARK    5  A    between atoms: C9_9  and  C10_10 
REMARK    6  A    between atoms: C19_19  and  C20_20 
ROOT
HETATM    1  C5  UNL     1      15.958  27.945  45.678  1.00  0.00     0.062 C 
HETATM    2  C6  UNL     1      14.737  28.484  45.727  1.00  0.00    -0.054 C 
HETATM    3  C7  UNL     1      14.039  28.861  44.515  1.00  0.00     0.049 C 
ENDROOT
BRANCH   2   4
HETATM    4  C8  UNL     1      14.160  28.665  47.082  1.00  0.00     0.008 C 
HETATM    5  C9  UNL     1      14.862  28.924  48.144  1.00  0.00     0.009 C 
BRANCH   5   6
HETATM    6  C10 UNL     1      14.396  29.116  49.504  1.00  0.00    -0.048 C 
HETATM    7  C11 UNL     1      14.341  28.017  50.308  1.00  0.00    -0.077 C 
HETATM    8  C12 UNL     1      14.769  26.728  49.693  1.00  0.00     0.044 C 
HETATM    9  C13 UNL     1      13.913  27.998  51.693  1.00  0.00     0.034 C 
HETATM   10  C14 UNL     1      12.970  29.103  52.076  1.00  0.00     0.005 C 
HETATM   11  C15 UNL     1      12.648  29.986  50.908  1.00  0.00     0.014 C 
HETATM   12  C16 UNL     1      13.974  30.339  50.165  1.00  0.00    -0.020 C 
HETATM   13  C17 UNL     1      14.977  30.768  51.243  1.00  0.00     0.020 C 
HETATM   14  C18 UNL     1      13.702  31.565  49.368  1.00  0.00     0.020 C 
ENDBRANCH   5   6
ENDBRANCH   2   4
BRANCH   1  15
HETATM   15  C4  UNL     1      16.796  27.635  44.649  1.00  0.00    -0.127 C 
BRANCH  15  16
HETATM   16  C3  UNL     1      17.552  27.357  43.712  1.00  0.00     0.062 C 
BRANCH  16  17
HETATM   17  C2  UNL     1      18.074  26.020  43.324  1.00  0.00    -0.048 C 
HETATM   18  C1  UNL     1      18.915  25.241  44.235  1.00  0.00     0.049 C 
HETATM   19  C19 UNL     1      17.720  25.586  42.127  1.00  0.00     0.091 C 
BRANCH  19  20
HETATM   20  C20 UNL     1      18.071  24.354  41.532  1.00  0.00     0.199 C 
HETATM   21  O1  UNL     1      17.995  24.292  40.236  1.00  0.00    -0.644 OA
HETATM   22  O2  UNL     1      18.487  23.204  42.132  1.00  0.00    -0.644 OA
ENDBRANCH  19  20
ENDBRANCH  16  17
ENDBRANCH  15  16
ENDBRANCH   1  15
TORSDOF 6
ENDMDL
