MODEL 3
REMARK VINA RESULT: -9.671003809      1.011      1.405
REMARK  6 active torsions:
REMARK  status: ('A' for Active; 'I' for Inactive)
REMARK    1  A    between atoms: C2_2  and  C3_3 
REMARK    2  A    between atoms: C3_3  and  C4_4 
REMARK    3  A    between atoms: C4_4  and  C5_5 
REMARK    4  A    between atoms: C6_6  and  C8_8 
REMARK    5  A    between atoms: C9_9  and  C10_10 
REMARK    6  A    between atoms: C19_19  and  C20_20 
ROOT
HETATM    1  C5  UNL     1      15.623  28.464  46.424  1.00  0.00     0.062 C 
HETATM    2  C6  UNL     1      14.480  29.143  46.552  1.00  0.00    -0.054 C 
HETATM    3  C7  UNL     1      13.635  29.404  45.405  1.00  0.00     0.049 C 
ENDROOT
BRANCH   2   4
HETATM    4  C8  UNL     1      14.145  29.600  47.923  1.00  0.00     0.008 C 
HETATM    5  C9  UNL     1      14.686  29.122  49.003  1.00  0.00     0.009 C 
BRANCH   5   6
HETATM    6  C10 UNL     1      14.428  29.498  50.381  1.00  0.00    -0.048 C 
HETATM    7  C11 UNL     1      13.761  28.601  51.159  1.00  0.00    -0.077 C 
HETATM    8  C12 UNL     1      13.369  27.321  50.503  1.00  0.00     0.044 C 
HETATM    9  C13 UNL     1      13.414  28.781  52.556  1.00  0.00     0.034 C 
HETATM   10  C14 UNL     1      13.277  30.212  52.991  1.00  0.00     0.005 C 
HETATM   11  C15 UNL     1      13.506  31.161  51.853  1.00  0.00     0.014 C 
HETATM   12  C16 UNL     1      14.789  30.718  51.081  1.00  0.00    -0.020 C 
HETATM   13  C17 UNL     1      15.867  30.458  52.140  1.00  0.00     0.020 C 
HETATM   14  C18 UNL     1      15.260  31.907  50.321  1.00  0.00     0.020 C 
ENDBRANCH   5   6
ENDBRANCH   2   4
BRANCH   1  15
HETATM   15  C4  UNL     1      16.255  27.901  45.357  1.00  0.00    -0.127 C 
BRANCH  15  16
HETATM   16  C3  UNL     1      16.832  27.386  44.392  1.00  0.00     0.062 C 
BRANCH  16  17
HETATM   17  C2  UNL     1      17.959  26.416  44.414  1.00  0.00    -0.048 C 
HETATM   18  C1  UNL     1      18.787  26.243  45.609  1.00  0.00     0.049 C 
HETATM   19  C19 UNL     1      18.149  25.725  43.303  1.00  0.00     0.091 C 
BRANCH  19  20
HETATM   20  C20 UNL     1      19.137  24.743  43.073  1.00  0.00     0.199 C 
HETATM   21  O1  UNL     1      18.859  23.836  42.185  1.00  0.00    -0.644 OA
HETATM   22  O2  UNL     1      20.361  24.609  43.658  1.00  0.00    -0.644 OA
ENDBRANCH  19  20
ENDBRANCH  16  17
ENDBRANCH  15  16
ENDBRANCH   1  15
TORSDOF 6
ENDMDL
