MODEL 12
REMARK VINA RESULT: -8.384714028      3.703      8.514
REMARK  6 active torsions:
REMARK  status: ('A' for Active; 'I' for Inactive)
REMARK    1  A    between atoms: C2_2  and  C3_3 
REMARK    2  A    between atoms: C3_3  and  C4_4 
REMARK    3  A    between atoms: C4_4  and  C5_5 
REMARK    4  A    between atoms: C6_6  and  C8_8 
REMARK    5  A    between atoms: C9_9  and  C10_10 
REMARK    6  A    between atoms: C19_19  and  C20_20 
ROOT
HETATM    1  C5  UNL     1      15.504  29.424  46.576  1.00  0.00     0.062 C 
HETATM    2  C6  UNL     1      15.211  29.039  45.332  1.00  0.00    -0.054 C 
HETATM    3  C7  UNL     1      14.156  29.686  44.579  1.00  0.00     0.049 C 
ENDROOT
BRANCH   2   4
HETATM    4  C8  UNL     1      16.025  27.925  44.787  1.00  0.00     0.008 C 
HETATM    5  C9  UNL     1      17.183  27.572  45.257  1.00  0.00     0.009 C 
BRANCH   5   6
HETATM    6  C10 UNL     1      18.053  26.505  44.797  1.00  0.00    -0.048 C 
HETATM    7  C11 UNL     1      18.531  25.640  45.735  1.00  0.00    -0.077 C 
HETATM    8  C12 UNL     1      18.103  25.889  47.141  1.00  0.00     0.044 C 
HETATM    9  C13 UNL     1      19.402  24.508  45.483  1.00  0.00     0.034 C 
HETATM   10  C14 UNL     1      20.255  24.634  44.253  1.00  0.00     0.005 C 
HETATM   11  C15 UNL     1      20.035  25.944  43.556  1.00  0.00     0.014 C 
HETATM   12  C16 UNL     1      18.499  26.202  43.449  1.00  0.00    -0.020 C 
HETATM   13  C17 UNL     1      17.873  24.902  42.930  1.00  0.00     0.020 C 
HETATM   14  C18 UNL     1      18.310  27.195  42.357  1.00  0.00     0.020 C 
ENDBRANCH   5   6
ENDBRANCH   2   4
BRANCH   1  15
HETATM   15  C4  UNL     1      14.990  30.382  47.397  1.00  0.00    -0.127 C 
BRANCH  15  16
HETATM   16  C3  UNL     1      14.525  31.257  48.137  1.00  0.00     0.062 C 
BRANCH  16  17
HETATM   17  C2  UNL     1      14.308  31.189  49.607  1.00  0.00    -0.048 C 
HETATM   18  C1  UNL     1      15.092  32.013  50.527  1.00  0.00     0.049 C 
HETATM   19  C19 UNL     1      13.366  30.356  50.014  1.00  0.00     0.091 C 
BRANCH  19  20
HETATM   20  C20 UNL     1      12.963  30.117  51.346  1.00  0.00     0.199 C 
HETATM   21  O1  UNL     1      11.747  30.457  51.656  1.00  0.00    -0.644 OA
HETATM   22  O2  UNL     1      13.677  29.571  52.371  1.00  0.00    -0.644 OA
ENDBRANCH  19  20
ENDBRANCH  16  17
ENDBRANCH  15  16
ENDBRANCH   1  15
TORSDOF 6
ENDMDL
