MODEL 16
REMARK VINA RESULT: -7.024672559      3.339      5.320
REMARK  6 active torsions:
REMARK  status: ('A' for Active; 'I' for Inactive)
REMARK    1  A    between atoms: C2_2  and  C3_3 
REMARK    2  A    between atoms: C3_3  and  C4_4 
REMARK    3  A    between atoms: C4_4  and  C5_5 
REMARK    4  A    between atoms: C6_6  and  C8_8 
REMARK    5  A    between atoms: C9_9  and  C10_10 
REMARK    6  A    between atoms: C19_19  and  C20_20 
ROOT
HETATM    1  C5  UNL     1      17.556  26.318  43.369  1.00  0.00     0.062 C 
HETATM    2  C6  UNL     1      17.772  26.817  44.588  1.00  0.00    -0.054 C 
HETATM    3  C7  UNL     1      18.654  26.149  45.523  1.00  0.00     0.049 C 
ENDROOT
BRANCH   2   4
HETATM    4  C8  UNL     1      17.061  28.078  44.911  1.00  0.00     0.008 C 
HETATM    5  C9  UNL     1      15.829  28.135  45.321  1.00  0.00     0.009 C 
BRANCH   5   6
HETATM    6  C10 UNL     1      15.048  29.310  45.659  1.00  0.00    -0.048 C 
HETATM    7  C11 UNL     1      13.932  29.555  44.916  1.00  0.00    -0.077 C 
HETATM    8  C12 UNL     1      13.638  28.579  43.828  1.00  0.00     0.044 C 
HETATM    9  C13 UNL     1      13.017  30.666  45.097  1.00  0.00     0.034 C 
HETATM   10  C14 UNL     1      13.622  31.881  45.739  1.00  0.00     0.005 C 
HETATM   11  C15 UNL     1      15.080  31.686  46.032  1.00  0.00     0.014 C 
HETATM   12  C16 UNL     1      15.273  30.291  46.706  1.00  0.00    -0.020 C 
HETATM   13  C17 UNL     1      14.212  30.188  47.808  1.00  0.00     0.020 C 
HETATM   14  C18 UNL     1      16.579  30.340  47.418  1.00  0.00     0.020 C 
ENDBRANCH   5   6
ENDBRANCH   2   4
BRANCH   1  15
HETATM   15  C4  UNL     1      18.013  25.208  42.725  1.00  0.00    -0.127 C 
BRANCH  15  16
HETATM   16  C3  UNL     1      18.431  24.205  42.136  1.00  0.00     0.062 C 
BRANCH  16  17
HETATM   17  C2  UNL     1      18.264  23.852  40.701  1.00  0.00    -0.048 C 
HETATM   18  C1  UNL     1      17.438  24.669  39.811  1.00  0.00     0.049 C 
HETATM   19  C19 UNL     1      18.913  22.775  40.291  1.00  0.00     0.091 C 
BRANCH  19  20
HETATM   20  C20 UNL     1      18.927  22.239  38.985  1.00  0.00     0.199 C 
HETATM   21  O1  UNL     1      19.264  20.989  38.874  1.00  0.00    -0.644 OA
HETATM   22  O2  UNL     1      18.631  22.855  37.805  1.00  0.00    -0.644 OA
ENDBRANCH  19  20
ENDBRANCH  16  17
ENDBRANCH  15  16
ENDBRANCH   1  15
TORSDOF 6
ENDMDL
