MODEL 5
REMARK VINA RESULT: -11.982297958      0.874      1.625
REMARK  4 active torsions:
REMARK  status: ('A' for Active; 'I' for Inactive)
REMARK    1  A    between atoms: C11_11  and  C12_12 
REMARK    2  A    between atoms: C12_12  and  O1_13 
REMARK    3  A    between atoms: C12_12  and  C13_15 
REMARK    4  A    between atoms: C18_20  and  C19_21 
ROOT
HETATM    1  C12 UNL     1      39.446  13.445  84.136  1.00  0.00     0.184 C 
ENDROOT
BRANCH   1   2
HETATM    2  C11 UNL     1      40.627  14.135  83.595  1.00  0.00    -0.025 A 
HETATM    3  C10 UNL     1      41.241  13.574  82.473  1.00  0.00     0.018 A 
HETATM    4  C9  UNL     1      42.353  14.140  81.886  1.00  0.00    -0.043 A 
HETATM    5  C6  UNL     1      42.958  13.485  80.688  1.00  0.00    -0.020 C 
HETATM    6  C26 UNL     1      42.858  15.297  82.443  1.00  0.00    -0.043 A 
HETATM    7  C5  UNL     1      44.143  14.237  80.174  1.00  0.00     0.015 C 
HETATM    8  C7  UNL     1      41.913  13.439  79.595  1.00  0.00     0.020 C 
HETATM    9  C8  UNL     1      43.346  12.071  81.130  1.00  0.00     0.020 C 
HETATM   10  C4  UNL     1      44.001  15.711  80.365  1.00  0.00     0.015 C 
HETATM   11  C2  UNL     1      44.069  15.984  81.869  1.00  0.00    -0.020 C 
HETATM   12  C1  UNL     1      43.971  17.481  82.044  1.00  0.00     0.020 C 
HETATM   13  C3  UNL     1      45.338  15.404  82.399  1.00  0.00     0.020 C 
HETATM   14  C25 UNL     1      42.256  15.858  83.553  1.00  0.00     0.009 A 
HETATM   15  C24 UNL     1      41.159  15.283  84.116  1.00  0.00     0.011 A 
ENDBRANCH   1   2
BRANCH   1  16
HETATM   16  O1  UNL     1      39.876  12.334  84.875  1.00  0.00    -0.386 OA
ATOM     17  H1  UNL     1      39.340  11.587  84.639  1.00  0.00     0.210 HD
ENDBRANCH   1  16
BRANCH   1  18
HETATM   18  C13 UNL     1      38.627  14.288  85.035  1.00  0.00    -0.024 A 
HETATM   19  C14 UNL     1      38.142  13.858  86.241  1.00  0.00     0.011 A 
HETATM   20  C15 UNL     1      37.393  14.719  87.000  1.00  0.00     0.013 A 
HETATM   21  C16 UNL     1      37.121  16.004  86.571  1.00  0.00    -0.025 A 
HETATM   22  C17 UNL     1      36.355  16.862  87.362  1.00  0.00     0.030 A 
HETATM   23  C22 UNL     1      37.612  16.433  85.356  1.00  0.00    -0.025 A 
HETATM   24  C18 UNL     1      36.105  18.121  86.913  1.00  0.00     0.041 A 
HETATM   25  C20 UNL     1      36.590  18.561  85.698  1.00  0.00     0.019 A 
HETATM   26  C21 UNL     1      37.349  17.732  84.901  1.00  0.00     0.013 A 
HETATM   27  C23 UNL     1      38.362  15.563  84.601  1.00  0.00     0.022 A 
BRANCH  24  28
HETATM   28  C19 UNL     1      35.297  19.038  87.739  1.00  0.00     0.209 C 
HETATM   29  O2  UNL     1      35.125  18.799  88.956  1.00  0.00    -0.644 OA
HETATM   30  O3  UNL     1      34.727  20.157  87.179  1.00  0.00    -0.644 OA
ENDBRANCH  24  28
ENDBRANCH   1  18
TORSDOF 4
ENDMDL
