MODEL 1
REMARK VINA RESULT: -15.349360671      0.000      0.000
REMARK  4 active torsions:
REMARK  status: ('A' for Active; 'I' for Inactive)
REMARK    1  A    between atoms: C11_11  and  C12_12 
REMARK    2  A    between atoms: C12_12  and  O1_13 
REMARK    3  A    between atoms: C12_12  and  C13_15 
REMARK    4  A    between atoms: C18_20  and  C19_21 
ROOT
HETATM    1  C12 UNL     1      39.824  13.489  84.237  1.00  0.00     0.184 C 
ENDROOT
BRANCH   1   2
HETATM    2  C11 UNL     1      41.074  13.927  83.596  1.00  0.00    -0.025 A 
HETATM    3  C10 UNL     1      41.399  13.355  82.364  1.00  0.00     0.018 A 
HETATM    4  C9  UNL     1      42.545  13.693  81.678  1.00  0.00    -0.043 A 
HETATM    5  C6  UNL     1      42.829  13.041  80.365  1.00  0.00    -0.020 C 
HETATM    6  C26 UNL     1      43.384  14.630  82.247  1.00  0.00    -0.043 A 
HETATM    7  C5  UNL     1      44.101  13.534  79.755  1.00  0.00     0.015 C 
HETATM    8  C7  UNL     1      41.692  13.363  79.420  1.00  0.00     0.020 C 
HETATM    9  C8  UNL     1      42.894  11.537  80.646  1.00  0.00     0.020 C 
HETATM   10  C4  UNL     1      44.358  14.970  80.070  1.00  0.00     0.015 C 
HETATM   11  C2  UNL     1      44.658  15.061  81.569  1.00  0.00    -0.020 C 
HETATM   12  C1  UNL     1      44.961  16.511  81.865  1.00  0.00     0.020 C 
HETATM   13  C3  UNL     1      45.790  14.140  81.881  1.00  0.00     0.020 C 
HETATM   14  C25 UNL     1      43.069  15.201  83.465  1.00  0.00     0.009 A 
HETATM   15  C24 UNL     1      41.933  14.852  84.125  1.00  0.00     0.011 A 
ENDBRANCH   1   2
BRANCH   1  16
HETATM   16  O1  UNL     1      40.144  12.679  85.336  1.00  0.00    -0.386 OA
ATOM     17  H1  UNL     1      40.596  11.906  85.020  1.00  0.00     0.210 HD
ENDBRANCH   1  16
BRANCH   1  18
HETATM   18  C13 UNL     1      38.991  14.607  84.736  1.00  0.00    -0.024 A 
HETATM   19  C14 UNL     1      38.945  15.839  84.142  1.00  0.00     0.011 A 
HETATM   20  C15 UNL     1      38.140  16.807  84.683  1.00  0.00     0.013 A 
HETATM   21  C16 UNL     1      37.379  16.560  85.810  1.00  0.00    -0.025 A 
HETATM   22  C17 UNL     1      36.566  17.562  86.343  1.00  0.00     0.030 A 
HETATM   23  C22 UNL     1      37.428  15.317  86.405  1.00  0.00    -0.025 A 
HETATM   24  C18 UNL     1      35.829  17.289  87.452  1.00  0.00     0.041 A 
HETATM   25  C20 UNL     1      35.870  16.049  88.056  1.00  0.00     0.019 A 
HETATM   26  C21 UNL     1      36.665  15.044  87.548  1.00  0.00     0.013 A 
HETATM   27  C23 UNL     1      38.239  14.353  85.855  1.00  0.00     0.022 A 
BRANCH  24  28
HETATM   28  C19 UNL     1      34.966  18.339  88.026  1.00  0.00     0.209 C 
HETATM   29  O2  UNL     1      35.382  19.517  88.109  1.00  0.00    -0.644 OA
HETATM   30  O3  UNL     1      33.702  18.032  88.474  1.00  0.00    -0.644 OA
ENDBRANCH  24  28
ENDBRANCH   1  18
TORSDOF 4
ENDMDL
