MODEL 1
REMARK VINA RESULT: -15.289801169      0.000      0.000
REMARK  3 active torsions:
REMARK  status: ('A' for Active; 'I' for Inactive)
REMARK    1  A    between atoms: C11_11  and  C12_12 
REMARK    2  A    between atoms: C12_12  and  C13_14 
REMARK    3  A    between atoms: C18_19  and  C19_20 
ROOT
HETATM    1  C12 UNL     1      40.002  13.853  84.406  1.00  0.00     0.192 C 
HETATM    2  O1  UNL     1      39.638  12.645  84.651  1.00  0.00    -0.287 OA
ENDROOT
BRANCH   1   3
HETATM    3  C11 UNL     1      41.237  14.118  83.688  1.00  0.00     0.015 A 
HETATM    4  C10 UNL     1      41.564  13.614  82.454  1.00  0.00     0.024 A 
HETATM    5  C9  UNL     1      42.790  13.899  81.831  1.00  0.00    -0.042 A 
HETATM    6  C6  UNL     1      43.073  13.331  80.491  1.00  0.00    -0.020 C 
HETATM    7  C26 UNL     1      43.714  14.699  82.433  1.00  0.00    -0.043 A 
HETATM    8  C5  UNL     1      43.709  14.445  79.686  1.00  0.00     0.015 C 
HETATM    9  C7  UNL     1      43.932  12.113  80.498  1.00  0.00     0.020 C 
HETATM   10  C8  UNL     1      41.724  13.060  79.826  1.00  0.00     0.020 C 
HETATM   11  C4  UNL     1      44.879  15.085  80.328  1.00  0.00     0.015 C 
HETATM   12  C2  UNL     1      45.008  14.993  81.797  1.00  0.00    -0.020 C 
HETATM   13  C1  UNL     1      46.034  13.905  82.156  1.00  0.00     0.020 C 
HETATM   14  C3  UNL     1      45.556  16.285  82.409  1.00  0.00     0.020 C 
HETATM   15  C25 UNL     1      43.400  15.229  83.699  1.00  0.00     0.009 A 
HETATM   16  C24 UNL     1      42.192  14.933  84.287  1.00  0.00     0.016 A 
ENDBRANCH   1   3
BRANCH   1  17
HETATM   17  C13 UNL     1      39.085  14.866  84.904  1.00  0.00     0.016 A 
HETATM   18  C14 UNL     1      39.054  16.157  84.424  1.00  0.00     0.016 A 
HETATM   19  C15 UNL     1      38.161  17.096  84.955  1.00  0.00     0.013 A 
HETATM   20  C16 UNL     1      37.281  16.785  85.967  1.00  0.00    -0.025 A 
HETATM   21  C17 UNL     1      36.404  17.713  86.487  1.00  0.00     0.030 A 
HETATM   22  C22 UNL     1      37.305  15.497  86.454  1.00  0.00    -0.025 A 
HETATM   23  C18 UNL     1      35.518  17.419  87.499  1.00  0.00     0.041 A 
HETATM   24  C20 UNL     1      35.539  16.123  87.992  1.00  0.00     0.019 A 
HETATM   25  C21 UNL     1      36.418  15.196  87.470  1.00  0.00     0.013 A 
HETATM   26  C23 UNL     1      38.183  14.572  85.933  1.00  0.00     0.028 A 
BRANCH  23  27
HETATM   27  C19 UNL     1      34.608  18.426  88.019  1.00  0.00     0.209 C 
HETATM   28  O2  UNL     1      33.625  18.059  88.703  1.00  0.00    -0.644 OA
HETATM   29  O3  UNL     1      34.775  19.783  87.793  1.00  0.00    -0.644 OA
ENDBRANCH  23  27
ENDBRANCH   1  17
TORSDOF 3
ENDMDL
