MODEL 4
REMARK VINA RESULT: -12.718151426      0.843      1.543
REMARK  3 active torsions:
REMARK  status: ('A' for Active; 'I' for Inactive)
REMARK    1  A    between atoms: C11_11  and  C12_12 
REMARK    2  A    between atoms: C12_12  and  C13_14 
REMARK    3  A    between atoms: C18_19  and  C19_20 
ROOT
HETATM    1  C12 UNL     1      39.735  13.732  84.438  1.00  0.00     0.192 C 
HETATM    2  O1  UNL     1      39.507  12.467  84.440  1.00  0.00    -0.287 OA
ENDROOT
BRANCH   1   3
HETATM    3  C11 UNL     1      40.862  14.275  83.701  1.00  0.00     0.015 A 
HETATM    4  C10 UNL     1      41.455  13.691  82.609  1.00  0.00     0.024 A 
HETATM    5  C9  UNL     1      42.559  14.268  81.960  1.00  0.00    -0.042 A 
HETATM    6  C6  UNL     1      43.142  13.590  80.777  1.00  0.00    -0.020 C 
HETATM    7  C26 UNL     1      43.091  15.445  82.392  1.00  0.00    -0.043 A 
HETATM    8  C5  UNL     1      43.426  14.679  79.763  1.00  0.00     0.015 C 
HETATM    9  C7  UNL     1      44.364  12.784  81.058  1.00  0.00     0.020 C 
HETATM   10  C8  UNL     1      42.035  12.733  80.163  1.00  0.00     0.020 C 
HETATM   11  C4  UNL     1      44.239  15.806  80.273  1.00  0.00     0.015 C 
HETATM   12  C2  UNL     1      44.257  16.051  81.729  1.00  0.00    -0.020 C 
HETATM   13  C1  UNL     1      45.558  15.492  82.330  1.00  0.00     0.020 C 
HETATM   14  C3  UNL     1      44.267  17.547  82.060  1.00  0.00     0.020 C 
HETATM   15  C25 UNL     1      42.500  16.064  83.511  1.00  0.00     0.009 A 
HETATM   16  C24 UNL     1      41.420  15.476  84.127  1.00  0.00     0.016 A 
ENDBRANCH   1   3
BRANCH   1  17
HETATM   17  C13 UNL     1      38.786  14.512  85.218  1.00  0.00     0.016 A 
HETATM   18  C14 UNL     1      38.050  13.984  86.255  1.00  0.00     0.016 A 
HETATM   19  C15 UNL     1      37.136  14.779  86.960  1.00  0.00     0.013 A 
HETATM   20  C16 UNL     1      36.929  16.105  86.659  1.00  0.00    -0.025 A 
HETATM   21  C17 UNL     1      36.029  16.883  87.355  1.00  0.00     0.030 A 
HETATM   22  C22 UNL     1      37.661  16.641  85.623  1.00  0.00    -0.025 A 
HETATM   23  C18 UNL     1      35.809  18.211  87.067  1.00  0.00     0.041 A 
HETATM   24  C20 UNL     1      36.544  18.755  86.024  1.00  0.00     0.019 A 
HETATM   25  C21 UNL     1      37.445  17.975  85.329  1.00  0.00     0.013 A 
HETATM   26  C23 UNL     1      38.559  15.862  84.929  1.00  0.00     0.028 A 
BRANCH  23  27
HETATM   27  C19 UNL     1      34.852  18.998  87.827  1.00  0.00     0.209 C 
HETATM   28  O2  UNL     1      34.146  18.426  88.690  1.00  0.00    -0.644 OA
HETATM   29  O3  UNL     1      34.679  20.360  87.642  1.00  0.00    -0.644 OA
ENDBRANCH  23  27
ENDBRANCH   1  17
TORSDOF 3
ENDMDL
