MODEL 1
REMARK VINA RESULT: -13.457168289      0.000      0.000
REMARK  6 active torsions:
REMARK  status: ('A' for Active; 'I' for Inactive)
REMARK    1  A    between atoms: C11_11  and  C12_12 
REMARK    2  A    between atoms: C12_12  and  O1_13 
REMARK    3  A    between atoms: C12_12  and  C13_15 
REMARK    4  A    between atoms: C13_15  and  C14_16 
REMARK    5  A    between atoms: C14_16  and  C15_17 
REMARK    6  A    between atoms: C18_20  and  C19_21 
ROOT
HETATM    1  C1  UNL     1      44.348  16.025  80.507  1.00  0.00     0.020 C 
HETATM    2  C2  UNL     1      44.781  15.094  81.595  1.00  0.00    -0.020 C 
HETATM    3  C3  UNL     1      45.848  15.717  82.469  1.00  0.00     0.020 C 
HETATM    4  C4  UNL     1      45.309  13.800  81.038  1.00  0.00     0.015 C 
HETATM    5  C5  UNL     1      44.329  13.156  80.119  1.00  0.00     0.015 C 
HETATM    6  C6  UNL     1      42.910  13.171  80.562  1.00  0.00    -0.020 C 
HETATM    7  C7  UNL     1      42.066  13.886  79.531  1.00  0.00     0.020 C 
HETATM    8  C8  UNL     1      42.329  11.762  80.673  1.00  0.00     0.020 C 
HETATM    9  C9  UNL     1      42.709  13.796  81.922  1.00  0.00    -0.042 A 
HETATM   10  C10 UNL     1      41.601  13.411  82.640  1.00  0.00     0.022 A 
HETATM   11  C11 UNL     1      41.319  13.938  83.925  1.00  0.00    -0.003 A 
HETATM   12  C22 UNL     1      42.231  14.849  84.373  1.00  0.00     0.015 A 
HETATM   13  C23 UNL     1      43.360  15.245  83.647  1.00  0.00     0.009 A 
HETATM   14  C24 UNL     1      43.592  14.718  82.429  1.00  0.00    -0.043 A 
ENDROOT
BRANCH  11  15
HETATM   15  C12 UNL     1      40.143  13.552  84.630  1.00  0.00     0.075 C 
BRANCH  15  16
HETATM   16  O1  UNL     1      39.862  12.267  84.474  1.00  0.00    -0.360 OA
ATOM     17  H1  UNL     1      40.513  11.705  84.876  1.00  0.00     0.217 HD
ENDBRANCH  15  16
BRANCH  15  18
HETATM   18  C13 UNL     1      39.211  14.214  85.454  1.00  0.00     0.038 C 
BRANCH  18  19
HETATM   19  C14 UNL     1      39.160  15.414  85.949  1.00  0.00     0.014 C 
BRANCH  19  20
HETATM   20  C15 UNL     1      37.960  16.049  86.526  1.00  0.00    -0.036 A 
HETATM   21  C16 UNL     1      37.844  17.437  86.494  1.00  0.00     0.012 A 
HETATM   22  C17 UNL     1      36.748  18.096  87.016  1.00  0.00     0.019 A 
HETATM   23  C18 UNL     1      35.710  17.401  87.599  1.00  0.00     0.040 A 
HETATM   24  C20 UNL     1      35.809  16.031  87.639  1.00  0.00     0.019 A 
HETATM   25  C21 UNL     1      36.924  15.364  87.108  1.00  0.00     0.012 A 
BRANCH  23  26
HETATM   26  C19 UNL     1      34.547  18.099  88.154  1.00  0.00     0.209 C 
HETATM   27  O2  UNL     1      33.606  17.503  88.713  1.00  0.00    -0.644 OA
HETATM   28  O3  UNL     1      34.485  19.476  88.054  1.00  0.00    -0.644 OA
ENDBRANCH  23  26
ENDBRANCH  19  20
ENDBRANCH  18  19
ENDBRANCH  15  18
ENDBRANCH  11  15
TORSDOF 6
ENDMDL
