MODEL 7
REMARK VINA RESULT: -12.044052105      1.156      1.379
REMARK  6 active torsions:
REMARK  status: ('A' for Active; 'I' for Inactive)
REMARK    1  A    between atoms: C11_11  and  C12_12 
REMARK    2  A    between atoms: C12_12  and  O1_13 
REMARK    3  A    between atoms: C12_12  and  C13_15 
REMARK    4  A    between atoms: C13_15  and  C14_16 
REMARK    5  A    between atoms: C14_16  and  C15_17 
REMARK    6  A    between atoms: C18_20  and  C19_21 
ROOT
HETATM    1  C1  UNL     1      43.939  16.305  81.639  1.00  0.00     0.020 C 
HETATM    2  C2  UNL     1      44.238  15.438  82.821  1.00  0.00    -0.020 C 
HETATM    3  C3  UNL     1      45.130  16.145  83.819  1.00  0.00     0.020 C 
HETATM    4  C4  UNL     1      44.901  14.152  82.410  1.00  0.00     0.015 C 
HETATM    5  C5  UNL     1      44.104  13.426  81.381  1.00  0.00     0.015 C 
HETATM    6  C6  UNL     1      42.634  13.387  81.601  1.00  0.00    -0.020 C 
HETATM    7  C7  UNL     1      41.930  14.020  80.423  1.00  0.00     0.020 C 
HETATM    8  C8  UNL     1      42.105  11.955  81.686  1.00  0.00     0.020 C 
HETATM    9  C9  UNL     1      42.199  14.052  82.886  1.00  0.00    -0.042 A 
HETATM   10  C10 UNL     1      41.011  13.639  83.444  1.00  0.00     0.022 A 
HETATM   11  C11 UNL     1      40.511  14.200  84.646  1.00  0.00    -0.003 A 
HETATM   12  C22 UNL     1      41.304  15.171  85.186  1.00  0.00     0.015 A 
HETATM   13  C23 UNL     1      42.512  15.595  84.624  1.00  0.00     0.009 A 
HETATM   14  C24 UNL     1      42.953  15.035  83.480  1.00  0.00    -0.043 A 
ENDROOT
BRANCH  11  15
HETATM   15  C12 UNL     1      39.259  13.782  85.180  1.00  0.00     0.075 C 
BRANCH  15  16
HETATM   16  O1  UNL     1      39.168  12.465  85.277  1.00  0.00    -0.360 OA
ATOM     17  H1  UNL     1      38.932  12.184  86.154  1.00  0.00     0.217 HD
ENDBRANCH  15  16
BRANCH  15  18
HETATM   18  C13 UNL     1      38.097  14.441  85.629  1.00  0.00     0.038 C 
BRANCH  18  19
HETATM   19  C14 UNL     1      37.649  14.744  86.810  1.00  0.00     0.014 C 
BRANCH  19  20
HETATM   20  C15 UNL     1      36.937  15.987  87.160  1.00  0.00    -0.036 A 
HETATM   21  C16 UNL     1      37.513  17.213  86.837  1.00  0.00     0.012 A 
HETATM   22  C17 UNL     1      36.901  18.416  87.135  1.00  0.00     0.019 A 
HETATM   23  C18 UNL     1      35.680  18.454  87.774  1.00  0.00     0.040 A 
HETATM   24  C20 UNL     1      35.099  17.252  88.101  1.00  0.00     0.019 A 
HETATM   25  C21 UNL     1      35.723  16.033  87.796  1.00  0.00     0.012 A 
BRANCH  23  26
HETATM   26  C19 UNL     1      35.030  19.728  88.091  1.00  0.00     0.209 C 
HETATM   27  O2  UNL     1      35.191  20.316  89.180  1.00  0.00    -0.644 OA
HETATM   28  O3  UNL     1      34.202  20.307  87.149  1.00  0.00    -0.644 OA
ENDBRANCH  23  26
ENDBRANCH  19  20
ENDBRANCH  18  19
ENDBRANCH  15  18
ENDBRANCH  11  15
TORSDOF 6
ENDMDL
