MODEL 2
REMARK VINA RESULT: -13.034698435      0.802      1.244
REMARK  6 active torsions:
REMARK  status: ('A' for Active; 'I' for Inactive)
REMARK    1  A    between atoms: C11_11  and  C12_12 
REMARK    2  A    between atoms: C12_12  and  O1_13 
REMARK    3  A    between atoms: C12_12  and  C13_15 
REMARK    4  A    between atoms: C13_15  and  C14_16 
REMARK    5  A    between atoms: C14_16  and  C15_17 
REMARK    6  A    between atoms: C18_20  and  C19_21 
ROOT
HETATM    1  C1  UNL     1      44.278  15.952  80.668  1.00  0.00     0.020 C 
HETATM    2  C2  UNL     1      44.690  15.110  81.835  1.00  0.00    -0.020 C 
HETATM    3  C3  UNL     1      45.757  15.792  82.664  1.00  0.00     0.020 C 
HETATM    4  C4  UNL     1      45.206  13.768  81.394  1.00  0.00     0.015 C 
HETATM    5  C5  UNL     1      44.227  13.061  80.522  1.00  0.00     0.015 C 
HETATM    6  C6  UNL     1      42.804  13.129  80.948  1.00  0.00    -0.020 C 
HETATM    7  C7  UNL     1      41.979  13.765  79.853  1.00  0.00     0.020 C 
HETATM    8  C8  UNL     1      42.205  11.741  81.171  1.00  0.00     0.020 C 
HETATM    9  C9  UNL     1      42.599  13.868  82.249  1.00  0.00    -0.042 A 
HETATM   10  C10 UNL     1      41.480  13.557  82.986  1.00  0.00     0.022 A 
HETATM   11  C11 UNL     1      41.193  14.194  84.219  1.00  0.00    -0.003 A 
HETATM   12  C22 UNL     1      42.113  15.128  84.598  1.00  0.00     0.015 A 
HETATM   13  C23 UNL     1      43.252  15.449  83.853  1.00  0.00     0.009 A 
HETATM   14  C24 UNL     1      43.489  14.819  82.686  1.00  0.00    -0.043 A 
ENDROOT
BRANCH  11  15
HETATM   15  C12 UNL     1      40.006  13.881  84.943  1.00  0.00     0.075 C 
BRANCH  15  16
HETATM   16  O1  UNL     1      40.064  12.687  85.511  1.00  0.00    -0.360 OA
ATOM     17  H1  UNL     1      39.721  12.693  86.397  1.00  0.00     0.217 HD
ENDBRANCH  15  16
BRANCH  15  18
HETATM   18  C13 UNL     1      38.789  14.544  85.196  1.00  0.00     0.038 C 
BRANCH  18  19
HETATM   19  C14 UNL     1      38.037  14.647  86.250  1.00  0.00     0.014 C 
BRANCH  19  20
HETATM   20  C15 UNL     1      37.330  15.868  86.679  1.00  0.00    -0.036 A 
HETATM   21  C16 UNL     1      36.283  15.762  87.592  1.00  0.00     0.012 A 
HETATM   22  C17 UNL     1      35.579  16.864  88.037  1.00  0.00     0.019 A 
HETATM   23  C18 UNL     1      35.885  18.132  87.590  1.00  0.00     0.040 A 
HETATM   24  C20 UNL     1      36.915  18.254  86.688  1.00  0.00     0.019 A 
HETATM   25  C21 UNL     1      37.628  17.132  86.238  1.00  0.00     0.012 A 
BRANCH  23  26
HETATM   26  C19 UNL     1      35.139  19.302  88.060  1.00  0.00     0.209 C 
HETATM   27  O2  UNL     1      34.482  20.036  87.295  1.00  0.00    -0.644 OA
HETATM   28  O3  UNL     1      35.161  19.611  89.406  1.00  0.00    -0.644 OA
ENDBRANCH  23  26
ENDBRANCH  19  20
ENDBRANCH  18  19
ENDBRANCH  15  18
ENDBRANCH  11  15
TORSDOF 6
ENDMDL
