MODEL 6
REMARK VINA RESULT: -12.086586240      1.162      1.631
REMARK  6 active torsions:
REMARK  status: ('A' for Active; 'I' for Inactive)
REMARK    1  A    between atoms: C11_11  and  C12_12 
REMARK    2  A    between atoms: C12_12  and  O1_13 
REMARK    3  A    between atoms: C12_12  and  C13_15 
REMARK    4  A    between atoms: C13_15  and  C14_16 
REMARK    5  A    between atoms: C14_16  and  C15_17 
REMARK    6  A    between atoms: C18_20  and  C19_21 
ROOT
HETATM    1  C1  UNL     1      44.728  15.726  80.290  1.00  0.00     0.020 C 
HETATM    2  C2  UNL     1      45.135  15.049  81.560  1.00  0.00    -0.020 C 
HETATM    3  C3  UNL     1      46.401  15.651  82.131  1.00  0.00     0.020 C 
HETATM    4  C4  UNL     1      45.352  13.574  81.356  1.00  0.00     0.015 C 
HETATM    5  C5  UNL     1      44.162  12.923  80.741  1.00  0.00     0.015 C 
HETATM    6  C6  UNL     1      42.839  13.342  81.273  1.00  0.00    -0.020 C 
HETATM    7  C7  UNL     1      42.001  13.914  80.152  1.00  0.00     0.020 C 
HETATM    8  C8  UNL     1      42.044  12.161  81.829  1.00  0.00     0.020 C 
HETATM    9  C9  UNL     1      42.933  14.333  82.410  1.00  0.00    -0.042 A 
HETATM   10  C10 UNL     1      41.881  14.385  83.295  1.00  0.00     0.022 A 
HETATM   11  C11 UNL     1      41.868  15.281  84.393  1.00  0.00    -0.003 A 
HETATM   12  C22 UNL     1      42.976  16.073  84.487  1.00  0.00     0.015 A 
HETATM   13  C23 UNL     1      44.049  16.024  83.590  1.00  0.00     0.009 A 
HETATM   14  C24 UNL     1      44.022  15.157  82.559  1.00  0.00    -0.043 A 
ENDROOT
BRANCH  11  15
HETATM   15  C12 UNL     1      40.748  15.342  85.272  1.00  0.00     0.075 C 
BRANCH  15  16
HETATM   16  O1  UNL     1      40.794  16.397  86.071  1.00  0.00    -0.360 OA
ATOM     17  H1  UNL     1      40.952  16.155  86.977  1.00  0.00     0.217 HD
ENDBRANCH  15  16
BRANCH  15  18
HETATM   18  C13 UNL     1      39.605  14.547  85.487  1.00  0.00     0.038 C 
BRANCH  18  19
HETATM   19  C14 UNL     1      38.337  14.744  85.287  1.00  0.00     0.014 C 
BRANCH  19  20
HETATM   20  C15 UNL     1      37.486  15.673  86.054  1.00  0.00    -0.036 A 
HETATM   21  C16 UNL     1      36.536  15.156  86.933  1.00  0.00     0.012 A 
HETATM   22  C17 UNL     1      35.707  15.968  87.682  1.00  0.00     0.019 A 
HETATM   23  C18 UNL     1      35.783  17.341  87.590  1.00  0.00     0.040 A 
HETATM   24  C20 UNL     1      36.714  17.867  86.727  1.00  0.00     0.019 A 
HETATM   25  C21 UNL     1      37.555  17.040  85.968  1.00  0.00     0.012 A 
BRANCH  23  26
HETATM   26  C19 UNL     1      34.903  18.204  88.384  1.00  0.00     0.209 C 
HETATM   27  O2  UNL     1      35.240  19.342  88.766  1.00  0.00    -0.644 OA
HETATM   28  O3  UNL     1      33.647  17.741  88.726  1.00  0.00    -0.644 OA
ENDBRANCH  23  26
ENDBRANCH  19  20
ENDBRANCH  18  19
ENDBRANCH  15  18
ENDBRANCH  11  15
TORSDOF 6
ENDMDL
