MODEL 10
REMARK VINA RESULT: -10.336937145      0.827      1.318
REMARK  6 active torsions:
REMARK  status: ('A' for Active; 'I' for Inactive)
REMARK    1  A    between atoms: C11_11  and  C12_12 
REMARK    2  A    between atoms: C12_12  and  O1_13 
REMARK    3  A    between atoms: C12_12  and  C13_15 
REMARK    4  A    between atoms: C13_15  and  C14_16 
REMARK    5  A    between atoms: C14_16  and  C15_17 
REMARK    6  A    between atoms: C18_20  and  C19_21 
ROOT
HETATM    1  C1  UNL     1      45.324  16.931  81.706  1.00  0.00     0.020 C 
HETATM    2  C2  UNL     1      45.510  15.617  82.396  1.00  0.00    -0.020 C 
HETATM    3  C3  UNL     1      46.553  15.705  83.490  1.00  0.00     0.020 C 
HETATM    4  C4  UNL     1      45.916  14.538  81.429  1.00  0.00     0.015 C 
HETATM    5  C5  UNL     1      44.961  14.432  80.291  1.00  0.00     0.015 C 
HETATM    6  C6  UNL     1      43.518  14.521  80.637  1.00  0.00    -0.020 C 
HETATM    7  C7  UNL     1      42.892  15.683  79.901  1.00  0.00     0.020 C 
HETATM    8  C8  UNL     1      42.745  13.279  80.193  1.00  0.00     0.020 C 
HETATM    9  C9  UNL     1      43.261  14.645  82.120  1.00  0.00    -0.042 A 
HETATM   10  C10 UNL     1      42.041  14.216  82.590  1.00  0.00     0.022 A 
HETATM   11  C11 UNL     1      41.698  14.291  83.964  1.00  0.00    -0.003 A 
HETATM   12  C22 UNL     1      42.672  14.821  84.759  1.00  0.00     0.015 A 
HETATM   13  C23 UNL     1      43.914  15.259  84.287  1.00  0.00     0.009 A 
HETATM   14  C24 UNL     1      44.201  15.169  82.974  1.00  0.00    -0.043 A 
ENDROOT
BRANCH  11  15
HETATM   15  C12 UNL     1      40.413  13.877  84.418  1.00  0.00     0.075 C 
BRANCH  15  16
HETATM   16  O1  UNL     1      40.060  12.700  83.924  1.00  0.00    -0.360 OA
ATOM     17  H1  UNL     1      40.576  11.988  84.286  1.00  0.00     0.217 HD
ENDBRANCH  15  16
BRANCH  15  18
HETATM   18  C13 UNL     1      39.432  14.423  85.269  1.00  0.00     0.038 C 
BRANCH  18  19
HETATM   19  C14 UNL     1      39.408  15.471  86.037  1.00  0.00     0.014 C 
BRANCH  19  20
HETATM   20  C15 UNL     1      38.191  16.103  86.581  1.00  0.00    -0.036 A 
HETATM   21  C16 UNL     1      37.380  15.377  87.451  1.00  0.00     0.012 A 
HETATM   22  C17 UNL     1      36.227  15.907  87.997  1.00  0.00     0.019 A 
HETATM   23  C18 UNL     1      35.824  17.191  87.701  1.00  0.00     0.040 A 
HETATM   24  C20 UNL     1      36.612  17.920  86.844  1.00  0.00     0.019 A 
HETATM   25  C21 UNL     1      37.783  17.379  86.290  1.00  0.00     0.012 A 
BRANCH  23  26
HETATM   26  C19 UNL     1      34.601  17.754  88.279  1.00  0.00     0.209 C 
HETATM   27  O2  UNL     1      33.487  17.204  88.170  1.00  0.00    -0.644 OA
HETATM   28  O3  UNL     1      34.679  18.945  88.975  1.00  0.00    -0.644 OA
ENDBRANCH  23  26
ENDBRANCH  19  20
ENDBRANCH  18  19
ENDBRANCH  15  18
ENDBRANCH  11  15
TORSDOF 6
ENDMDL
