MODEL 2
REMARK VINA RESULT: -14.057176915      0.703      1.533
REMARK  4 active torsions:
REMARK  status: ('A' for Active; 'I' for Inactive)
REMARK    1  A    between atoms: C11_11  and  C12_12 
REMARK    2  A    between atoms: C12_12  and  C13_17 
REMARK    3  A    between atoms: N1_13  and  O1_15 
REMARK    4  A    between atoms: C18_22  and  C19_23 
ROOT
HETATM    1  C12 UNL     1      40.006  13.779  84.565  1.00  0.00     0.074 C 
HETATM    2  N1  UNL     1      39.943  12.501  84.405  1.00  0.00    -0.268 N 
ATOM      3  H1  UNL     1      40.672  12.067  83.839  1.00  0.00     0.194 HD
ENDROOT
BRANCH   1   4
HETATM    4  C11 UNL     1      41.132  14.437  83.900  1.00  0.00    -0.006 A 
HETATM    5  C10 UNL     1      41.668  13.859  82.743  1.00  0.00     0.022 A 
HETATM    6  C9  UNL     1      42.767  14.364  82.086  1.00  0.00    -0.042 A 
HETATM    7  C6  UNL     1      43.189  13.602  80.863  1.00  0.00    -0.020 C 
HETATM    8  C26 UNL     1      43.410  15.489  82.542  1.00  0.00    -0.043 A 
HETATM    9  C5  UNL     1      44.604  13.972  80.529  1.00  0.00     0.015 C 
HETATM   10  C7  UNL     1      43.157  12.131  81.236  1.00  0.00     0.020 C 
HETATM   11  C8  UNL     1      42.254  13.879  79.711  1.00  0.00     0.020 C 
HETATM   12  C4  UNL     1      44.691  15.498  80.450  1.00  0.00     0.015 C 
HETATM   13  C2  UNL     1      44.596  16.046  81.844  1.00  0.00    -0.020 C 
HETATM   14  C1  UNL     1      44.484  17.565  81.792  1.00  0.00     0.020 C 
HETATM   15  C3  UNL     1      45.883  15.685  82.564  1.00  0.00     0.020 C 
HETATM   16  C25 UNL     1      42.891  16.064  83.679  1.00  0.00     0.009 A 
HETATM   17  C24 UNL     1      41.774  15.555  84.353  1.00  0.00     0.014 A 
ENDBRANCH   1   4
BRANCH   1  18
HETATM   18  C13 UNL     1      39.043  14.492  85.384  1.00  0.00    -0.006 A 
HETATM   19  C14 UNL     1      38.284  13.907  86.384  1.00  0.00     0.014 A 
HETATM   20  C15 UNL     1      37.306  14.576  87.088  1.00  0.00     0.013 A 
HETATM   21  C16 UNL     1      37.041  15.902  86.814  1.00  0.00    -0.025 A 
HETATM   22  C17 UNL     1      36.045  16.567  87.539  1.00  0.00     0.030 A 
HETATM   23  C22 UNL     1      37.759  16.526  85.842  1.00  0.00    -0.025 A 
HETATM   24  C18 UNL     1      35.785  17.885  87.263  1.00  0.00     0.041 A 
HETATM   25  C20 UNL     1      36.524  18.493  86.277  1.00  0.00     0.019 A 
HETATM   26  C21 UNL     1      37.501  17.856  85.560  1.00  0.00     0.013 A 
HETATM   27  C23 UNL     1      38.741  15.822  85.145  1.00  0.00     0.026 A 
BRANCH  24  28
HETATM   28  C19 UNL     1      34.749  18.640  87.993  1.00  0.00     0.209 C 
HETATM   29  O2  UNL     1      34.661  19.877  87.789  1.00  0.00    -0.644 OA
HETATM   30  O3  UNL     1      33.905  18.010  88.870  1.00  0.00    -0.644 OA
ENDBRANCH  24  28
ENDBRANCH   1  18
BRANCH   2  31
HETATM   31  O1  UNL     1      38.997  11.685  84.920  1.00  0.00    -0.289 OA
ATOM     32  H1  UNL     1      38.059  11.768  84.788  1.00  0.00     0.244 HD
ENDBRANCH   2  31
TORSDOF 4
ENDMDL
