MODEL 1
REMARK VINA RESULT: -16.040689349      0.000      0.000
REMARK  4 active torsions:
REMARK  status: ('A' for Active; 'I' for Inactive)
REMARK    1  A    between atoms: C11_11  and  C12_12 
REMARK    2  A    between atoms: C12_12  and  C13_17 
REMARK    3  A    between atoms: N1_13  and  O1_15 
REMARK    4  A    between atoms: C18_22  and  C19_23 
ROOT
HETATM    1  C12 UNL     1      40.154  13.978  84.668  1.00  0.00     0.074 C 
HETATM    2  N1  UNL     1      40.079  12.709  84.889  1.00  0.00    -0.268 N 
ATOM      3  H1  UNL     1      40.839  12.130  84.532  1.00  0.00     0.194 HD
ENDROOT
BRANCH   1   4
HETATM    4  C11 UNL     1      41.336  14.413  83.923  1.00  0.00    -0.006 A 
HETATM    5  C10 UNL     1      41.693  13.727  82.756  1.00  0.00     0.022 A 
HETATM    6  C9  UNL     1      42.822  14.017  82.026  1.00  0.00    -0.042 A 
HETATM    7  C6  UNL     1      43.031  13.170  80.804  1.00  0.00    -0.020 C 
HETATM    8  C26 UNL     1      43.679  15.020  82.412  1.00  0.00    -0.043 A 
HETATM    9  C5  UNL     1      44.467  13.278  80.382  1.00  0.00     0.015 C 
HETATM   10  C7  UNL     1      42.764  11.735  81.221  1.00  0.00     0.020 C 
HETATM   11  C8  UNL     1      42.092  13.586  79.698  1.00  0.00     0.020 C 
HETATM   12  C4  UNL     1      44.815  14.763  80.254  1.00  0.00     0.015 C 
HETATM   13  C2  UNL     1      44.901  15.345  81.634  1.00  0.00    -0.020 C 
HETATM   14  C1  UNL     1      45.053  16.859  81.543  1.00  0.00     0.020 C 
HETATM   15  C3  UNL     1      46.145  14.777  82.292  1.00  0.00     0.020 C 
HETATM   16  C25 UNL     1      43.336  15.700  83.558  1.00  0.00     0.009 A 
HETATM   17  C24 UNL     1      42.190  15.409  84.307  1.00  0.00     0.014 A 
ENDBRANCH   1   4
BRANCH   1  18
HETATM   18  C13 UNL     1      39.148  14.897  85.167  1.00  0.00    -0.006 A 
HETATM   19  C14 UNL     1      38.998  16.202  84.730  1.00  0.00     0.014 A 
HETATM   20  C15 UNL     1      38.100  17.092  85.282  1.00  0.00     0.013 A 
HETATM   21  C16 UNL     1      37.288  16.698  86.325  1.00  0.00    -0.025 A 
HETATM   22  C17 UNL     1      36.382  17.612  86.873  1.00  0.00     0.030 A 
HETATM   23  C22 UNL     1      37.394  15.425  86.792  1.00  0.00    -0.025 A 
HETATM   24  C18 UNL     1      35.576  17.217  87.909  1.00  0.00     0.041 A 
HETATM   25  C20 UNL     1      35.701  15.925  88.364  1.00  0.00     0.019 A 
HETATM   26  C21 UNL     1      36.582  15.019  87.838  1.00  0.00     0.013 A 
HETATM   27  C23 UNL     1      38.312  14.548  86.215  1.00  0.00     0.026 A 
BRANCH  24  28
HETATM   28  C19 UNL     1      34.601  18.135  88.529  1.00  0.00     0.209 C 
HETATM   29  O2  UNL     1      33.458  17.690  88.804  1.00  0.00    -0.644 OA
HETATM   30  O3  UNL     1      34.933  19.437  88.798  1.00  0.00    -0.644 OA
ENDBRANCH  24  28
ENDBRANCH   1  18
BRANCH   2  31
HETATM   31  O1  UNL     1      39.084  12.078  85.552  1.00  0.00    -0.289 OA
ATOM     32  H1  UNL     1      38.769  11.200  85.375  1.00  0.00     0.244 HD
ENDBRANCH   2  31
TORSDOF 4
ENDMDL
