MODEL 15
REMARK VINA RESULT: -6.479211085      1.780      3.826
REMARK  14 active torsions:
REMARK  status: ('A' for Active; 'I' for Inactive)
REMARK    1  A    between atoms: C2_2  and  C3_3 
REMARK    2  A    between atoms: C4_4  and  C5_5 
REMARK    3  A    between atoms: C5_5  and  C6_6 
REMARK    4  A    between atoms: C7_7  and  C8_8 
REMARK    5  A    between atoms: C8_8  and  C9_9 
REMARK    6  A    between atoms: C10_10  and  C11_11 
REMARK    7  A    between atoms: C11_11  and  C12_12 
REMARK    8  A    between atoms: C13_13  and  C14_14 
REMARK    9  A    between atoms: C14_14  and  C15_15 
REMARK   10  A    between atoms: C16_16  and  C17_17 
REMARK   11  A    between atoms: C17_17  and  C18_18 
REMARK   12  A    between atoms: C19_19  and  C20_20 
REMARK   13  A    between atoms: C20_20  and  C21_21 
REMARK   14  A    between atoms: C21_21  and  C22_22 
ROOT
HETATM    1  C12 UNL     1       5.333   9.223   1.818  1.00  0.00    -0.027 C 
HETATM    2  C13 UNL     1       5.218   9.431   0.530  1.00  0.00    -0.027 C 
ENDROOT
BRANCH   1   3
HETATM    3  C11 UNL     1       5.786  10.259   2.781  1.00  0.00     0.053 C 
BRANCH   3   4
HETATM    4  C10 UNL     1       4.639  10.700   3.591  1.00  0.00    -0.027 C 
HETATM    5  C9  UNL     1       3.865  11.679   3.176  1.00  0.00    -0.027 C 
BRANCH   5   6
HETATM    6  C8  UNL     1       2.688  12.163   3.963  1.00  0.00     0.053 C 
BRANCH   6   7
HETATM    7  C7  UNL     1       2.026  11.042   4.640  1.00  0.00    -0.027 C 
HETATM    8  C6  UNL     1       1.049  10.359   4.126  1.00  0.00    -0.027 C 
BRANCH   8   9
HETATM    9  C5  UNL     1       0.396  10.515   2.825  1.00  0.00     0.053 C 
BRANCH   9  10
HETATM   10  C4  UNL     1       1.079   9.739   1.758  1.00  0.00    -0.027 C 
HETATM   11  C3  UNL     1       1.561  10.249   0.655  1.00  0.00    -0.031 C 
BRANCH  11  12
HETATM   12  C2  UNL     1       1.546  11.652   0.226  1.00  0.00     0.022 C 
HETATM   13  C1  UNL     1       2.905  12.082  -0.291  1.00  0.00     0.009 C 
ENDBRANCH  11  12
ENDBRANCH   9  10
ENDBRANCH   8   9
ENDBRANCH   6   7
ENDBRANCH   5   6
ENDBRANCH   3   4
ENDBRANCH   1   3
BRANCH   2  14
HETATM   14  C14 UNL     1       4.760   8.377  -0.420  1.00  0.00     0.053 C 
BRANCH  14  15
HETATM   15  C15 UNL     1       5.931   7.963  -1.222  1.00  0.00    -0.027 C 
HETATM   16  C16 UNL     1       6.722   6.965  -0.956  1.00  0.00    -0.027 C 
BRANCH  16  17
HETATM   17  C17 UNL     1       6.582   6.069   0.205  1.00  0.00     0.053 C 
BRANCH  17  18
HETATM   18  C18 UNL     1       7.800   6.169   1.070  1.00  0.00    -0.027 C 
HETATM   19  C19 UNL     1       8.302   7.342   1.426  1.00  0.00    -0.030 C 
BRANCH  19  20
HETATM   20  C20 UNL     1       9.510   7.376   2.283  1.00  0.00     0.037 C 
BRANCH  20  21
HETATM   21  C21 UNL     1       9.228   6.887   3.664  1.00  0.00     0.117 C 
BRANCH  21  22
HETATM   22  C22 UNL     1       8.461   7.918   4.394  1.00  0.00     0.172 C 
HETATM   23  O1  UNL     1       8.959   9.026   4.629  1.00  0.00    -0.648 OA
HETATM   24  O2  UNL     1       7.172   7.627   4.815  1.00  0.00    -0.648 OA
ENDBRANCH  21  22
ENDBRANCH  20  21
ENDBRANCH  19  20
ENDBRANCH  17  18
ENDBRANCH  16  17
ENDBRANCH  14  15
ENDBRANCH   2  14
TORSDOF 14
ENDMDL
