MODEL 5
REMARK VINA RESULT: -6.651828010      2.281      5.057
REMARK  14 active torsions:
REMARK  status: ('A' for Active; 'I' for Inactive)
REMARK    1  A    between atoms: C2_2  and  C3_3 
REMARK    2  A    between atoms: C4_4  and  C5_5 
REMARK    3  A    between atoms: C5_5  and  C6_6 
REMARK    4  A    between atoms: C7_7  and  C8_8 
REMARK    5  A    between atoms: C8_8  and  C9_9 
REMARK    6  A    between atoms: C10_10  and  C11_11 
REMARK    7  A    between atoms: C11_11  and  C12_12 
REMARK    8  A    between atoms: C13_13  and  C14_14 
REMARK    9  A    between atoms: C14_14  and  C15_15 
REMARK   10  A    between atoms: C16_16  and  C17_17 
REMARK   11  A    between atoms: C17_17  and  C18_18 
REMARK   12  A    between atoms: C19_19  and  C20_20 
REMARK   13  A    between atoms: C20_20  and  C21_21 
REMARK   14  A    between atoms: C21_21  and  C22_22 
ROOT
HETATM    1  C12 UNL     1       4.286   6.509  -1.729  1.00  0.00    -0.027 C 
HETATM    2  C13 UNL     1       3.626   5.557  -1.118  1.00  0.00    -0.027 C 
ENDROOT
BRANCH   1   3
HETATM    3  C11 UNL     1       5.719   6.405  -2.106  1.00  0.00     0.053 C 
BRANCH   3   4
HETATM    4  C10 UNL     1       6.375   7.701  -1.872  1.00  0.00    -0.027 C 
HETATM    5  C9  UNL     1       5.685   8.729  -1.427  1.00  0.00    -0.027 C 
BRANCH   5   6
HETATM    6  C8  UNL     1       6.306  10.067  -1.174  1.00  0.00     0.053 C 
BRANCH   6   7
HETATM    7  C7  UNL     1       7.745  10.027  -1.456  1.00  0.00    -0.027 C 
HETATM    8  C6  UNL     1       8.662   9.928  -0.542  1.00  0.00    -0.027 C 
BRANCH   8   9
HETATM    9  C5  UNL     1       8.512   9.834   0.911  1.00  0.00     0.053 C 
BRANCH   9  10
HETATM   10  C4  UNL     1       8.923   8.505   1.433  1.00  0.00    -0.027 C 
HETATM   11  C3  UNL     1       8.102   7.590   1.877  1.00  0.00    -0.031 C 
BRANCH  11  12
HETATM   12  C2  UNL     1       6.639   7.654   1.962  1.00  0.00     0.022 C 
HETATM   13  C1  UNL     1       6.010   6.324   1.595  1.00  0.00     0.009 C 
ENDBRANCH  11  12
ENDBRANCH   9  10
ENDBRANCH   8   9
ENDBRANCH   6   7
ENDBRANCH   5   6
ENDBRANCH   3   4
ENDBRANCH   1   3
BRANCH   2  14
HETATM   14  C14 UNL     1       2.187   5.681  -0.748  1.00  0.00     0.053 C 
BRANCH  14  15
HETATM   15  C15 UNL     1       2.126   6.124   0.661  1.00  0.00    -0.027 C 
HETATM   16  C16 UNL     1       1.922   7.343   1.069  1.00  0.00    -0.027 C 
BRANCH  16  17
HETATM   17  C17 UNL     1       1.714   8.501   0.182  1.00  0.00     0.053 C 
BRANCH  17  18
HETATM   18  C18 UNL     1       2.635   9.612   0.579  1.00  0.00    -0.027 C 
HETATM   19  C19 UNL     1       3.534   9.456   1.539  1.00  0.00    -0.030 C 
BRANCH  19  20
HETATM   20  C20 UNL     1       4.418  10.594   1.887  1.00  0.00     0.037 C 
BRANCH  20  21
HETATM   21  C21 UNL     1       4.569  10.751   3.363  1.00  0.00     0.117 C 
BRANCH  21  22
HETATM   22  C22 UNL     1       3.525  11.670   3.861  1.00  0.00     0.172 C 
HETATM   23  O1  UNL     1       3.064  11.543   5.002  1.00  0.00    -0.648 OA
HETATM   24  O2  UNL     1       3.065  12.682   3.030  1.00  0.00    -0.648 OA
ENDBRANCH  21  22
ENDBRANCH  20  21
ENDBRANCH  19  20
ENDBRANCH  17  18
ENDBRANCH  16  17
ENDBRANCH  14  15
ENDBRANCH   2  14
TORSDOF 14
ENDMDL
