MODEL 6
REMARK VINA RESULT: -6.626547750      2.068      6.016
REMARK  14 active torsions:
REMARK  status: ('A' for Active; 'I' for Inactive)
REMARK    1  A    between atoms: C2_2  and  C3_3 
REMARK    2  A    between atoms: C4_4  and  C5_5 
REMARK    3  A    between atoms: C5_5  and  C6_6 
REMARK    4  A    between atoms: C7_7  and  C8_8 
REMARK    5  A    between atoms: C8_8  and  C9_9 
REMARK    6  A    between atoms: C10_10  and  C11_11 
REMARK    7  A    between atoms: C11_11  and  C12_12 
REMARK    8  A    between atoms: C13_13  and  C14_14 
REMARK    9  A    between atoms: C14_14  and  C15_15 
REMARK   10  A    between atoms: C16_16  and  C17_17 
REMARK   11  A    between atoms: C17_17  and  C18_18 
REMARK   12  A    between atoms: C19_19  and  C20_20 
REMARK   13  A    between atoms: C20_20  and  C21_21 
REMARK   14  A    between atoms: C21_21  and  C22_22 
ROOT
HETATM    1  C12 UNL     1       0.707   8.496   2.152  1.00  0.00    -0.027 C 
HETATM    2  C13 UNL     1      -0.202   8.919   2.996  1.00  0.00    -0.027 C 
ENDROOT
BRANCH   1   3
HETATM    3  C11 UNL     1       0.415   8.139   0.741  1.00  0.00     0.053 C 
BRANCH   3   4
HETATM    4  C10 UNL     1       1.641   7.622   0.111  1.00  0.00    -0.027 C 
HETATM    5  C9  UNL     1       2.305   6.627   0.658  1.00  0.00    -0.027 C 
BRANCH   5   6
HETATM    6  C8  UNL     1       3.555   6.066   0.057  1.00  0.00     0.053 C 
BRANCH   6   7
HETATM    7  C7  UNL     1       3.524   6.190  -1.405  1.00  0.00    -0.027 C 
HETATM    8  C6  UNL     1       4.577   6.377  -2.140  1.00  0.00    -0.027 C 
BRANCH   8   9
HETATM    9  C5  UNL     1       5.977   6.503  -1.734  1.00  0.00     0.053 C 
BRANCH   9  10
HETATM   10  C4  UNL     1       6.366   7.916  -1.487  1.00  0.00    -0.027 C 
HETATM   11  C3  UNL     1       7.022   8.338  -0.439  1.00  0.00    -0.031 C 
BRANCH  11  12
HETATM   12  C2  UNL     1       7.513   7.551   0.698  1.00  0.00     0.022 C 
HETATM   13  C1  UNL     1       6.503   7.532   1.829  1.00  0.00     0.009 C 
ENDBRANCH  11  12
ENDBRANCH   9  10
ENDBRANCH   8   9
ENDBRANCH   6   7
ENDBRANCH   5   6
ENDBRANCH   3   4
ENDBRANCH   1   3
BRANCH   2  14
HETATM   14  C14 UNL     1       0.111   9.274   4.410  1.00  0.00     0.053 C 
BRANCH  14  15
HETATM   15  C15 UNL     1       0.243  10.745   4.480  1.00  0.00    -0.027 C 
HETATM   16  C16 UNL     1       1.360  11.411   4.468  1.00  0.00    -0.027 C 
BRANCH  16  17
HETATM   17  C17 UNL     1       2.700  10.803   4.380  1.00  0.00     0.053 C 
BRANCH  17  18
HETATM   18  C18 UNL     1       3.287  11.068   3.029  1.00  0.00    -0.027 C 
HETATM   19  C19 UNL     1       3.734  10.084   2.264  1.00  0.00    -0.030 C 
BRANCH  19  20
HETATM   20  C20 UNL     1       4.305  10.410   0.936  1.00  0.00     0.037 C 
BRANCH  20  21
HETATM   21  C21 UNL     1       5.448  11.364   1.038  1.00  0.00     0.117 C 
BRANCH  21  22
HETATM   22  C22 UNL     1       5.122  12.592   0.286  1.00  0.00     0.172 C 
HETATM   23  O1  UNL     1       3.958  12.828  -0.062  1.00  0.00    -0.648 OA
HETATM   24  O2  UNL     1       6.139  13.482  -0.028  1.00  0.00    -0.648 OA
ENDBRANCH  21  22
ENDBRANCH  20  21
ENDBRANCH  19  20
ENDBRANCH  17  18
ENDBRANCH  16  17
ENDBRANCH  14  15
ENDBRANCH   2  14
TORSDOF 14
ENDMDL
