MODEL 2
REMARK VINA RESULT: -6.246269071      3.179      5.453
REMARK  7 active torsions:
REMARK  status: ('A' for Active; 'I' for Inactive)
REMARK    1  A    between atoms: O1_1  and  C1_3 
REMARK    2  A    between atoms: C2_4  and  O2_5 
REMARK    3  A    between atoms: C4_9  and  O4_10 
REMARK    4  A    between atoms: O4_10  and  C5_11 
REMARK    5  A    between atoms: C8_17  and  O5_18 
REMARK    6  A    between atoms: C9_20  and  O6_21 
REMARK    7  A    between atoms: C10_23  and  O7_24 
ROOT
HETATM    1  O4  UNL     1      17.188  67.438  34.693  1.00  0.00    -0.349 OA
ENDROOT
BRANCH   1   2
HETATM    2  C4  UNL     1      17.926  67.809  35.757  1.00  0.00     0.291 C 
HETATM    3  O3  UNL     1      19.289  67.954  35.411  1.00  0.00    -0.356 OA
HETATM    4  C3  UNL     1      19.954  68.547  36.495  1.00  0.00     0.205 C 
HETATM    5  C2  UNL     1      19.845  67.706  37.747  1.00  0.00     0.173 C 
HETATM    6  C1  UNL     1      19.213  66.382  37.338  1.00  0.00     0.182 C 
HETATM    7  C10 UNL     1      17.822  66.727  36.815  1.00  0.00     0.204 C 
BRANCH   5   8
HETATM    8  O2  UNL     1      18.948  68.284  38.666  1.00  0.00    -0.391 OA
ATOM      9  H2  UNL     1      19.336  68.146  39.522  1.00  0.00     0.210 HD
ENDBRANCH   5   8
BRANCH   6  10
HETATM   10  O1  UNL     1      19.982  65.894  36.273  1.00  0.00    -0.390 OA
ATOM     11  H1  UNL     1      19.479  65.187  35.885  1.00  0.00     0.210 HD
ENDBRANCH   6  10
BRANCH   7  12
HETATM   12  O7  UNL     1      17.043  67.104  37.884  1.00  0.00    -0.388 OA
ATOM     13  H7  UNL     1      16.134  67.090  37.608  1.00  0.00     0.210 HD
ENDBRANCH   7  12
ENDBRANCH   1   2
BRANCH   1  14
HETATM   14  C5  UNL     1      16.110  68.185  34.345  1.00  0.00     0.181 C 
HETATM   15  C6  UNL     1      15.024  67.507  33.605  1.00  0.00     0.266 C 
HETATM   16  N1  UNL     1      14.985  67.803  32.195  1.00  0.00    -0.070 N 
HETATM   17  C7  UNL     1      16.282  67.864  31.578  1.00  0.00     0.266 C 
ATOM     18  H12 UNL     1      14.385  67.139  31.705  1.00  0.00     0.277 HD
ATOM     19  H11 UNL     1      14.465  68.663  32.023  1.00  0.00     0.277 HD
HETATM   20  C8  UNL     1      17.193  68.881  32.212  1.00  0.00     0.175 C 
HETATM   21  C9  UNL     1      16.638  69.358  33.507  1.00  0.00     0.179 C 
BRANCH  20  22
HETATM   22  O5  UNL     1      18.458  68.346  32.400  1.00  0.00    -0.391 OA
ATOM     23  H5  UNL     1      18.395  67.454  32.721  1.00  0.00     0.210 HD
ENDBRANCH  20  22
BRANCH  21  24
HETATM   24  O6  UNL     1      15.635  70.285  33.411  1.00  0.00    -0.390 OA
ATOM     25  H6  UNL     1      14.868  69.846  33.063  1.00  0.00     0.210 HD
ENDBRANCH  21  24
ENDBRANCH   1  14
TORSDOF 7
ENDMDL
