MODEL 4
REMARK VINA RESULT: -6.134426934      3.441      5.533
REMARK  7 active torsions:
REMARK  status: ('A' for Active; 'I' for Inactive)
REMARK    1  A    between atoms: O1_1  and  C1_3 
REMARK    2  A    between atoms: C2_4  and  O2_5 
REMARK    3  A    between atoms: C4_9  and  O4_10 
REMARK    4  A    between atoms: O4_10  and  C5_11 
REMARK    5  A    between atoms: C8_17  and  O5_18 
REMARK    6  A    between atoms: C9_20  and  O6_21 
REMARK    7  A    between atoms: C10_23  and  O7_24 
ROOT
HETATM    1  O4  UNL     1      17.747  68.281  35.012  1.00  0.00    -0.349 OA
ENDROOT
BRANCH   1   2
HETATM    2  C4  UNL     1      16.832  68.173  34.029  1.00  0.00     0.291 C 
HETATM    3  O3  UNL     1      17.415  67.690  32.836  1.00  0.00    -0.356 OA
HETATM    4  C3  UNL     1      16.381  67.395  31.933  1.00  0.00     0.205 C 
HETATM    5  C2  UNL     1      15.547  68.617  31.620  1.00  0.00     0.173 C 
HETATM    6  C1  UNL     1      16.257  69.811  32.247  1.00  0.00     0.182 C 
HETATM    7  C10 UNL     1      16.263  69.551  33.750  1.00  0.00     0.204 C 
BRANCH   5   8
HETATM    8  O2  UNL     1      14.293  68.547  32.256  1.00  0.00    -0.391 OA
ATOM      9  H2  UNL     1      14.425  67.993  33.017  1.00  0.00     0.210 HD
ENDBRANCH   5   8
BRANCH   6  10
HETATM   10  O1  UNL     1      17.577  69.769  31.780  1.00  0.00    -0.390 OA
ATOM     11  H1  UNL     1      17.964  70.608  32.004  1.00  0.00     0.210 HD
ENDBRANCH   6  10
BRANCH   7  12
HETATM   12  O7  UNL     1      14.978  69.698  34.216  1.00  0.00    -0.388 OA
ATOM     13  H7  UNL     1      14.666  70.558  33.959  1.00  0.00     0.210 HD
ENDBRANCH   7  12
ENDBRANCH   1   2
BRANCH   1  14
HETATM   14  C5  UNL     1      18.157  67.161  35.658  1.00  0.00     0.181 C 
HETATM   15  C6  UNL     1      17.656  66.948  37.033  1.00  0.00     0.266 C 
HETATM   16  N1  UNL     1      18.617  67.224  38.070  1.00  0.00    -0.070 N 
HETATM   17  C7  UNL     1      19.421  68.390  37.821  1.00  0.00     0.266 C 
ATOM     18  H12 UNL     1      18.157  67.293  38.978  1.00  0.00     0.277 HD
ATOM     19  H11 UNL     1      19.208  66.410  38.239  1.00  0.00     0.277 HD
HETATM   20  C8  UNL     1      20.185  68.318  36.527  1.00  0.00     0.175 C 
HETATM   21  C9  UNL     1      19.692  67.200  35.680  1.00  0.00     0.179 C 
BRANCH  20  22
HETATM   22  O5  UNL     1      20.088  69.519  35.841  1.00  0.00    -0.391 OA
ATOM     23  H5  UNL     1      20.791  70.104  36.096  1.00  0.00     0.210 HD
ENDBRANCH  20  22
BRANCH  21  24
HETATM   24  O6  UNL     1      20.135  65.954  36.034  1.00  0.00    -0.390 OA
ATOM     25  H6  UNL     1      19.888  65.352  35.342  1.00  0.00     0.210 HD
ENDBRANCH  21  24
ENDBRANCH   1  14
TORSDOF 7
ENDMDL
