MODEL 3
REMARK VINA RESULT: -6.135099169      3.215      5.165
REMARK  7 active torsions:
REMARK  status: ('A' for Active; 'I' for Inactive)
REMARK    1  A    between atoms: O1_1  and  C1_3 
REMARK    2  A    between atoms: C2_4  and  O2_5 
REMARK    3  A    between atoms: C4_9  and  O4_10 
REMARK    4  A    between atoms: O4_10  and  C5_11 
REMARK    5  A    between atoms: C8_17  and  O5_18 
REMARK    6  A    between atoms: C9_20  and  O6_21 
REMARK    7  A    between atoms: C10_23  and  O7_24 
ROOT
HETATM    1  O4  UNL     1      17.357  68.389  34.812  1.00  0.00    -0.349 OA
ENDROOT
BRANCH   1   2
HETATM    2  C4  UNL     1      17.927  67.401  35.530  1.00  0.00     0.291 C 
HETATM    3  O3  UNL     1      17.206  67.150  36.720  1.00  0.00    -0.356 OA
HETATM    4  C3  UNL     1      17.718  65.979  37.301  1.00  0.00     0.205 C 
HETATM    5  C2  UNL     1      19.188  66.114  37.629  1.00  0.00     0.173 C 
HETATM    6  C1  UNL     1      19.562  67.573  37.397  1.00  0.00     0.182 C 
HETATM    7  C10 UNL     1      19.329  67.833  35.912  1.00  0.00     0.204 C 
BRANCH   5   8
HETATM    8  O2  UNL     1      19.975  65.375  36.725  1.00  0.00    -0.391 OA
ATOM      9  H2  UNL     1      19.510  65.407  35.897  1.00  0.00     0.210 HD
ENDBRANCH   5   8
BRANCH   6  10
HETATM   10  O1  UNL     1      18.644  68.333  38.133  1.00  0.00    -0.390 OA
ATOM     11  H1  UNL     1      18.351  69.028  37.555  1.00  0.00     0.210 HD
ENDBRANCH   6  10
BRANCH   7  12
HETATM   12  O7  UNL     1      20.301  67.167  35.202  1.00  0.00    -0.388 OA
ATOM     13  H7  UNL     1      20.475  67.656  34.406  1.00  0.00     0.210 HD
ENDBRANCH   7  12
ENDBRANCH   1   2
BRANCH   1  14
HETATM   14  C5  UNL     1      16.945  68.131  33.546  1.00  0.00     0.181 C 
HETATM   15  C6  UNL     1      16.952  69.257  32.587  1.00  0.00     0.266 C 
HETATM   16  N1  UNL     1      15.652  69.810  32.302  1.00  0.00    -0.070 N 
HETATM   17  C7  UNL     1      14.801  69.916  33.456  1.00  0.00     0.266 C 
ATOM     18  H12 UNL     1      15.741  70.713  31.836  1.00  0.00     0.277 HD
ATOM     19  H11 UNL     1      15.190  69.280  31.563  1.00  0.00     0.277 HD
HETATM   20  C8  UNL     1      14.572  68.600  34.147  1.00  0.00     0.175 C 
HETATM   21  C9  UNL     1      15.521  67.567  33.652  1.00  0.00     0.179 C 
BRANCH  20  22
HETATM   22  O5  UNL     1      14.699  68.747  35.520  1.00  0.00    -0.391 OA
ATOM     23  H5  UNL     1      13.908  68.456  35.958  1.00  0.00     0.210 HD
ENDBRANCH  20  22
BRANCH  21  24
HETATM   24  O6  UNL     1      15.203  67.010  32.442  1.00  0.00    -0.390 OA
ATOM     25  H6  UNL     1      15.453  66.094  32.471  1.00  0.00     0.210 HD
ENDBRANCH  21  24
ENDBRANCH   1  14
TORSDOF 7
ENDMDL
