MODEL 4
REMARK VINA RESULT: -6.263977681      4.206      5.533
REMARK  6 active torsions:
REMARK  status: ('A' for Active; 'I' for Inactive)
REMARK    1  A    between atoms: O1_1  and  C1_3 
REMARK    2  A    between atoms: C2_4  and  O2_5 
REMARK    3  A    between atoms: C4_9  and  O4_10 
REMARK    4  A    between atoms: O4_10  and  C5_11 
REMARK    5  A    between atoms: C9_18  and  O5_19 
REMARK    6  A    between atoms: C10_21  and  O6_22 
ROOT
HETATM    1  C1  UNL     1     -64.266  19.539  56.092  1.00  0.00     0.182 C 
HETATM    2  C2  UNL     1     -64.160  18.218  56.831  1.00  0.00     0.173 C 
HETATM    3  C3  UNL     1     -63.450  17.259  55.867  1.00  0.00     0.205 C 
HETATM    4  O3  UNL     1     -64.340  17.024  54.831  1.00  0.00    -0.356 OA
HETATM    5  C4  UNL     1     -64.534  18.139  54.022  1.00  0.00     0.291 C 
HETATM    6  C10 UNL     1     -64.965  19.357  54.791  1.00  0.00     0.204 C 
ENDROOT
BRANCH   5   7
HETATM    7  O4  UNL     1     -65.585  17.820  53.153  1.00  0.00    -0.351 OA
BRANCH   7   8
HETATM    8  C5  UNL     1     -65.137  16.979  52.111  1.00  0.00     0.156 C 
HETATM    9  C6  UNL     1     -65.141  17.791  50.865  1.00  0.00     0.062 C 
HETATM   10  C7  UNL     1     -65.571  17.069  49.638  1.00  0.00     0.235 C 
HETATM   11  N1  UNL     1     -65.238  15.650  49.828  1.00  0.00    -0.073 N 
HETATM   12  C8  UNL     1     -66.213  15.146  50.769  1.00  0.00     0.266 C 
ATOM     13  H12 UNL     1     -65.195  15.119  48.958  1.00  0.00     0.277 HD
ATOM     14  H11 UNL     1     -64.272  15.489  50.113  1.00  0.00     0.277 HD
HETATM   15  C9  UNL     1     -66.025  15.786  52.096  1.00  0.00     0.172 C 
BRANCH  15  16
HETATM   16  O5  UNL     1     -65.476  14.809  52.961  1.00  0.00    -0.391 OA
ATOM     17  H5  UNL     1     -66.141  14.558  53.590  1.00  0.00     0.210 HD
ENDBRANCH  15  16
ENDBRANCH   7   8
ENDBRANCH   5   7
BRANCH   6  18
HETATM   18  O6  UNL     1     -64.752  20.477  53.988  1.00  0.00    -0.388 OA
ATOM     19  H6  UNL     1     -64.725  21.256  54.531  1.00  0.00     0.210 HD
ENDBRANCH   6  18
BRANCH   1  20
HETATM   20  O1  UNL     1     -65.041  20.389  56.901  1.00  0.00    -0.390 OA
ATOM     21  H1  UNL     1     -65.745  19.857  57.256  1.00  0.00     0.210 HD
ENDBRANCH   1  20
BRANCH   2  22
HETATM   22  O2  UNL     1     -63.485  18.352  58.020  1.00  0.00    -0.391 OA
ATOM     23  H2  UNL     1     -63.963  18.894  58.638  1.00  0.00     0.210 HD
ENDBRANCH   2  22
TORSDOF 6
ENDMDL
