MODEL 1
REMARK VINA RESULT: -6.578181212      0.000      0.000
REMARK  6 active torsions:
REMARK  status: ('A' for Active; 'I' for Inactive)
REMARK    1  A    between atoms: O1_1  and  C1_3 
REMARK    2  A    between atoms: C2_4  and  O2_5 
REMARK    3  A    between atoms: C4_9  and  O4_10 
REMARK    4  A    between atoms: O4_10  and  C5_11 
REMARK    5  A    between atoms: C9_18  and  O5_19 
REMARK    6  A    between atoms: C10_21  and  O6_22 
ROOT
HETATM    1  C1  UNL     1     -64.534  20.212  55.229  1.00  0.00     0.182 C 
HETATM    2  C2  UNL     1     -65.778  19.498  55.724  1.00  0.00     0.173 C 
HETATM    3  C3  UNL     1     -65.473  19.088  57.171  1.00  0.00     0.205 C 
HETATM    4  O3  UNL     1     -64.498  18.107  57.096  1.00  0.00    -0.356 OA
HETATM    5  C4  UNL     1     -63.265  18.600  56.681  1.00  0.00     0.291 C 
HETATM    6  C10 UNL     1     -63.336  19.340  55.374  1.00  0.00     0.204 C 
ENDROOT
BRANCH   5   7
HETATM    7  O4  UNL     1     -62.445  17.485  56.467  1.00  0.00    -0.351 OA
BRANCH   7   8
HETATM    8  C5  UNL     1     -62.607  16.536  57.501  1.00  0.00     0.156 C 
HETATM    9  C6  UNL     1     -61.421  16.655  58.390  1.00  0.00     0.062 C 
HETATM   10  C7  UNL     1     -60.903  15.371  58.931  1.00  0.00     0.235 C 
HETATM   11  N1  UNL     1     -62.037  14.439  59.006  1.00  0.00    -0.073 N 
HETATM   12  C8  UNL     1     -62.305  14.045  57.641  1.00  0.00     0.266 C 
ATOM     13  H12 UNL     1     -61.881  13.652  59.636  1.00  0.00     0.277 HD
ATOM     14  H11 UNL     1     -62.850  14.820  59.489  1.00  0.00     0.277 HD
HETATM   15  C9  UNL     1     -62.789  15.209  56.855  1.00  0.00     0.172 C 
BRANCH  15  16
HETATM   16  O5  UNL     1     -64.170  15.012  56.618  1.00  0.00    -0.391 OA
ATOM     17  H5  UNL     1     -64.399  14.131  56.890  1.00  0.00     0.210 HD
ENDBRANCH  15  16
ENDBRANCH   7   8
ENDBRANCH   5   7
BRANCH   6  18
HETATM   18  O6  UNL     1     -62.182  20.110  55.246  1.00  0.00    -0.388 OA
ATOM     19  H6  UNL     1     -61.471  19.698  55.723  1.00  0.00     0.210 HD
ENDBRANCH   6  18
BRANCH   1  20
HETATM   20  O1  UNL     1     -64.737  20.467  53.861  1.00  0.00    -0.390 OA
ATOM     21  H1  UNL     1     -64.235  21.247  53.654  1.00  0.00     0.210 HD
ENDBRANCH   1  20
BRANCH   2  22
HETATM   22  O2  UNL     1     -66.893  20.296  55.635  1.00  0.00    -0.391 OA
ATOM     23  H2  UNL     1     -67.390  20.299  56.445  1.00  0.00     0.210 HD
ENDBRANCH   2  22
TORSDOF 6
ENDMDL
