MODEL 2
REMARK VINA RESULT: -6.470106688      3.741      5.677
REMARK  6 active torsions:
REMARK  status: ('A' for Active; 'I' for Inactive)
REMARK    1  A    between atoms: O1_1  and  C1_3 
REMARK    2  A    between atoms: C2_4  and  O2_5 
REMARK    3  A    between atoms: C4_9  and  O4_10 
REMARK    4  A    between atoms: O4_10  and  C5_11 
REMARK    5  A    between atoms: C9_18  and  O5_19 
REMARK    6  A    between atoms: C10_21  and  O6_22 
ROOT
HETATM    1  C1  UNL     1     -65.023  19.528  56.769  1.00  0.00     0.182 C 
HETATM    2  C2  UNL     1     -63.915  18.493  56.723  1.00  0.00     0.173 C 
HETATM    3  C3  UNL     1     -62.945  18.972  55.635  1.00  0.00     0.205 C 
HETATM    4  O3  UNL     1     -63.617  18.837  54.431  1.00  0.00    -0.356 OA
HETATM    5  C4  UNL     1     -64.663  19.743  54.291  1.00  0.00     0.291 C 
HETATM    6  C10 UNL     1     -65.647  19.689  55.427  1.00  0.00     0.204 C 
ENDROOT
BRANCH   5   7
HETATM    7  O4  UNL     1     -65.361  19.367  53.137  1.00  0.00    -0.351 OA
BRANCH   7   8
HETATM    8  C5  UNL     1     -64.507  18.707  52.226  1.00  0.00     0.156 C 
HETATM    9  C6  UNL     1     -64.325  19.616  51.064  1.00  0.00     0.062 C 
HETATM   10  C7  UNL     1     -64.274  18.947  49.737  1.00  0.00     0.235 C 
HETATM   11  N1  UNL     1     -63.752  17.590  49.952  1.00  0.00    -0.073 N 
HETATM   12  C8  UNL     1     -64.835  16.852  50.562  1.00  0.00     0.266 C 
ATOM     13  H12 UNL     1     -63.384  17.153  49.107  1.00  0.00     0.277 HD
ATOM     14  H11 UNL     1     -62.885  17.563  50.488  1.00  0.00     0.277 HD
HETATM   15  C9  UNL     1     -65.127  17.392  51.915  1.00  0.00     0.172 C 
BRANCH  15  16
HETATM   16  O5  UNL     1     -64.662  16.443  52.856  1.00  0.00    -0.391 OA
ATOM     17  H5  UNL     1     -63.808  16.135  52.576  1.00  0.00     0.210 HD
ENDBRANCH  15  16
ENDBRANCH   7   8
ENDBRANCH   5   7
BRANCH   6  18
HETATM   18  O6  UNL     1     -66.405  20.859  55.403  1.00  0.00    -0.388 OA
ATOM     19  H6  UNL     1     -65.967  21.510  54.867  1.00  0.00     0.210 HD
ENDBRANCH   6  18
BRANCH   1  20
HETATM   20  O1  UNL     1     -65.996  19.033  57.656  1.00  0.00    -0.390 OA
ATOM     21  H1  UNL     1     -65.773  18.124  57.823  1.00  0.00     0.210 HD
ENDBRANCH   1  20
BRANCH   2  22
HETATM   22  O2  UNL     1     -63.298  18.353  57.943  1.00  0.00    -0.391 OA
ATOM     23  H2  UNL     1     -63.247  19.179  58.409  1.00  0.00     0.210 HD
ENDBRANCH   2  22
TORSDOF 6
ENDMDL
