MODEL 3
REMARK VINA RESULT: -6.323693494      2.589      5.775
REMARK  6 active torsions:
REMARK  status: ('A' for Active; 'I' for Inactive)
REMARK    1  A    between atoms: O1_1  and  C1_3 
REMARK    2  A    between atoms: C2_4  and  O2_5 
REMARK    3  A    between atoms: C4_9  and  O4_10 
REMARK    4  A    between atoms: O4_10  and  C5_11 
REMARK    5  A    between atoms: C9_18  and  O5_19 
REMARK    6  A    between atoms: C10_21  and  O6_22 
ROOT
HETATM    1  C1  UNL     1     -60.832  15.520  58.680  1.00  0.00     0.182 C 
HETATM    2  C2  UNL     1     -61.892  14.436  58.731  1.00  0.00     0.173 C 
HETATM    3  C3  UNL     1     -62.656  14.539  57.405  1.00  0.00     0.205 C 
HETATM    4  O3  UNL     1     -63.356  15.733  57.456  1.00  0.00    -0.356 OA
HETATM    5  C4  UNL     1     -62.528  16.849  57.388  1.00  0.00     0.291 C 
HETATM    6  C10 UNL     1     -61.454  16.851  58.439  1.00  0.00     0.204 C 
ENDROOT
BRANCH   5   7
HETATM    7  O4  UNL     1     -63.341  17.961  57.643  1.00  0.00    -0.351 OA
BRANCH   7   8
HETATM    8  C5  UNL     1     -64.275  18.151  56.600  1.00  0.00     0.156 C 
HETATM    9  C6  UNL     1     -63.499  18.249  55.335  1.00  0.00     0.062 C 
HETATM   10  C7  UNL     1     -64.013  19.238  54.351  1.00  0.00     0.235 C 
HETATM   11  N1  UNL     1     -65.461  19.362  54.571  1.00  0.00    -0.073 N 
HETATM   12  C8  UNL     1     -65.603  20.125  55.791  1.00  0.00     0.266 C 
ATOM     13  H12 UNL     1     -65.964  19.759  53.778  1.00  0.00     0.277 HD
ATOM     14  H11 UNL     1     -65.951  18.468  54.588  1.00  0.00     0.277 HD
HETATM   15  C9  UNL     1     -65.083  19.350  56.946  1.00  0.00     0.172 C 
BRANCH  15  16
HETATM   16  O5  UNL     1     -66.199  18.933  57.710  1.00  0.00    -0.391 OA
ATOM     17  H5  UNL     1     -66.354  19.576  58.392  1.00  0.00     0.210 HD
ENDBRANCH  15  16
ENDBRANCH   7   8
ENDBRANCH   5   7
BRANCH   6  18
HETATM   18  O6  UNL     1     -60.471  17.761  58.056  1.00  0.00    -0.388 OA
ATOM     19  H6  UNL     1     -60.745  18.641  58.288  1.00  0.00     0.210 HD
ENDBRANCH   6  18
BRANCH   1  20
HETATM   20  O1  UNL     1     -60.216  15.538  59.944  1.00  0.00    -0.390 OA
ATOM     21  H1  UNL     1     -60.165  16.449  60.207  1.00  0.00     0.210 HD
ENDBRANCH   1  20
BRANCH   2  22
HETATM   22  O2  UNL     1     -61.339  13.191  58.916  1.00  0.00    -0.391 OA
ATOM     23  H2  UNL     1     -60.523  13.093  58.438  1.00  0.00     0.210 HD
ENDBRANCH   2  22
TORSDOF 6
ENDMDL
