MODEL 14
REMARK VINA RESULT: -6.031438887      3.531      5.423
REMARK  8 active torsions:
REMARK  status: ('A' for Active; 'I' for Inactive)
REMARK    1  A    between atoms: O1_1  and  N1_3 
REMARK    2  A    between atoms: C3_9  and  O2_10 
REMARK    3  A    between atoms: O2_10  and  C4_11 
REMARK    4  A    between atoms: C6_14  and  O4_15 
REMARK    5  A    between atoms: C7_17  and  O5_18 
REMARK    6  A    between atoms: C8_20  and  O6_21 
REMARK    7  A    between atoms: C9_23  and  O7_24 
REMARK    8  A    between atoms: C10_26  and  O8_27 
ROOT
HETATM    1  N1  UNL     1      20.338  67.952  34.774  1.00  0.00    -0.255 N 
ATOM      2  H1  UNL     1      21.270  68.336  34.929  1.00  0.00     0.195 HD
HETATM    3  C1  UNL     1      19.434  68.081  35.674  1.00  0.00     0.129 C 
HETATM    4  N2  UNL     1      18.119  67.553  35.484  1.00  0.00    -0.374 N 
ATOM      5  H2  UNL     1      17.837  67.104  34.612  1.00  0.00     0.161 HD
HETATM    6  C2  UNL     1      17.210  67.694  36.606  1.00  0.00     0.155 C 
HETATM    7  C3  UNL     1      17.926  67.179  37.835  1.00  0.00     0.174 C 
HETATM    8  C9  UNL     1      19.198  67.912  38.088  1.00  0.00     0.184 C 
HETATM    9  C10 UNL     1      19.670  68.776  36.967  1.00  0.00     0.218 C 
ENDROOT
BRANCH   7  10
HETATM   10  O2  UNL     1      18.098  65.796  37.802  1.00  0.00    -0.349 OA
BRANCH  10  11
HETATM   11  C4  UNL     1      16.950  65.115  38.120  1.00  0.00     0.291 C 
HETATM   12  O3  UNL     1      15.818  65.821  37.704  1.00  0.00    -0.356 OA
HETATM   13  C5  UNL     1      14.701  65.010  37.748  1.00  0.00     0.205 C 
HETATM   14  C6  UNL     1      14.443  64.393  39.080  1.00  0.00     0.173 C 
HETATM   15  C7  UNL     1      15.673  63.824  39.726  1.00  0.00     0.182 C 
HETATM   16  C8  UNL     1      16.776  64.871  39.604  1.00  0.00     0.204 C 
BRANCH  14  17
HETATM   17  O4  UNL     1      13.497  63.359  38.886  1.00  0.00    -0.391 OA
ATOM     18  H4  UNL     1      12.716  63.596  39.372  1.00  0.00     0.210 HD
ENDBRANCH  14  17
BRANCH  15  19
HETATM   19  O5  UNL     1      15.429  63.486  41.040  1.00  0.00    -0.390 OA
ATOM     20  H5  UNL     1      14.496  63.423  41.208  1.00  0.00     0.210 HD
ENDBRANCH  15  19
BRANCH  16  21
HETATM   21  O6  UNL     1      17.929  64.485  40.238  1.00  0.00    -0.388 OA
ATOM     22  H6  UNL     1      18.433  65.210  40.589  1.00  0.00     0.210 HD
ENDBRANCH  16  21
ENDBRANCH  10  11
ENDBRANCH   7  10
BRANCH   8  23
HETATM   23  O7  UNL     1      19.123  68.732  39.238  1.00  0.00    -0.390 OA
ATOM     24  H7  UNL     1      19.826  68.556  39.852  1.00  0.00     0.210 HD
ENDBRANCH   8  23
BRANCH   9  25
HETATM   25  O8  UNL     1      21.031  69.034  37.112  1.00  0.00    -0.385 OA
ATOM     26  H8  UNL     1      21.151  69.904  37.474  1.00  0.00     0.210 HD
ENDBRANCH   9  25
BRANCH   1  27
HETATM   27  O1  UNL     1      20.054  67.302  33.610  1.00  0.00    -0.288 OA
ATOM     28  H1  UNL     1      20.128  66.357  33.564  1.00  0.00     0.244 HD
ENDBRANCH   1  27
TORSDOF 8
ENDMDL
