MODEL 3
REMARK VINA RESULT: -6.737378259      4.336      7.234
REMARK  8 active torsions:
REMARK  status: ('A' for Active; 'I' for Inactive)
REMARK    1  A    between atoms: O1_1  and  N1_3 
REMARK    2  A    between atoms: C3_9  and  O2_10 
REMARK    3  A    between atoms: O2_10  and  C4_11 
REMARK    4  A    between atoms: C6_14  and  O4_15 
REMARK    5  A    between atoms: C7_17  and  O5_18 
REMARK    6  A    between atoms: C8_20  and  O6_21 
REMARK    7  A    between atoms: C9_23  and  O7_24 
REMARK    8  A    between atoms: C10_26  and  O8_27 
ROOT
HETATM    1  N1  UNL     1      13.756  65.571  40.667  1.00  0.00    -0.255 N 
ATOM      2  H1  UNL     1      13.728  65.068  41.554  1.00  0.00     0.195 HD
HETATM    3  C1  UNL     1      14.580  65.213  39.752  1.00  0.00     0.129 C 
HETATM    4  N2  UNL     1      14.641  65.900  38.500  1.00  0.00    -0.374 N 
ATOM      5  H2  UNL     1      14.002  66.661  38.268  1.00  0.00     0.161 HD
HETATM    6  C2  UNL     1      15.668  65.450  37.579  1.00  0.00     0.155 C 
HETATM    7  C3  UNL     1      16.974  65.410  38.341  1.00  0.00     0.174 C 
HETATM    8  C9  UNL     1      16.898  64.514  39.530  1.00  0.00     0.184 C 
HETATM    9  C10 UNL     1      15.523  64.076  39.911  1.00  0.00     0.218 C 
ENDROOT
BRANCH   7  10
HETATM   10  O2  UNL     1      17.438  66.686  38.657  1.00  0.00    -0.349 OA
BRANCH  10  11
HETATM   11  C4  UNL     1      18.211  67.226  37.661  1.00  0.00     0.291 C 
HETATM   12  O3  UNL     1      18.710  66.229  36.818  1.00  0.00    -0.356 OA
HETATM   13  C5  UNL     1      19.224  66.786  35.663  1.00  0.00     0.205 C 
HETATM   14  C6  UNL     1      20.275  67.818  35.894  1.00  0.00     0.173 C 
HETATM   15  C7  UNL     1      19.927  68.797  36.977  1.00  0.00     0.182 C 
HETATM   16  C8  UNL     1      19.413  67.993  38.168  1.00  0.00     0.204 C 
BRANCH  14  17
HETATM   17  O4  UNL     1      20.453  68.514  34.676  1.00  0.00    -0.391 OA
ATOM     18  H4  UNL     1      20.343  69.439  34.862  1.00  0.00     0.210 HD
ENDBRANCH  14  17
BRANCH  15  19
HETATM   19  O5  UNL     1      21.017  69.571  37.312  1.00  0.00    -0.390 OA
ATOM     20  H5  UNL     1      21.143  69.591  38.254  1.00  0.00     0.210 HD
ENDBRANCH  15  19
BRANCH  16  21
HETATM   21  O6  UNL     1      19.141  68.790  39.252  1.00  0.00    -0.388 OA
ATOM     22  H6  UNL     1      19.630  68.553  40.032  1.00  0.00     0.210 HD
ENDBRANCH  16  21
ENDBRANCH  10  11
ENDBRANCH   7  10
BRANCH   8  23
HETATM   23  O7  UNL     1      17.674  63.343  39.366  1.00  0.00    -0.390 OA
ATOM     24  H7  UNL     1      18.208  63.156  40.129  1.00  0.00     0.210 HD
ENDBRANCH   8  23
BRANCH   9  25
HETATM   25  O8  UNL     1      15.517  63.650  41.238  1.00  0.00    -0.385 OA
ATOM     26  H8  UNL     1      16.023  62.850  41.315  1.00  0.00     0.210 HD
ENDBRANCH   9  25
BRANCH   1  27
HETATM   27  O1  UNL     1      12.918  66.625  40.455  1.00  0.00    -0.288 OA
ATOM     28  H1  UNL     1      12.039  66.611  40.814  1.00  0.00     0.244 HD
ENDBRANCH   1  27
TORSDOF 8
ENDMDL
