MODEL 1
REMARK VINA RESULT: -6.984609943      0.000      0.000
REMARK  8 active torsions:
REMARK  status: ('A' for Active; 'I' for Inactive)
REMARK    1  A    between atoms: O1_1  and  N1_3 
REMARK    2  A    between atoms: C3_9  and  O2_10 
REMARK    3  A    between atoms: O2_10  and  C4_11 
REMARK    4  A    between atoms: C6_14  and  O4_15 
REMARK    5  A    between atoms: C7_17  and  O5_18 
REMARK    6  A    between atoms: C8_20  and  O6_21 
REMARK    7  A    between atoms: C9_23  and  O7_24 
REMARK    8  A    between atoms: C10_26  and  O8_27 
ROOT
HETATM    1  N1  UNL     1      17.673  68.605  29.749  1.00  0.00    -0.255 N 
ATOM      2  H1  UNL     1      17.826  69.477  29.242  1.00  0.00     0.195 HD
HETATM    3  C1  UNL     1      17.087  68.622  30.890  1.00  0.00     0.129 C 
HETATM    4  N2  UNL     1      16.859  67.416  31.623  1.00  0.00    -0.374 N 
ATOM      5  H2  UNL     1      17.104  66.500  31.248  1.00  0.00     0.161 HD
HETATM    6  C2  UNL     1      16.258  67.575  32.934  1.00  0.00     0.155 C 
HETATM    7  C3  UNL     1      17.059  68.623  33.675  1.00  0.00     0.174 C 
HETATM    8  C9  UNL     1      17.088  69.921  32.945  1.00  0.00     0.184 C 
HETATM    9  C10 UNL     1      16.603  69.871  31.534  1.00  0.00     0.218 C 
ENDROOT
BRANCH   7  10
HETATM   10  O2  UNL     1      18.331  68.167  34.017  1.00  0.00    -0.349 OA
BRANCH  10  11
HETATM   11  C4  UNL     1      18.385  67.667  35.293  1.00  0.00     0.291 C 
HETATM   12  O3  UNL     1      17.140  67.761  35.921  1.00  0.00    -0.356 OA
HETATM   13  C5  UNL     1      17.120  66.995  37.070  1.00  0.00     0.205 C 
HETATM   14  C6  UNL     1      18.198  67.323  38.046  1.00  0.00     0.173 C 
HETATM   15  C7  UNL     1      19.549  67.494  37.413  1.00  0.00     0.182 C 
HETATM   16  C8  UNL     1      19.368  68.389  36.191  1.00  0.00     0.204 C 
BRANCH  14  17
HETATM   17  O4  UNL     1      18.253  66.265  38.982  1.00  0.00    -0.391 OA
ATOM     18  H4  UNL     1      18.285  65.454  38.489  1.00  0.00     0.210 HD
ENDBRANCH  14  17
BRANCH  15  19
HETATM   19  O5  UNL     1      20.451  68.027  38.310  1.00  0.00    -0.390 OA
ATOM     20  H5  UNL     1      21.051  67.361  38.624  1.00  0.00     0.210 HD
ENDBRANCH  15  19
BRANCH  16  21
HETATM   21  O6  UNL     1      20.562  68.679  35.580  1.00  0.00    -0.388 OA
ATOM     22  H6  UNL     1      21.139  67.929  35.495  1.00  0.00     0.210 HD
ENDBRANCH  16  21
ENDBRANCH  10  11
ENDBRANCH   7  10
BRANCH   8  23
HETATM   23  O7  UNL     1      16.337  70.922  33.604  1.00  0.00    -0.390 OA
ATOM     24  H7  UNL     1      16.276  71.721  33.093  1.00  0.00     0.210 HD
ENDBRANCH   8  23
BRANCH   9  25
HETATM   25  O8  UNL     1      17.086  70.972  30.832  1.00  0.00    -0.385 OA
ATOM     26  H8  UNL     1      17.432  71.611  31.444  1.00  0.00     0.210 HD
ENDBRANCH   9  25
BRANCH   1  27
HETATM   27  O1  UNL     1      18.091  67.423  29.215  1.00  0.00    -0.288 OA
ATOM     28  H1  UNL     1      17.701  67.101  28.412  1.00  0.00     0.244 HD
ENDBRANCH   1  27
TORSDOF 8
ENDMDL
