MODEL 2
REMARK VINA RESULT: -6.840814129      1.838      2.266
REMARK  8 active torsions:
REMARK  status: ('A' for Active; 'I' for Inactive)
REMARK    1  A    between atoms: O1_1  and  N1_3 
REMARK    2  A    between atoms: C3_9  and  O2_10 
REMARK    3  A    between atoms: O2_10  and  C4_11 
REMARK    4  A    between atoms: C6_14  and  O4_15 
REMARK    5  A    between atoms: C7_17  and  O5_18 
REMARK    6  A    between atoms: C8_20  and  O6_21 
REMARK    7  A    between atoms: C9_23  and  O7_24 
REMARK    8  A    between atoms: C10_26  and  O8_27 
ROOT
HETATM    1  N1  UNL     1      16.171  71.411  31.613  1.00  0.00    -0.255 N 
ATOM      2  H1  UNL     1      15.652  72.274  31.775  1.00  0.00     0.195 HD
HETATM    3  C1  UNL     1      15.777  70.316  32.150  1.00  0.00     0.129 C 
HETATM    4  N2  UNL     1      16.484  69.091  31.942  1.00  0.00    -0.374 N 
ATOM      5  H2  UNL     1      17.292  69.032  31.321  1.00  0.00     0.161 HD
HETATM    6  C2  UNL     1      15.985  67.938  32.666  1.00  0.00     0.155 C 
HETATM    7  C3  UNL     1      15.839  68.343  34.116  1.00  0.00     0.174 C 
HETATM    8  C9  UNL     1      14.925  69.508  34.281  1.00  0.00     0.184 C 
HETATM    9  C10 UNL     1      14.574  70.226  33.020  1.00  0.00     0.218 C 
ENDROOT
BRANCH   7  10
HETATM   10  O2  UNL     1      17.073  68.534  34.736  1.00  0.00    -0.349 OA
BRANCH  10  11
HETATM   11  C4  UNL     1      17.364  67.549  35.645  1.00  0.00     0.291 C 
HETATM   12  O3  UNL     1      16.549  67.654  36.775  1.00  0.00    -0.356 OA
HETATM   13  C5  UNL     1      16.630  66.505  37.537  1.00  0.00     0.205 C 
HETATM   14  C6  UNL     1      18.015  66.140  37.952  1.00  0.00     0.173 C 
HETATM   15  C7  UNL     1      19.021  66.245  36.843  1.00  0.00     0.182 C 
HETATM   16  C8  UNL     1      18.792  67.584  36.147  1.00  0.00     0.204 C 
BRANCH  14  17
HETATM   17  O4  UNL     1      17.974  64.806  38.419  1.00  0.00    -0.391 OA
ATOM     18  H4  UNL     1      18.796  64.638  38.864  1.00  0.00     0.210 HD
ENDBRANCH  14  17
BRANCH  15  19
HETATM   19  O5  UNL     1      20.306  66.134  37.330  1.00  0.00    -0.390 OA
ATOM     20  H5  UNL     1      20.811  66.916  37.140  1.00  0.00     0.210 HD
ENDBRANCH  15  19
BRANCH  16  21
HETATM   21  O6  UNL     1      19.718  67.822  35.163  1.00  0.00    -0.388 OA
ATOM     22  H6  UNL     1      20.053  67.031  34.756  1.00  0.00     0.210 HD
ENDBRANCH  16  21
ENDBRANCH  10  11
ENDBRANCH   7  10
BRANCH   8  23
HETATM   23  O7  UNL     1      13.707  69.149  34.904  1.00  0.00    -0.390 OA
ATOM     24  H7  UNL     1      13.843  68.764  35.762  1.00  0.00     0.210 HD
ENDBRANCH   8  23
BRANCH   9  25
HETATM   25  O8  UNL     1      14.122  71.509  33.319  1.00  0.00    -0.385 OA
ATOM     26  H8  UNL     1      13.176  71.538  33.237  1.00  0.00     0.210 HD
ENDBRANCH   9  25
BRANCH   1  27
HETATM   27  O1  UNL     1      17.284  71.422  30.826  1.00  0.00    -0.288 OA
ATOM     28  H1  UNL     1      17.948  72.089  30.953  1.00  0.00     0.244 HD
ENDBRANCH   1  27
TORSDOF 8
ENDMDL
