MODEL 1
REMARK VINA RESULT: -8.007296071      0.000      0.000
REMARK  7 active torsions:
REMARK  status: ('A' for Active; 'I' for Inactive)
REMARK    1  A    between atoms: O1_1  and  C1_3 
REMARK    2  A    between atoms: C2_4  and  O2_5 
REMARK    3  A    between atoms: C4_9  and  O4_10 
REMARK    4  A    between atoms: O4_10  and  C5_11 
REMARK    5  A    between atoms: C10_19  and  O5_20 
REMARK    6  A    between atoms: C11_22  and  O6_23 
REMARK    7  A    between atoms: C12_25  and  O7_26 
ROOT
HETATM    1  C5  UNL     1     -63.954  18.138  55.750  1.00  0.00     0.174 C 
HETATM    2  C6  UNL     1     -62.904  18.659  54.776  1.00  0.00     0.164 C 
HETATM    3  N1  UNL     1     -63.626  19.054  53.576  1.00  0.00    -0.341 N 
HETATM    4  C7  UNL     1     -63.238  19.122  52.283  1.00  0.00     0.109 A 
HETATM    5  C8  UNL     1     -64.271  19.552  51.497  1.00  0.00     0.106 A 
HETATM    6  N2  UNL     1     -65.309  19.749  52.324  1.00  0.00    -0.352 N 
ATOM      7  H2  UNL     1     -66.237  20.073  52.049  1.00  0.00     0.166 HD
HETATM    8  C9  UNL     1     -64.917  19.444  53.596  1.00  0.00     0.115 A 
HETATM    9  C10 UNL     1     -65.733  19.515  54.824  1.00  0.00     0.217 C 
HETATM   10  C11 UNL     1     -64.863  19.325  56.049  1.00  0.00     0.184 C 
ENDROOT
BRANCH   1  11
HETATM   11  O4  UNL     1     -63.408  17.643  56.903  1.00  0.00    -0.349 OA
BRANCH  11  12
HETATM   12  C4  UNL     1     -62.977  16.329  56.754  1.00  0.00     0.291 C 
HETATM   13  O3  UNL     1     -63.295  15.524  57.812  1.00  0.00    -0.356 OA
HETATM   14  C3  UNL     1     -62.349  14.699  58.300  1.00  0.00     0.205 C 
HETATM   15  C2  UNL     1     -60.985  15.268  58.506  1.00  0.00     0.173 C 
HETATM   16  C1  UNL     1     -60.699  16.465  57.636  1.00  0.00     0.182 C 
HETATM   17  C12 UNL     1     -61.504  16.282  56.380  1.00  0.00     0.204 C 
BRANCH  15  18
HETATM   18  O2  UNL     1     -60.020  14.292  58.268  1.00  0.00    -0.391 OA
ATOM     19  H2  UNL     1     -60.419  13.434  58.356  1.00  0.00     0.210 HD
ENDBRANCH  15  18
BRANCH  16  20
HETATM   20  O1  UNL     1     -61.013  17.651  58.296  1.00  0.00    -0.390 OA
ATOM     21  H1  UNL     1     -61.729  18.104  57.864  1.00  0.00     0.210 HD
ENDBRANCH  16  20
BRANCH  17  22
HETATM   22  O7  UNL     1     -61.249  15.013  55.881  1.00  0.00    -0.388 OA
ATOM     23  H7  UNL     1     -61.904  14.814  55.223  1.00  0.00     0.210 HD
ENDBRANCH  17  22
ENDBRANCH  11  12
ENDBRANCH   1  11
BRANCH  10  24
HETATM   24  O6  UNL     1     -65.599  19.131  57.192  1.00  0.00    -0.390 OA
ATOM     25  H6  UNL     1     -66.511  19.371  57.072  1.00  0.00     0.210 HD
ENDBRANCH  10  24
BRANCH   9  26
HETATM   26  O5  UNL     1     -66.421  20.713  54.833  1.00  0.00    -0.385 OA
ATOM     27  H5  UNL     1     -67.323  20.545  55.079  1.00  0.00     0.210 HD
ENDBRANCH   9  26
TORSDOF 7
ENDMDL
