MODEL 4
REMARK VINA RESULT: -7.503785742      3.144      4.888
REMARK  7 active torsions:
REMARK  status: ('A' for Active; 'I' for Inactive)
REMARK    1  A    between atoms: O1_1  and  C1_3 
REMARK    2  A    between atoms: C2_4  and  O2_5 
REMARK    3  A    between atoms: C4_9  and  O4_10 
REMARK    4  A    between atoms: O4_10  and  C5_11 
REMARK    5  A    between atoms: C10_19  and  O5_20 
REMARK    6  A    between atoms: C11_22  and  O6_23 
REMARK    7  A    between atoms: C12_25  and  O7_26 
ROOT
HETATM    1  C5  UNL     1     -64.365  18.684  51.372  1.00  0.00     0.174 C 
HETATM    2  C6  UNL     1     -64.115  19.801  50.366  1.00  0.00     0.164 C 
HETATM    3  N1  UNL     1     -63.996  19.157  49.067  1.00  0.00    -0.341 N 
HETATM    4  C7  UNL     1     -63.335  19.524  47.946  1.00  0.00     0.109 A 
HETATM    5  C8  UNL     1     -63.513  18.592  46.961  1.00  0.00     0.106 A 
HETATM    6  N2  UNL     1     -64.295  17.638  47.489  1.00  0.00    -0.352 N 
ATOM      7  H2  UNL     1     -64.615  16.797  47.009  1.00  0.00     0.166 HD
HETATM    8  C9  UNL     1     -64.590  17.981  48.778  1.00  0.00     0.115 A 
HETATM    9  C10 UNL     1     -65.421  17.225  49.736  1.00  0.00     0.217 C 
HETATM   10  C11 UNL     1     -65.696  18.058  50.970  1.00  0.00     0.184 C 
ENDROOT
BRANCH   1  11
HETATM   11  O4  UNL     1     -64.412  19.133  52.663  1.00  0.00    -0.349 OA
BRANCH  11  12
HETATM   12  C4  UNL     1     -63.447  18.526  53.461  1.00  0.00     0.291 C 
HETATM   13  O3  UNL     1     -63.806  17.287  53.910  1.00  0.00    -0.356 OA
HETATM   14  C3  UNL     1     -63.597  16.985  55.206  1.00  0.00     0.205 C 
HETATM   15  C2  UNL     1     -63.989  18.009  56.219  1.00  0.00     0.173 C 
HETATM   16  C1  UNL     1     -64.021  19.412  55.669  1.00  0.00     0.182 C 
HETATM   17  C12 UNL     1     -62.996  19.463  54.571  1.00  0.00     0.204 C 
BRANCH  15  18
HETATM   18  O2  UNL     1     -63.116  17.965  57.303  1.00  0.00    -0.391 OA
ATOM     19  H2  UNL     1     -62.223  17.920  56.981  1.00  0.00     0.210 HD
ENDBRANCH  15  18
BRANCH  16  20
HETATM   20  O1  UNL     1     -65.296  19.745  55.216  1.00  0.00    -0.390 OA
ATOM     21  H1  UNL     1     -65.285  20.563  54.733  1.00  0.00     0.210 HD
ENDBRANCH  16  20
BRANCH  17  22
HETATM   22  O7  UNL     1     -61.800  18.964  55.067  1.00  0.00    -0.388 OA
ATOM     23  H7  UNL     1     -61.414  18.403  54.406  1.00  0.00     0.210 HD
ENDBRANCH  17  22
ENDBRANCH  11  12
ENDBRANCH   1  11
BRANCH  10  24
HETATM   24  O6  UNL     1     -66.245  17.321  51.990  1.00  0.00    -0.390 OA
ATOM     25  H6  UNL     1     -67.069  16.921  51.736  1.00  0.00     0.210 HD
ENDBRANCH  10  24
BRANCH   9  26
HETATM   26  O5  UNL     1     -66.574  16.812  49.096  1.00  0.00    -0.385 OA
ATOM     27  H5  UNL     1     -67.219  16.574  49.752  1.00  0.00     0.210 HD
ENDBRANCH   9  26
TORSDOF 7
ENDMDL
