MODEL 5
REMARK VINA RESULT: -7.232515550      2.804      6.556
REMARK  7 active torsions:
REMARK  status: ('A' for Active; 'I' for Inactive)
REMARK    1  A    between atoms: O1_1  and  C1_3 
REMARK    2  A    between atoms: C2_4  and  O2_5 
REMARK    3  A    between atoms: C4_9  and  O4_10 
REMARK    4  A    between atoms: O4_10  and  C5_11 
REMARK    5  A    between atoms: C10_19  and  O5_20 
REMARK    6  A    between atoms: C11_22  and  O6_23 
REMARK    7  A    between atoms: C12_25  and  O7_26 
ROOT
HETATM    1  C5  UNL     1     -61.580  16.142  56.605  1.00  0.00     0.174 C 
HETATM    2  C6  UNL     1     -62.736  15.194  56.899  1.00  0.00     0.164 C 
HETATM    3  N1  UNL     1     -62.161  14.062  57.609  1.00  0.00    -0.341 N 
HETATM    4  C7  UNL     1     -62.552  12.772  57.697  1.00  0.00     0.109 A 
HETATM    5  C8  UNL     1     -61.689  12.064  58.487  1.00  0.00     0.106 A 
HETATM    6  N2  UNL     1     -60.753  12.937  58.888  1.00  0.00    -0.352 N 
ATOM      7  H2  UNL     1     -59.960  12.724  59.493  1.00  0.00     0.166 HD
HETATM    8  C9  UNL     1     -61.039  14.160  58.351  1.00  0.00     0.115 A 
HETATM    9  C10 UNL     1     -60.279  15.413  58.526  1.00  0.00     0.217 C 
HETATM   10  C11 UNL     1     -61.055  16.586  57.965  1.00  0.00     0.184 C 
ENDROOT
BRANCH   1  11
HETATM   11  O4  UNL     1     -61.958  17.223  55.855  1.00  0.00    -0.349 OA
BRANCH  11  12
HETATM   12  C4  UNL     1     -63.341  17.342  55.771  1.00  0.00     0.291 C 
HETATM   13  O3  UNL     1     -63.837  17.104  54.520  1.00  0.00    -0.356 OA
HETATM   14  C3  UNL     1     -64.760  17.949  54.022  1.00  0.00     0.205 C 
HETATM   15  C2  UNL     1     -64.506  19.411  54.182  1.00  0.00     0.173 C 
HETATM   16  C1  UNL     1     -63.594  19.736  55.336  1.00  0.00     0.182 C 
HETATM   17  C12 UNL     1     -63.808  18.662  56.365  1.00  0.00     0.204 C 
BRANCH  15  18
HETATM   18  O2  UNL     1     -65.712  20.088  54.349  1.00  0.00    -0.391 OA
ATOM     19  H2  UNL     1     -65.800  20.738  53.662  1.00  0.00     0.210 HD
ENDBRANCH  15  18
BRANCH  16  20
HETATM   20  O1  UNL     1     -62.266  19.813  54.921  1.00  0.00    -0.390 OA
ATOM     21  H1  UNL     1     -61.672  19.739  55.658  1.00  0.00     0.210 HD
ENDBRANCH  16  20
BRANCH  17  22
HETATM   22  O7  UNL     1     -65.170  18.547  56.598  1.00  0.00    -0.388 OA
ATOM     23  H7  UNL     1     -65.568  18.132  55.842  1.00  0.00     0.210 HD
ENDBRANCH  17  22
ENDBRANCH  11  12
ENDBRANCH   1  11
BRANCH  10  24
HETATM   24  O6  UNL     1     -60.294  17.725  57.875  1.00  0.00    -0.390 OA
ATOM     25  H6  UNL     1     -59.629  17.764  58.553  1.00  0.00     0.210 HD
ENDBRANCH  10  24
BRANCH   9  26
HETATM   26  O5  UNL     1     -59.968  15.562  59.864  1.00  0.00    -0.385 OA
ATOM     27  H5  UNL     1     -59.025  15.509  59.967  1.00  0.00     0.210 HD
ENDBRANCH   9  26
TORSDOF 7
ENDMDL
