MODEL 7
REMARK VINA RESULT: -7.056383919      2.863      6.335
REMARK  7 active torsions:
REMARK  status: ('A' for Active; 'I' for Inactive)
REMARK    1  A    between atoms: O1_1  and  C1_3 
REMARK    2  A    between atoms: C2_4  and  O2_5 
REMARK    3  A    between atoms: C4_9  and  O4_10 
REMARK    4  A    between atoms: O4_10  and  C5_11 
REMARK    5  A    between atoms: C10_19  and  O5_20 
REMARK    6  A    between atoms: C11_22  and  O6_23 
REMARK    7  A    between atoms: C12_25  and  O7_26 
ROOT
HETATM    1  C5  UNL     1     -62.529  15.915  56.928  1.00  0.00     0.174 C 
HETATM    2  C6  UNL     1     -62.677  14.421  56.665  1.00  0.00     0.164 C 
HETATM    3  N1  UNL     1     -61.341  13.856  56.776  1.00  0.00    -0.341 N 
HETATM    4  C7  UNL     1     -60.786  12.761  56.213  1.00  0.00     0.109 A 
HETATM    5  C8  UNL     1     -59.485  12.624  56.614  1.00  0.00     0.106 A 
HETATM    6  N2  UNL     1     -59.242  13.656  57.436  1.00  0.00    -0.352 N 
ATOM      7  H2  UNL     1     -58.357  13.845  57.908  1.00  0.00     0.166 HD
HETATM    8  C9  UNL     1     -60.375  14.411  57.537  1.00  0.00     0.115 A 
HETATM    9  C10 UNL     1     -60.563  15.639  58.334  1.00  0.00     0.217 C 
HETATM   10  C11 UNL     1     -62.025  16.033  58.362  1.00  0.00     0.184 C 
ENDROOT
BRANCH   1  11
HETATM   11  O4  UNL     1     -63.703  16.600  56.769  1.00  0.00    -0.349 OA
BRANCH  11  12
HETATM   12  C4  UNL     1     -63.487  17.942  56.471  1.00  0.00     0.291 C 
HETATM   13  O3  UNL     1     -64.605  18.718  56.593  1.00  0.00    -0.356 OA
HETATM   14  C3  UNL     1     -64.883  19.604  55.617  1.00  0.00     0.205 C 
HETATM   15  C2  UNL     1     -64.763  19.129  54.207  1.00  0.00     0.173 C 
HETATM   16  C1  UNL     1     -63.827  17.959  54.048  1.00  0.00     0.182 C 
HETATM   17  C12 UNL     1     -62.790  18.092  55.128  1.00  0.00     0.204 C 
BRANCH  15  18
HETATM   18  O2  UNL     1     -64.333  20.171  53.389  1.00  0.00    -0.391 OA
ATOM     19  H2  UNL     1     -64.029  20.888  53.933  1.00  0.00     0.210 HD
ENDBRANCH  15  18
BRANCH  16  20
HETATM   20  O1  UNL     1     -64.517  16.751  54.125  1.00  0.00    -0.390 OA
ATOM     21  H1  UNL     1     -63.997  16.087  54.563  1.00  0.00     0.210 HD
ENDBRANCH  16  20
BRANCH  17  22
HETATM   22  O7  UNL     1     -62.272  19.378  55.077  1.00  0.00    -0.388 OA
ATOM     23  H7  UNL     1     -61.413  19.369  55.483  1.00  0.00     0.210 HD
ENDBRANCH  17  22
ENDBRANCH  11  12
ENDBRANCH   1  11
BRANCH  10  24
HETATM   24  O6  UNL     1     -62.221  17.293  58.871  1.00  0.00    -0.390 OA
ATOM     25  H6  UNL     1     -61.570  17.516  59.528  1.00  0.00     0.210 HD
ENDBRANCH  10  24
BRANCH   9  26
HETATM   26  O5  UNL     1     -60.035  15.437  59.594  1.00  0.00    -0.385 OA
ATOM     27  H5  UNL     1     -60.700  15.038  60.144  1.00  0.00     0.210 HD
ENDBRANCH   9  26
TORSDOF 7
ENDMDL
