MODEL 7
REMARK VINA RESULT: -6.176582535      1.546      5.589
REMARK  11 active torsions:
REMARK  status: ('A' for Active; 'I' for Inactive)
REMARK    1  A    between atoms: P1_2  and  O4_5 
REMARK    2  A    between atoms: O4_5  and  C1_6 
REMARK    3  A    between atoms: C2_7  and  O5_8 
REMARK    4  A    between atoms: O5_8  and  P2_9 
REMARK    5  A    between atoms: C3_13  and  O9_14 
REMARK    6  A    between atoms: O9_14  and  P3_15 
REMARK    7  A    between atoms: C4_19  and  O13_20 
REMARK    8  A    between atoms: C5_22  and  O14_23 
REMARK    9  A    between atoms: O14_23  and  P4_24 
REMARK   10  A    between atoms: C6_28  and  O18_29 
REMARK   11  A    between atoms: O18_29  and  P5_30 
ROOT
HETATM    1  C1  UNL     1      -6.002  25.891   9.815  1.00  0.00     0.200 C 
HETATM    2  C2  UNL     1      -6.552  24.585  10.376  1.00  0.00     0.200 C 
HETATM    3  C3  UNL     1      -8.035  24.665  10.058  1.00  0.00     0.199 C 
HETATM    4  C4  UNL     1      -8.563  25.644  11.108  1.00  0.00     0.182 C 
HETATM    5  C5  UNL     1      -7.950  26.982  11.011  1.00  0.00     0.199 C 
HETATM    6  C6  UNL     1      -6.556  27.077  10.541  1.00  0.00     0.200 C 
ENDROOT
BRANCH   1   7
HETATM    7  O4  UNL     1      -6.411  25.940   8.482  1.00  0.00    -0.272 OA
BRANCH   7   8
HETATM    8  P1  UNL     1      -5.265  26.707   7.509  1.00  0.00     0.422 P 
HETATM    9  O1  UNL     1      -3.906  26.586   8.116  1.00  0.00    -0.617 OA
HETATM   10  O2  UNL     1      -5.268  25.945   6.000  1.00  0.00    -0.617 OA
HETATM   11  O3  UNL     1      -5.749  28.323   7.341  1.00  0.00    -0.617 OA
ENDBRANCH   7   8
ENDBRANCH   1   7
BRANCH   2  12
HETATM   12  O5  UNL     1      -5.936  23.484   9.871  1.00  0.00    -0.272 OA
BRANCH  12  13
HETATM   13  P2  UNL     1      -4.372  23.337  10.499  1.00  0.00     0.422 P 
HETATM   14  O6  UNL     1      -4.078  21.867  10.694  1.00  0.00    -0.617 OA
HETATM   15  O7  UNL     1      -3.213  23.943   9.421  1.00  0.00    -0.617 OA
HETATM   16  O8  UNL     1      -4.234  24.083  12.006  1.00  0.00    -0.617 OA
ENDBRANCH  12  13
ENDBRANCH   2  12
BRANCH   6  17
HETATM   17  O18 UNL     1      -5.680  27.359  11.590  1.00  0.00    -0.272 OA
BRANCH  17  18
HETATM   18  P5  UNL     1      -4.885  28.828  11.353  1.00  0.00     0.422 P 
HETATM   19  O19 UNL     1      -4.665  29.557  12.663  1.00  0.00    -0.617 OA
HETATM   20  O20 UNL     1      -5.770  29.870  10.354  1.00  0.00    -0.617 OA
HETATM   21  O21 UNL     1      -3.348  28.573  10.654  1.00  0.00    -0.617 OA
ENDBRANCH  17  18
ENDBRANCH   6  17
BRANCH   3  22
HETATM   22  O9  UNL     1      -8.672  23.465  10.092  1.00  0.00    -0.272 OA
BRANCH  22  23
HETATM   23  P3  UNL     1     -10.255  23.646   9.500  1.00  0.00     0.422 P 
HETATM   24  O10 UNL     1     -10.579  22.506   8.538  1.00  0.00    -0.617 OA
HETATM   25  O11 UNL     1     -11.393  23.646  10.722  1.00  0.00    -0.617 OA
HETATM   26  O12 UNL     1     -10.292  25.071   8.586  1.00  0.00    -0.617 OA
ENDBRANCH  22  23
ENDBRANCH   3  22
BRANCH   5  27
HETATM   27  O14 UNL     1      -8.808  27.776  10.223  1.00  0.00    -0.272 OA
BRANCH  27  28
HETATM   28  P4  UNL     1      -9.361  29.131  11.022  1.00  0.00     0.422 P 
HETATM   29  O15 UNL     1     -10.837  28.929  11.315  1.00  0.00    -0.617 OA
HETATM   30  O16 UNL     1      -8.584  29.183  12.544  1.00  0.00    -0.617 OA
HETATM   31  O17 UNL     1      -9.092  30.551  10.163  1.00  0.00    -0.617 OA
ENDBRANCH  27  28
ENDBRANCH   5  27
BRANCH   4  32
HETATM   32  O13 UNL     1      -8.375  25.030  12.346  1.00  0.00    -0.390 OA
ATOM     33  H13 UNL     1      -7.872  24.241  12.180  1.00  0.00     0.210 HD
ENDBRANCH   4  32
TORSDOF 11
ENDMDL
