MODEL 6
REMARK VINA RESULT: -6.187545959      2.182      5.411
REMARK  11 active torsions:
REMARK  status: ('A' for Active; 'I' for Inactive)
REMARK    1  A    between atoms: P1_2  and  O4_5 
REMARK    2  A    between atoms: O4_5  and  C1_6 
REMARK    3  A    between atoms: C2_7  and  O5_8 
REMARK    4  A    between atoms: O5_8  and  P2_9 
REMARK    5  A    between atoms: C3_13  and  O9_14 
REMARK    6  A    between atoms: O9_14  and  P3_15 
REMARK    7  A    between atoms: C4_19  and  O13_20 
REMARK    8  A    between atoms: C5_22  and  O14_23 
REMARK    9  A    between atoms: O14_23  and  P4_24 
REMARK   10  A    between atoms: C6_28  and  O18_29 
REMARK   11  A    between atoms: O18_29  and  P5_30 
ROOT
HETATM    1  C1  UNL     1      -6.250  27.593  11.278  1.00  0.00     0.200 C 
HETATM    2  C2  UNL     1      -6.954  27.770   9.938  1.00  0.00     0.200 C 
HETATM    3  C3  UNL     1      -7.378  26.356   9.577  1.00  0.00     0.199 C 
HETATM    4  C4  UNL     1      -6.073  25.713   9.104  1.00  0.00     0.182 C 
HETATM    5  C5  UNL     1      -5.032  25.680  10.149  1.00  0.00     0.199 C 
HETATM    6  C6  UNL     1      -5.006  26.770  11.140  1.00  0.00     0.200 C 
ENDROOT
BRANCH   1   7
HETATM    7  O4  UNL     1      -7.153  26.921  12.101  1.00  0.00    -0.272 OA
BRANCH   7   8
HETATM    8  P1  UNL     1      -7.347  27.707  13.582  1.00  0.00     0.422 P 
HETATM    9  O1  UNL     1      -7.235  29.186  13.402  1.00  0.00    -0.617 OA
HETATM   10  O2  UNL     1      -8.886  27.336  14.174  1.00  0.00    -0.617 OA
HETATM   11  O3  UNL     1      -6.163  27.101  14.632  1.00  0.00    -0.617 OA
ENDBRANCH   7   8
ENDBRANCH   1   7
BRANCH   2  12
HETATM   12  O5  UNL     1      -7.980  28.659   9.985  1.00  0.00    -0.272 OA
BRANCH  12  13
HETATM   13  P2  UNL     1      -7.939  29.685   8.640  1.00  0.00     0.422 P 
HETATM   14  O6  UNL     1      -9.326  29.732   8.040  1.00  0.00    -0.617 OA
HETATM   15  O7  UNL     1      -7.529  31.270   9.083  1.00  0.00    -0.617 OA
HETATM   16  O8  UNL     1      -6.892  29.108   7.449  1.00  0.00    -0.617 OA
ENDBRANCH  12  13
ENDBRANCH   2  12
BRANCH   6  17
HETATM   17  O18 UNL     1      -3.956  27.657  10.900  1.00  0.00    -0.272 OA
BRANCH  17  18
HETATM   18  P5  UNL     1      -3.135  28.041  12.323  1.00  0.00     0.422 P 
HETATM   19  O19 UNL     1      -3.822  29.164  13.074  1.00  0.00    -0.617 OA
HETATM   20  O20 UNL     1      -1.550  28.553  12.018  1.00  0.00    -0.617 OA
HETATM   21  O21 UNL     1      -3.083  26.692  13.369  1.00  0.00    -0.617 OA
ENDBRANCH  17  18
ENDBRANCH   6  17
BRANCH   3  22
HETATM   22  O9  UNL     1      -8.360  26.297   8.640  1.00  0.00    -0.272 OA
BRANCH  22  23
HETATM   23  P3  UNL     1      -9.800  25.751   9.362  1.00  0.00     0.422 P 
HETATM   24  O10 UNL     1     -10.805  26.897   9.437  1.00  0.00    -0.617 OA
HETATM   25  O11 UNL     1     -10.495  24.491   8.514  1.00  0.00    -0.617 OA
HETATM   26  O12 UNL     1      -9.433  25.328  10.960  1.00  0.00    -0.617 OA
ENDBRANCH  22  23
ENDBRANCH   3  22
BRANCH   5  27
HETATM   27  O14 UNL     1      -5.115  24.422  10.779  1.00  0.00    -0.272 OA
BRANCH  27  28
HETATM   28  P4  UNL     1      -4.241  23.239   9.994  1.00  0.00     0.422 P 
HETATM   29  O15 UNL     1      -5.079  22.733   8.833  1.00  0.00    -0.617 OA
HETATM   30  O16 UNL     1      -2.875  23.990   9.292  1.00  0.00    -0.617 OA
HETATM   31  O17 UNL     1      -3.779  21.984  11.012  1.00  0.00    -0.617 OA
ENDBRANCH  27  28
ENDBRANCH   5  27
BRANCH   4  32
HETATM   32  O13 UNL     1      -5.689  26.404   7.954  1.00  0.00    -0.390 OA
ATOM     33  H13 UNL     1      -5.791  25.796   7.231  1.00  0.00     0.210 HD
ENDBRANCH   4  32
TORSDOF 11
ENDMDL
