MODEL 9
REMARK VINA RESULT: -6.163687227      1.721      6.537
REMARK  11 active torsions:
REMARK  status: ('A' for Active; 'I' for Inactive)
REMARK    1  A    between atoms: P1_2  and  O4_5 
REMARK    2  A    between atoms: O4_5  and  C1_6 
REMARK    3  A    between atoms: C2_7  and  O5_8 
REMARK    4  A    between atoms: O5_8  and  P2_9 
REMARK    5  A    between atoms: C3_13  and  O9_14 
REMARK    6  A    between atoms: O9_14  and  P3_15 
REMARK    7  A    between atoms: C4_19  and  O13_20 
REMARK    8  A    between atoms: C5_22  and  O14_23 
REMARK    9  A    between atoms: O14_23  and  P4_24 
REMARK   10  A    between atoms: C6_28  and  O18_29 
REMARK   11  A    between atoms: O18_29  and  P5_30 
ROOT
HETATM    1  C1  UNL     1      -6.501  26.736   9.196  1.00  0.00     0.200 C 
HETATM    2  C2  UNL     1      -5.764  26.212  10.423  1.00  0.00     0.200 C 
HETATM    3  C3  UNL     1      -6.098  24.730  10.425  1.00  0.00     0.199 C 
HETATM    4  C4  UNL     1      -7.535  24.699  10.949  1.00  0.00     0.182 C 
HETATM    5  C5  UNL     1      -8.481  25.433  10.087  1.00  0.00     0.199 C 
HETATM    6  C6  UNL     1      -7.984  26.609   9.351  1.00  0.00     0.200 C 
ENDROOT
BRANCH   1   7
HETATM    7  O4  UNL     1      -6.083  25.942   8.128  1.00  0.00    -0.272 OA
BRANCH   7   8
HETATM    8  P1  UNL     1      -4.979  26.756   7.144  1.00  0.00     0.422 P 
HETATM    9  O1  UNL     1      -5.317  28.209   7.078  1.00  0.00    -0.617 OA
HETATM   10  O2  UNL     1      -3.442  26.575   7.824  1.00  0.00    -0.617 OA
HETATM   11  O3  UNL     1      -5.026  26.019   5.619  1.00  0.00    -0.617 OA
ENDBRANCH   7   8
ENDBRANCH   1   7
BRANCH   2  12
HETATM   12  O5  UNL     1      -4.432  26.478  10.402  1.00  0.00    -0.272 OA
BRANCH  12  13
HETATM   13  P2  UNL     1      -3.926  27.098  11.893  1.00  0.00     0.422 P 
HETATM   14  O6  UNL     1      -3.103  26.038  12.590  1.00  0.00    -0.617 OA
HETATM   15  O7  UNL     1      -2.931  28.456  11.693  1.00  0.00    -0.617 OA
HETATM   16  O8  UNL     1      -5.236  27.459  12.893  1.00  0.00    -0.617 OA
ENDBRANCH  12  13
ENDBRANCH   2  12
BRANCH   6  17
HETATM   17  O18 UNL     1      -8.438  27.800   9.919  1.00  0.00    -0.272 OA
BRANCH  17  18
HETATM   18  P5  UNL     1      -9.138  28.809   8.762  1.00  0.00     0.422 P 
HETATM   19  O19 UNL     1      -8.095  29.654   8.060  1.00  0.00    -0.617 OA
HETATM   20  O20 UNL     1     -10.255  29.879   9.452  1.00  0.00    -0.617 OA
HETATM   21  O21 UNL     1      -9.931  27.887   7.562  1.00  0.00    -0.617 OA
ENDBRANCH  17  18
ENDBRANCH   6  17
BRANCH   3  22
HETATM   22  O9  UNL     1      -5.252  23.974  11.172  1.00  0.00    -0.272 OA
BRANCH  22  23
HETATM   23  P3  UNL     1      -4.260  23.051  10.145  1.00  0.00     0.422 P 
HETATM   24  O10 UNL     1      -5.071  22.560   8.949  1.00  0.00    -0.617 OA
HETATM   25  O11 UNL     1      -2.952  23.920   9.578  1.00  0.00    -0.617 OA
HETATM   26  O12 UNL     1      -3.791  21.670  11.006  1.00  0.00    -0.617 OA
ENDBRANCH  22  23
ENDBRANCH   3  22
BRANCH   5  27
HETATM   27  O14 UNL     1      -9.061  24.492   9.212  1.00  0.00    -0.272 OA
BRANCH  27  28
HETATM   28  P4  UNL     1     -10.425  23.768   9.841  1.00  0.00     0.422 P 
HETATM   29  O15 UNL     1     -11.469  23.705   8.740  1.00  0.00    -0.617 OA
HETATM   30  O16 UNL     1     -10.024  22.145  10.201  1.00  0.00    -0.617 OA
HETATM   31  O17 UNL     1     -11.013  24.557  11.204  1.00  0.00    -0.617 OA
ENDBRANCH  27  28
ENDBRANCH   5  27
BRANCH   4  32
HETATM   32  O13 UNL     1      -7.485  25.178  12.259  1.00  0.00    -0.390 OA
ATOM     33  H13 UNL     1      -7.890  26.036  12.245  1.00  0.00     0.210 HD
ENDBRANCH   4  32
TORSDOF 11
ENDMDL
