MODEL 1
REMARK VINA RESULT: -6.997507018      0.000      0.000
REMARK  10 active torsions:
REMARK  status: ('A' for Active; 'I' for Inactive)
REMARK    1  A    between atoms: P1_2  and  O4_5 
REMARK    2  A    between atoms: O4_5  and  C1_6 
REMARK    3  A    between atoms: C2_7  and  O5_8 
REMARK    4  A    between atoms: C3_10  and  O6_11 
REMARK    5  A    between atoms: O6_11  and  P2_12 
REMARK    6  A    between atoms: C4_16  and  O10_17 
REMARK    7  A    between atoms: O10_17  and  P3_18 
REMARK    8  A    between atoms: C5_22  and  O14_23 
REMARK    9  A    between atoms: O14_23  and  P4_24 
REMARK   10  A    between atoms: C6_28  and  O18_29 
ROOT
HETATM    1  C1  UNL     1      56.075   0.635  16.562  1.00  0.00     0.198 C 
HETATM    2  C2  UNL     1      55.447   1.880  17.150  1.00  0.00     0.182 C 
HETATM    3  C3  UNL     1      54.955   2.841  16.109  1.00  0.00     0.199 C 
HETATM    4  C4  UNL     1      54.020   2.084  15.180  1.00  0.00     0.200 C 
HETATM    5  C5  UNL     1      54.918   1.069  14.463  1.00  0.00     0.199 C 
HETATM    6  C6  UNL     1      55.208  -0.005  15.506  1.00  0.00     0.182 C 
ENDROOT
BRANCH   1   7
HETATM    7  O4  UNL     1      56.293  -0.194  17.649  1.00  0.00    -0.272 OA
BRANCH   7   8
HETATM    8  P1  UNL     1      57.773  -0.116  18.346  1.00  0.00     0.422 P 
HETATM    9  O1  UNL     1      58.843   0.004  17.274  1.00  0.00    -0.617 OA
HETATM   10  O2  UNL     1      57.979   1.126  19.457  1.00  0.00    -0.617 OA
HETATM   11  O3  UNL     1      58.067  -1.578  19.157  1.00  0.00    -0.617 OA
ENDBRANCH   7   8
ENDBRANCH   1   7
BRANCH   2  12
HETATM   12  O5  UNL     1      54.368   1.477  17.932  1.00  0.00    -0.390 OA
ATOM     13  H5  UNL     1      53.575   1.638  17.433  1.00  0.00     0.210 HD
ENDBRANCH   2  12
BRANCH   6  14
HETATM   14  O18 UNL     1      55.889  -1.019  14.894  1.00  0.00    -0.390 OA
ATOM     15  H18 UNL     1      55.323  -1.464  14.276  1.00  0.00     0.210 HD
ENDBRANCH   6  14
BRANCH   3  16
HETATM   16  O6  UNL     1      54.273   3.859  16.773  1.00  0.00    -0.272 OA
BRANCH  16  17
HETATM   17  P2  UNL     1      55.367   4.864  17.544  1.00  0.00     0.422 P 
HETATM   18  O7  UNL     1      55.530   4.543  19.012  1.00  0.00    -0.617 OA
HETATM   19  O8  UNL     1      54.804   6.478  17.471  1.00  0.00    -0.617 OA
HETATM   20  O9  UNL     1      56.864   4.849  16.735  1.00  0.00    -0.617 OA
ENDBRANCH  16  17
ENDBRANCH   3  16
BRANCH   5  21
HETATM   21  O14 UNL     1      54.341   0.577  13.330  1.00  0.00    -0.272 OA
BRANCH  21  22
HETATM   22  P4  UNL     1      54.762   1.574  12.028  1.00  0.00     0.422 P 
HETATM   23  O15 UNL     1      56.061   2.319  12.318  1.00  0.00    -0.617 OA
HETATM   24  O16 UNL     1      54.994   0.707  10.609  1.00  0.00    -0.617 OA
HETATM   25  O17 UNL     1      53.580   2.748  11.744  1.00  0.00    -0.617 OA
ENDBRANCH  21  22
ENDBRANCH   5  21
BRANCH   4  26
HETATM   26  O10 UNL     1      53.142   1.357  15.957  1.00  0.00    -0.272 OA
BRANCH  26  27
HETATM   27  P3  UNL     1      51.534   1.666  15.620  1.00  0.00     0.422 P 
HETATM   28  O11 UNL     1      51.334   2.431  14.339  1.00  0.00    -0.617 OA
HETATM   29  O12 UNL     1      50.908   2.605  16.884  1.00  0.00    -0.617 OA
HETATM   30  O13 UNL     1      50.661   0.214  15.588  1.00  0.00    -0.617 OA
ENDBRANCH  26  27
ENDBRANCH   4  26
TORSDOF 10
ENDMDL
