MODEL 3
REMARK VINA RESULT: -6.780314434      1.465      4.892
REMARK  10 active torsions:
REMARK  status: ('A' for Active; 'I' for Inactive)
REMARK    1  A    between atoms: P1_2  and  O4_5 
REMARK    2  A    between atoms: O4_5  and  C1_6 
REMARK    3  A    between atoms: C2_7  and  O5_8 
REMARK    4  A    between atoms: C3_10  and  O6_11 
REMARK    5  A    between atoms: O6_11  and  P2_12 
REMARK    6  A    between atoms: C4_16  and  O10_17 
REMARK    7  A    between atoms: O10_17  and  P3_18 
REMARK    8  A    between atoms: C5_22  and  O14_23 
REMARK    9  A    between atoms: O14_23  and  P4_24 
REMARK   10  A    between atoms: C6_28  and  O18_29 
ROOT
HETATM    1  C1  UNL     1      55.220   3.875  16.229  1.00  0.00     0.198 C 
HETATM    2  C2  UNL     1      54.255   2.887  16.850  1.00  0.00     0.182 C 
HETATM    3  C3  UNL     1      53.852   1.789  15.912  1.00  0.00     0.199 C 
HETATM    4  C4  UNL     1      55.119   1.134  15.388  1.00  0.00     0.200 C 
HETATM    5  C5  UNL     1      55.799   2.217  14.541  1.00  0.00     0.199 C 
HETATM    6  C6  UNL     1      56.386   3.195  15.553  1.00  0.00     0.182 C 
ENDROOT
BRANCH   1   7
HETATM    7  O4  UNL     1      55.611   4.688  17.280  1.00  0.00    -0.272 OA
BRANCH   7   8
HETATM    8  P1  UNL     1      54.426   5.522  18.043  1.00  0.00     0.422 P 
HETATM    9  O1  UNL     1      54.759   7.003  18.049  1.00  0.00    -0.617 OA
HETATM   10  O2  UNL     1      52.884   5.316  17.411  1.00  0.00    -0.617 OA
HETATM   11  O3  UNL     1      54.379   5.033  19.667  1.00  0.00    -0.617 OA
ENDBRANCH   7   8
ENDBRANCH   1   7
BRANCH   2  12
HETATM   12  O5  UNL     1      54.884   2.322  17.956  1.00  0.00    -0.390 OA
ATOM     13  H5  UNL     1      55.232   1.479  17.689  1.00  0.00     0.210 HD
ENDBRANCH   2  12
BRANCH   6  14
HETATM   14  O18 UNL     1      57.130   4.116  14.872  1.00  0.00    -0.390 OA
ATOM     15  H18 UNL     1      57.219   4.908  15.388  1.00  0.00     0.210 HD
ENDBRANCH   6  14
BRANCH   3  16
HETATM   16  O6  UNL     1      53.091   0.877  16.642  1.00  0.00    -0.272 OA
BRANCH  16  17
HETATM   17  P2  UNL     1      51.467   1.094  16.303  1.00  0.00     0.422 P 
HETATM   18  O7  UNL     1      50.647  -0.158  16.517  1.00  0.00    -0.617 OA
HETATM   19  O8  UNL     1      51.283   1.504  14.652  1.00  0.00    -0.617 OA
HETATM   20  O9  UNL     1      50.842   2.405  17.189  1.00  0.00    -0.617 OA
ENDBRANCH  16  17
ENDBRANCH   3  16
BRANCH   5  21
HETATM   21  O14 UNL     1      56.730   1.701  13.690  1.00  0.00    -0.272 OA
BRANCH  21  22
HETATM   22  P4  UNL     1      55.941   1.122  12.308  1.00  0.00     0.422 P 
HETATM   23  O15 UNL     1      56.682   1.550  11.046  1.00  0.00    -0.617 OA
HETATM   24  O16 UNL     1      55.846  -0.554  12.282  1.00  0.00    -0.617 OA
HETATM   25  O17 UNL     1      54.374   1.743  12.187  1.00  0.00    -0.617 OA
ENDBRANCH  21  22
ENDBRANCH   5  21
BRANCH   4  26
HETATM   26  O10 UNL     1      55.951   0.891  16.462  1.00  0.00    -0.272 OA
BRANCH  26  27
HETATM   27  P3  UNL     1      56.325  -0.725  16.668  1.00  0.00     0.422 P 
HETATM   28  O11 UNL     1      55.902  -1.584  15.508  1.00  0.00    -0.617 OA
HETATM   29  O12 UNL     1      55.507  -1.279  18.045  1.00  0.00    -0.617 OA
HETATM   30  O13 UNL     1      57.986  -0.900  16.962  1.00  0.00    -0.617 OA
ENDBRANCH  26  27
ENDBRANCH   4  26
TORSDOF 10
ENDMDL
