MODEL 4
REMARK VINA RESULT: -6.634676847      1.493      5.200
REMARK  10 active torsions:
REMARK  status: ('A' for Active; 'I' for Inactive)
REMARK    1  A    between atoms: P1_2  and  O4_5 
REMARK    2  A    between atoms: O4_5  and  C1_6 
REMARK    3  A    between atoms: C2_7  and  O5_8 
REMARK    4  A    between atoms: C3_10  and  O6_11 
REMARK    5  A    between atoms: O6_11  and  P2_12 
REMARK    6  A    between atoms: C4_16  and  O10_17 
REMARK    7  A    between atoms: O10_17  and  P3_18 
REMARK    8  A    between atoms: C5_22  and  O14_23 
REMARK    9  A    between atoms: O14_23  and  P4_24 
REMARK   10  A    between atoms: C6_28  and  O18_29 
ROOT
HETATM    1  C1  UNL     1      53.836   2.989  16.771  1.00  0.00     0.198 C 
HETATM    2  C2  UNL     1      55.279   2.536  16.694  1.00  0.00     0.182 C 
HETATM    3  C3  UNL     1      55.423   1.088  16.333  1.00  0.00     0.199 C 
HETATM    4  C4  UNL     1      54.656   0.850  15.043  1.00  0.00     0.200 C 
HETATM    5  C5  UNL     1      53.185   1.073  15.416  1.00  0.00     0.199 C 
HETATM    6  C6  UNL     1      53.039   2.584  15.554  1.00  0.00     0.182 C 
ENDROOT
BRANCH   1   7
HETATM    7  O4  UNL     1      53.909   4.363  16.929  1.00  0.00    -0.272 OA
BRANCH   7   8
HETATM    8  P1  UNL     1      53.987   4.921  18.466  1.00  0.00     0.422 P 
HETATM    9  O1  UNL     1      52.908   4.264  19.309  1.00  0.00    -0.617 OA
HETATM   10  O2  UNL     1      55.468   4.716  19.230  1.00  0.00    -0.617 OA
HETATM   11  O3  UNL     1      53.645   6.583  18.457  1.00  0.00    -0.617 OA
ENDBRANCH   7   8
ENDBRANCH   1   7
BRANCH   2  12
HETATM   12  O5  UNL     1      55.910   3.305  15.721  1.00  0.00    -0.390 OA
ATOM     13  H5  UNL     1      55.601   3.006  14.874  1.00  0.00     0.210 HD
ENDBRANCH   2  12
BRANCH   6  14
HETATM   14  O18 UNL     1      51.717   2.868  15.748  1.00  0.00    -0.390 OA
ATOM     15  H18 UNL     1      51.198   2.079  15.649  1.00  0.00     0.210 HD
ENDBRANCH   6  14
BRANCH   3  16
HETATM   16  O6  UNL     1      56.783   0.839  16.151  1.00  0.00    -0.272 OA
BRANCH  16  17
HETATM   17  P2  UNL     1      57.453   0.285  17.580  1.00  0.00     0.422 P 
HETATM   18  O7  UNL     1      58.792  -0.389  17.383  1.00  0.00    -0.617 OA
HETATM   19  O8  UNL     1      56.425  -0.896  18.269  1.00  0.00    -0.617 OA
HETATM   20  O9  UNL     1      57.555   1.545  18.720  1.00  0.00    -0.617 OA
ENDBRANCH  16  17
ENDBRANCH   3  16
BRANCH   5  21
HETATM   21  O14 UNL     1      52.331   0.532  14.501  1.00  0.00    -0.272 OA
BRANCH  21  22
HETATM   22  P4  UNL     1      51.381  -0.640  15.269  1.00  0.00     0.422 P 
HETATM   23  O15 UNL     1      50.666  -0.046  16.478  1.00  0.00    -0.617 OA
HETATM   24  O16 UNL     1      50.200  -1.270  14.256  1.00  0.00    -0.617 OA
HETATM   25  O17 UNL     1      52.325  -1.919  15.842  1.00  0.00    -0.617 OA
ENDBRANCH  21  22
ENDBRANCH   5  21
BRANCH   4  26
HETATM   26  O10 UNL     1      54.995   1.849  14.153  1.00  0.00    -0.272 OA
BRANCH  26  27
HETATM   27  P3  UNL     1      55.341   1.289  12.617  1.00  0.00     0.422 P 
HETATM   28  O11 UNL     1      56.361   2.130  11.897  1.00  0.00    -0.617 OA
HETATM   29  O12 UNL     1      53.910   1.328  11.712  1.00  0.00    -0.617 OA
HETATM   30  O13 UNL     1      55.850  -0.326  12.692  1.00  0.00    -0.617 OA
ENDBRANCH  26  27
ENDBRANCH   4  26
TORSDOF 10
ENDMDL
