MODEL 14
REMARK VINA RESULT: -8.637836303      3.682      5.863
REMARK  10 active torsions:
REMARK  status: ('A' for Active; 'I' for Inactive)
REMARK    1  A    between atoms: C4_7  and  C5_8 
REMARK    2  A    between atoms: C9_12  and  O1_13 
REMARK    3  A    between atoms: O1_13  and  C10_14 
REMARK    4  A    between atoms: C11_17  and  O2_18 
REMARK    5  A    between atoms: O2_18  and  C12_19 
REMARK    6  A    between atoms: C14_21  and  C15_22 
REMARK    7  A    between atoms: C18_29  and  O3_30 
REMARK    8  A    between atoms: C20_34  and  N6_35 
REMARK    9  A    between atoms: N6_35  and  C22_37 
REMARK   10  A    between atoms: C22_37  and  C23_38 
ROOT
HETATM    1  C10 UNL     1       6.033   6.656  20.182  1.00  0.00     0.191 A 
HETATM    2  N3  UNL     1       4.741   6.694  20.601  1.00  0.00    -0.312 N 
ATOM      3  H3  UNL     1       4.126   5.918  20.357  1.00  0.00     0.170 HD
HETATM    4  C11 UNL     1       4.230   7.732  21.337  1.00  0.00     0.192 A 
HETATM    5  C19 UNL     1       5.029   8.789  21.677  1.00  0.00     0.197 A 
HETATM    6  F1  UNL     1       4.546   9.864  22.353  1.00  0.00    -0.199 F 
HETATM    7  C20 UNL     1       6.362   8.814  21.281  1.00  0.00     0.117 A 
HETATM    8  C24 UNL     1       6.825   7.760  20.552  1.00  0.00     0.197 A 
HETATM    9  F2  UNL     1       8.111   7.758  20.157  1.00  0.00    -0.199 F 
ENDROOT
BRANCH   1  10
HETATM   10  O1  UNL     1       6.568   5.698  19.482  1.00  0.00    -0.291 OA
BRANCH  10  11
HETATM   11  C9  UNL     1       6.985   4.612  18.985  1.00  0.00     0.079 A 
HETATM   12  C8  UNL     1       8.112   3.929  19.468  1.00  0.00     0.037 A 
HETATM   13  C7  UNL     1       8.540   2.750  18.905  1.00  0.00     0.004 A 
HETATM   14  C6  UNL     1       7.833   2.226  17.830  1.00  0.00     0.015 A 
HETATM   15  C5  UNL     1       6.716   2.848  17.309  1.00  0.00     0.010 A 
HETATM   16  C25 UNL     1       6.331   4.013  17.898  1.00  0.00     0.052 A 
BRANCH  15  17
HETATM   17  C4  UNL     1       5.993   2.239  16.171  1.00  0.00     0.109 C 
HETATM   18  N1  UNL     1       4.749   1.570  16.157  1.00  0.00    -0.370 N 
HETATM   19  C1  UNL     1       3.672   1.711  17.084  1.00  0.00     0.151 C 
HETATM   20  C2  UNL     1       4.775   0.691  14.973  1.00  0.00     0.143 C 
HETATM   21  C3  UNL     1       5.581   1.584  14.033  1.00  0.00     0.141 C 
HETATM   22  N2  UNL     1       6.461   2.243  14.947  1.00  0.00    -0.374 N 
ATOM     23  H2  UNL     1       7.349   2.668  14.677  1.00  0.00     0.161 HD
ENDBRANCH  15  17
ENDBRANCH  10  11
ENDBRANCH   1  10
BRANCH   4  24
HETATM   24  O2  UNL     1       2.906   7.684  21.712  1.00  0.00    -0.288 OA
BRANCH  24  25
HETATM   25  C12 UNL     1       2.320   7.554  22.936  1.00  0.00     0.112 A 
HETATM   26  C13 UNL     1       2.091   8.745  23.665  1.00  0.00     0.055 A 
HETATM   27  C14 UNL     1       1.512   8.792  24.908  1.00  0.00     0.007 A 
HETATM   28  C16 UNL     1       1.127   7.606  25.494  1.00  0.00     0.018 A 
HETATM   29  C17 UNL     1       1.326   6.422  24.827  1.00  0.00     0.040 A 
HETATM   30  C18 UNL     1       1.911   6.418  23.578  1.00  0.00     0.099 A 
BRANCH  27  31
HETATM   31  C15 UNL     1       1.301  10.055  25.596  1.00  0.00     0.120 C 
HETATM   32  N4  UNL     1      -0.061  10.527  25.684  1.00  0.00    -0.082 NA
HETATM   33  N5  UNL     1       2.242  10.720  26.101  1.00  0.00    -0.387 N 
ATOM     34  H52 UNL     1       3.204  10.386  26.039  1.00  0.00     0.157 HD
ATOM     35  H51 UNL     1       2.094  11.606  26.584  1.00  0.00     0.157 HD
ENDBRANCH  27  31
BRANCH  30  36
HETATM   36  O3  UNL     1       2.071   5.200  22.986  1.00  0.00    -0.358 OA
ATOM     37  H3  UNL     1       2.296   4.440  23.509  1.00  0.00     0.217 HD
ENDBRANCH  30  36
ENDBRANCH  24  25
ENDBRANCH   4  24
BRANCH   7  38
HETATM   38  N6  UNL     1       7.178   9.917  21.641  1.00  0.00    -0.370 N 
HETATM   39  C21 UNL     1       7.682  10.777  20.604  1.00  0.00     0.150 C 
BRANCH  38  40
HETATM   40  C22 UNL     1       7.471  10.184  23.014  1.00  0.00     0.235 C 
BRANCH  40  41
HETATM   41  C23 UNL     1       8.517   9.303  23.593  1.00  0.00     0.191 C 
HETATM   42  O4  UNL     1       9.746   9.525  23.322  1.00  0.00    -0.647 OA
HETATM   43  O5  UNL     1       8.143   8.260  24.409  1.00  0.00    -0.647 OA
ENDBRANCH  40  41
ENDBRANCH  38  40
ENDBRANCH   7  38
TORSDOF 10
ENDMDL
