MODEL 15
REMARK VINA RESULT: -8.625521252      3.583      6.560
REMARK  10 active torsions:
REMARK  status: ('A' for Active; 'I' for Inactive)
REMARK    1  A    between atoms: C4_7  and  C5_8 
REMARK    2  A    between atoms: C9_12  and  O1_13 
REMARK    3  A    between atoms: O1_13  and  C10_14 
REMARK    4  A    between atoms: C11_17  and  O2_18 
REMARK    5  A    between atoms: O2_18  and  C12_19 
REMARK    6  A    between atoms: C14_21  and  C15_22 
REMARK    7  A    between atoms: C18_29  and  O3_30 
REMARK    8  A    between atoms: C20_34  and  N6_35 
REMARK    9  A    between atoms: N6_35  and  C22_37 
REMARK   10  A    between atoms: C22_37  and  C23_38 
ROOT
HETATM    1  C10 UNL     1       5.259   4.064  21.173  1.00  0.00     0.191 A 
HETATM    2  N3  UNL     1       5.559   5.357  21.461  1.00  0.00    -0.312 N 
ATOM      3  H3  UNL     1       6.402   5.764  21.056  1.00  0.00     0.170 HD
HETATM    4  C11 UNL     1       4.777   6.137  22.274  1.00  0.00     0.192 A 
HETATM    5  C19 UNL     1       3.642   5.619  22.835  1.00  0.00     0.197 A 
HETATM    6  F1  UNL     1       2.873   6.340  23.692  1.00  0.00    -0.199 F 
HETATM    7  C20 UNL     1       3.275   4.301  22.581  1.00  0.00     0.117 A 
HETATM    8  C24 UNL     1       4.083   3.566  21.767  1.00  0.00     0.197 A 
HETATM    9  F2  UNL     1       3.751   2.289  21.504  1.00  0.00    -0.199 F 
ENDROOT
BRANCH   1  10
HETATM   10  O1  UNL     1       5.965   3.280  20.411  1.00  0.00    -0.291 OA
BRANCH  10  11
HETATM   11  C9  UNL     1       6.556   2.666  19.477  1.00  0.00     0.079 A 
HETATM   12  C8  UNL     1       7.830   2.092  19.620  1.00  0.00     0.037 A 
HETATM   13  C7  UNL     1       8.445   1.429  18.584  1.00  0.00     0.004 A 
HETATM   14  C6  UNL     1       7.783   1.328  17.367  1.00  0.00     0.015 A 
HETATM   15  C5  UNL     1       6.530   1.869  17.162  1.00  0.00     0.010 A 
HETATM   16  C25 UNL     1       5.961   2.516  18.215  1.00  0.00     0.052 A 
BRANCH  15  17
HETATM   17  C4  UNL     1       5.866   1.720  15.848  1.00  0.00     0.109 C 
HETATM   18  N1  UNL     1       4.667   1.048  15.524  1.00  0.00    -0.370 N 
HETATM   19  C1  UNL     1       3.568   0.758  16.388  1.00  0.00     0.151 C 
HETATM   20  C2  UNL     1       4.768   0.708  14.092  1.00  0.00     0.143 C 
HETATM   21  C3  UNL     1       5.530   1.939  13.610  1.00  0.00     0.141 C 
HETATM   22  N2  UNL     1       6.353   2.230  14.743  1.00  0.00    -0.374 N 
ATOM     23  H2  UNL     1       7.217   2.771  14.697  1.00  0.00     0.161 HD
ENDBRANCH  15  17
ENDBRANCH  10  11
ENDBRANCH   1  10
BRANCH   4  24
HETATM   24  O2  UNL     1       5.166   7.436  22.511  1.00  0.00    -0.288 OA
BRANCH  24  25
HETATM   25  C12 UNL     1       6.358   8.070  22.322  1.00  0.00     0.112 A 
HETATM   26  C13 UNL     1       7.101   8.394  23.482  1.00  0.00     0.055 A 
HETATM   27  C14 UNL     1       8.317   9.030  23.470  1.00  0.00     0.007 A 
HETATM   28  C16 UNL     1       8.856   9.381  22.253  1.00  0.00     0.018 A 
HETATM   29  C17 UNL     1       8.175   9.089  21.097  1.00  0.00     0.040 A 
HETATM   30  C18 UNL     1       6.956   8.448  21.152  1.00  0.00     0.099 A 
BRANCH  27  31
HETATM   31  C15 UNL     1       9.028   9.324  24.703  1.00  0.00     0.120 C 
HETATM   32  N4  UNL     1       8.773   8.451  25.825  1.00  0.00    -0.082 NA
HETATM   33  N5  UNL     1       9.834  10.284  24.810  1.00  0.00    -0.387 N 
ATOM     34  H52 UNL     1      10.015  10.901  24.017  1.00  0.00     0.157 HD
ATOM     35  H51 UNL     1      10.334  10.490  25.675  1.00  0.00     0.157 HD
ENDBRANCH  27  31
BRANCH  30  36
HETATM   36  O3  UNL     1       6.347   8.194  19.958  1.00  0.00    -0.358 OA
ATOM     37  H3  UNL     1       6.437   8.806  19.237  1.00  0.00     0.217 HD
ENDBRANCH  30  36
ENDBRANCH  24  25
ENDBRANCH   4  24
BRANCH   7  38
HETATM   38  N6  UNL     1       2.096   3.778  23.171  1.00  0.00    -0.370 N 
HETATM   39  C21 UNL     1       0.857   3.871  22.448  1.00  0.00     0.150 C 
BRANCH  38  40
HETATM   40  C22 UNL     1       2.146   3.146  24.451  1.00  0.00     0.235 C 
BRANCH  40  41
HETATM   41  C23 UNL     1       1.907   1.679  24.412  1.00  0.00     0.191 C 
HETATM   42  O4  UNL     1       0.809   1.210  24.867  1.00  0.00    -0.647 OA
HETATM   43  O5  UNL     1       2.875   0.853  23.889  1.00  0.00    -0.647 OA
ENDBRANCH  40  41
ENDBRANCH  38  40
ENDBRANCH   7  38
TORSDOF 10
ENDMDL
