MODEL 9
REMARK VINA RESULT: -8.790562067      3.908      6.313
REMARK  10 active torsions:
REMARK  status: ('A' for Active; 'I' for Inactive)
REMARK    1  A    between atoms: C4_7  and  C5_8 
REMARK    2  A    between atoms: C9_12  and  O1_13 
REMARK    3  A    between atoms: O1_13  and  C10_14 
REMARK    4  A    between atoms: C11_17  and  O2_18 
REMARK    5  A    between atoms: O2_18  and  C12_19 
REMARK    6  A    between atoms: C14_21  and  C15_22 
REMARK    7  A    between atoms: C18_29  and  O3_30 
REMARK    8  A    between atoms: C20_34  and  N6_35 
REMARK    9  A    between atoms: N6_35  and  C22_37 
REMARK   10  A    between atoms: C22_37  and  C23_38 
ROOT
HETATM    1  C10 UNL     1       6.080   7.135  19.778  1.00  0.00     0.191 A 
HETATM    2  N3  UNL     1       6.144   8.394  19.271  1.00  0.00    -0.312 N 
ATOM      3  H3  UNL     1       6.636   8.541  18.389  1.00  0.00     0.170 HD
HETATM    4  C11 UNL     1       5.576   9.475  19.896  1.00  0.00     0.192 A 
HETATM    5  C19 UNL     1       4.913   9.311  21.081  1.00  0.00     0.197 A 
HETATM    6  F1  UNL     1       4.389  10.363  21.760  1.00  0.00    -0.199 F 
HETATM    7  C20 UNL     1       4.810   8.048  21.655  1.00  0.00     0.117 A 
HETATM    8  C24 UNL     1       5.389   7.005  20.997  1.00  0.00     0.197 A 
HETATM    9  F2  UNL     1       5.303   5.772  21.530  1.00  0.00    -0.199 F 
ENDROOT
BRANCH   1  10
HETATM   10  O1  UNL     1       6.601   6.077  19.227  1.00  0.00    -0.291 OA
BRANCH  10  11
HETATM   11  C9  UNL     1       6.970   4.920  18.872  1.00  0.00     0.079 A 
HETATM   12  C8  UNL     1       8.018   4.223  19.492  1.00  0.00     0.037 A 
HETATM   13  C7  UNL     1       8.394   2.965  19.082  1.00  0.00     0.004 A 
HETATM   14  C6  UNL     1       7.712   2.375  18.026  1.00  0.00     0.015 A 
HETATM   15  C5  UNL     1       6.672   3.007  17.375  1.00  0.00     0.010 A 
HETATM   16  C25 UNL     1       6.336   4.249  17.815  1.00  0.00     0.052 A 
BRANCH  15  17
HETATM   17  C4  UNL     1       5.972   2.325  16.263  1.00  0.00     0.109 C 
HETATM   18  N1  UNL     1       4.738   1.637  16.272  1.00  0.00    -0.370 N 
HETATM   19  C1  UNL     1       3.648   1.812  17.177  1.00  0.00     0.151 C 
HETATM   20  C2  UNL     1       4.792   0.696  15.138  1.00  0.00     0.143 C 
HETATM   21  C3  UNL     1       5.595   1.548  14.160  1.00  0.00     0.141 C 
HETATM   22  N2  UNL     1       6.454   2.270  15.046  1.00  0.00    -0.374 N 
ATOM     23  H2  UNL     1       7.339   2.693  14.764  1.00  0.00     0.161 HD
ENDBRANCH  15  17
ENDBRANCH  10  11
ENDBRANCH   1  10
BRANCH   4  24
HETATM   24  O2  UNL     1       5.697  10.714  19.307  1.00  0.00    -0.288 OA
BRANCH  24  25
HETATM   25  C12 UNL     1       6.296  11.862  19.735  1.00  0.00     0.112 A 
HETATM   26  C13 UNL     1       5.573  13.065  19.556  1.00  0.00     0.055 A 
HETATM   27  C14 UNL     1       6.029  14.304  19.929  1.00  0.00     0.007 A 
HETATM   28  C16 UNL     1       7.271  14.392  20.517  1.00  0.00     0.018 A 
HETATM   29  C17 UNL     1       8.013  13.253  20.714  1.00  0.00     0.040 A 
HETATM   30  C18 UNL     1       7.518  12.026  20.325  1.00  0.00     0.099 A 
BRANCH  27  31
HETATM   31  C15 UNL     1       5.227  15.498  19.720  1.00  0.00     0.120 C 
HETATM   32  N4  UNL     1       4.729  16.162  20.902  1.00  0.00    -0.082 NA
HETATM   33  N5  UNL     1       4.969  15.952  18.575  1.00  0.00    -0.387 N 
ATOM     34  H52 UNL     1       5.321  15.483  17.740  1.00  0.00     0.157 HD
ATOM     35  H51 UNL     1       4.407  16.790  18.429  1.00  0.00     0.157 HD
ENDBRANCH  27  31
BRANCH  30  36
HETATM   36  O3  UNL     1       8.318  10.946  20.559  1.00  0.00    -0.358 OA
ATOM     37  H3  UNL     1       8.700  10.468  19.832  1.00  0.00     0.217 HD
ENDBRANCH  30  36
ENDBRANCH  24  25
ENDBRANCH   4  24
BRANCH   7  38
HETATM   38  N6  UNL     1       4.120   7.894  22.885  1.00  0.00    -0.370 N 
HETATM   39  C21 UNL     1       2.685   7.797  22.870  1.00  0.00     0.150 C 
BRANCH  38  40
HETATM   40  C22 UNL     1       4.842   7.809  24.115  1.00  0.00     0.235 C 
BRANCH  40  41
HETATM   41  C23 UNL     1       5.021   9.113  24.804  1.00  0.00     0.191 C 
HETATM   42  O4  UNL     1       4.000   9.844  25.038  1.00  0.00    -0.647 OA
HETATM   43  O5  UNL     1       6.285   9.510  25.176  1.00  0.00    -0.647 OA
ENDBRANCH  40  41
ENDBRANCH  38  40
ENDBRANCH   7  38
TORSDOF 10
ENDMDL
