MODEL 3
REMARK VINA RESULT: -7.664316598      1.278      4.363
REMARK  12 active torsions:
REMARK  status: ('A' for Active; 'I' for Inactive)
REMARK    1  A    between atoms: C2_2  and  C3_3 
REMARK    2  A    between atoms: C3_3  and  C6_6 
REMARK    3  A    between atoms: C6_6  and  C7_8 
REMARK    4  A    between atoms: C7_8  and  O2_9 
REMARK    5  A    between atoms: C7_8  and  N1_11 
REMARK    6  A    between atoms: C12_16  and  C13_17 
REMARK    7  A    between atoms: C13_17  and  O4_19 
REMARK    8  A    between atoms: O4_19  and  C14_20 
REMARK    9  A    between atoms: C14_20  and  C15_21 
REMARK   10  A    between atoms: C14_20  and  C23_29 
REMARK   11  A    between atoms: C15_21  and  C16_22 
REMARK   12  A    between atoms: C16_22  and  C17_23 
ROOT
HETATM    1  C13 UNL     1     -27.913  28.580   4.458  1.00  0.00     0.282 C 
HETATM    2  O3  UNL     1     -27.686  28.052   5.571  1.00  0.00    -0.263 OA
ENDROOT
BRANCH   1   3
HETATM    3  C12 UNL     1     -27.292  29.853   4.048  1.00  0.00     0.186 C 
HETATM    4  N1  UNL     1     -25.828  29.723   3.965  1.00  0.00    -0.345 N 
HETATM    5  C8  UNL     1     -25.279  29.946   2.664  1.00  0.00     0.126 C 
HETATM    6  C9  UNL     1     -25.553  31.368   2.192  1.00  0.00     0.020 C 
HETATM    7  C10 UNL     1     -27.039  31.558   2.258  1.00  0.00     0.004 C 
HETATM    8  C11 UNL     1     -27.797  30.362   2.736  1.00  0.00     0.035 C 
BRANCH   4   9
HETATM    9  C7  UNL     1     -25.089  29.405   5.114  1.00  0.00     0.186 C 
BRANCH   9  10
HETATM   10  C6  UNL     1     -24.864  30.218   6.274  1.00  0.00     0.207 C 
HETATM   11  O1  UNL     1     -25.615  30.126   7.281  1.00  0.00    -0.288 OA
BRANCH  10  12
HETATM   12  C3  UNL     1     -23.753  31.210   6.374  1.00  0.00     0.021 C 
HETATM   13  C4  UNL     1     -24.118  32.422   5.596  1.00  0.00     0.023 C 
HETATM   14  C5  UNL     1     -23.636  31.644   7.843  1.00  0.00     0.023 C 
BRANCH  12  15
HETATM   15  C2  UNL     1     -22.443  30.608   6.008  1.00  0.00     0.012 C 
HETATM   16  C1  UNL     1     -21.839  29.786   7.123  1.00  0.00     0.006 C 
ENDBRANCH  12  15
ENDBRANCH  10  12
ENDBRANCH   9  10
BRANCH   9  17
HETATM   17  O2  UNL     1     -24.516  28.235   5.182  1.00  0.00    -0.343 OA
ATOM     18  H2  UNL     1     -25.043  27.534   4.815  1.00  0.00     0.219 HD
ENDBRANCH   9  17
ENDBRANCH   4   9
ENDBRANCH   1   3
BRANCH   1  19
HETATM   19  O4  UNL     1     -28.791  27.876   3.644  1.00  0.00    -0.310 OA
BRANCH  19  20
HETATM   20  C14 UNL     1     -28.584  26.544   3.233  1.00  0.00     0.165 C 
BRANCH  20  21
HETATM   21  C15 UNL     1     -29.269  25.547   4.124  1.00  0.00     0.042 C 
BRANCH  21  22
HETATM   22  C16 UNL     1     -30.600  26.024   4.590  1.00  0.00     0.041 C 
BRANCH  22  23
HETATM   23  C17 UNL     1     -30.456  26.419   6.037  1.00  0.00    -0.058 A 
HETATM   24  C18 UNL     1     -31.243  27.384   6.605  1.00  0.00     0.007 A 
HETATM   25  C19 UNL     1     -31.075  27.710   7.929  1.00  0.00     0.001 A 
HETATM   26  C20 UNL     1     -30.143  27.112   8.742  1.00  0.00     0.000 A 
HETATM   27  C21 UNL     1     -29.350  26.134   8.158  1.00  0.00     0.001 A 
HETATM   28  C22 UNL     1     -29.512  25.802   6.832  1.00  0.00     0.007 A 
ENDBRANCH  22  23
ENDBRANCH  21  22
ENDBRANCH  20  21
BRANCH  20  29
HETATM   29  C23 UNL     1     -27.152  26.251   3.008  1.00  0.00    -0.029 A 
HETATM   30  C24 UNL     1     -26.390  25.534   3.902  1.00  0.00     0.010 A 
HETATM   31  C25 UNL     1     -25.078  25.298   3.628  1.00  0.00     0.001 A 
HETATM   32  C26 UNL     1     -24.487  25.765   2.463  1.00  0.00     0.000 A 
HETATM   33  C27 UNL     1     -25.232  26.482   1.557  1.00  0.00     0.001 A 
HETATM   34  C28 UNL     1     -26.548  26.707   1.854  1.00  0.00     0.010 A 
ENDBRANCH  20  29
ENDBRANCH  19  20
ENDBRANCH   1  19
TORSDOF 12
ENDMDL
