MODEL 2
REMARK VINA RESULT: -7.744701206      1.595      5.586
REMARK  12 active torsions:
REMARK  status: ('A' for Active; 'I' for Inactive)
REMARK    1  A    between atoms: C2_2  and  C3_3 
REMARK    2  A    between atoms: C3_3  and  C6_6 
REMARK    3  A    between atoms: C6_6  and  C7_8 
REMARK    4  A    between atoms: C7_8  and  O2_9 
REMARK    5  A    between atoms: C7_8  and  N1_11 
REMARK    6  A    between atoms: C12_16  and  C13_17 
REMARK    7  A    between atoms: C13_17  and  O4_19 
REMARK    8  A    between atoms: O4_19  and  C14_20 
REMARK    9  A    between atoms: C14_20  and  C15_21 
REMARK   10  A    between atoms: C14_20  and  C23_29 
REMARK   11  A    between atoms: C15_21  and  C16_22 
REMARK   12  A    between atoms: C16_22  and  C17_23 
ROOT
HETATM    1  C13 UNL     1     -27.153  30.054   5.332  1.00  0.00     0.282 C 
HETATM    2  O3  UNL     1     -27.329  31.219   5.757  1.00  0.00    -0.263 OA
ENDROOT
BRANCH   1   3
HETATM    3  C12 UNL     1     -28.100  29.400   4.408  1.00  0.00     0.186 C 
HETATM    4  N1  UNL     1     -29.474  29.872   4.641  1.00  0.00    -0.345 N 
HETATM    5  C8  UNL     1     -30.075  30.540   3.529  1.00  0.00     0.126 C 
HETATM    6  C9  UNL     1     -30.201  29.605   2.334  1.00  0.00     0.020 C 
HETATM    7  C10 UNL     1     -28.822  29.087   2.052  1.00  0.00     0.004 C 
HETATM    8  C11 UNL     1     -27.764  29.612   2.967  1.00  0.00     0.035 C 
BRANCH   4   9
HETATM    9  C7  UNL     1     -30.089  29.649   5.882  1.00  0.00     0.186 C 
BRANCH   9  10
HETATM   10  C6  UNL     1     -31.070  28.659   6.218  1.00  0.00     0.207 C 
HETATM   11  O1  UNL     1     -32.240  28.993   6.541  1.00  0.00    -0.288 OA
BRANCH  10  12
HETATM   12  C3  UNL     1     -30.786  27.193   6.211  1.00  0.00     0.021 C 
HETATM   13  C4  UNL     1     -31.916  26.481   6.863  1.00  0.00     0.023 C 
HETATM   14  C5  UNL     1     -30.750  26.723   4.749  1.00  0.00     0.023 C 
BRANCH  12  15
HETATM   15  C2  UNL     1     -29.447  26.888   6.783  1.00  0.00     0.012 C 
HETATM   16  C1  UNL     1     -29.434  26.893   8.293  1.00  0.00     0.006 C 
ENDBRANCH  12  15
ENDBRANCH  10  12
ENDBRANCH   9  10
BRANCH   9  17
HETATM   17  O2  UNL     1     -29.760  30.414   6.887  1.00  0.00    -0.343 OA
ATOM     18  H2  UNL     1     -28.902  30.811   6.794  1.00  0.00     0.219 HD
ENDBRANCH   9  17
ENDBRANCH   4   9
ENDBRANCH   1   3
BRANCH   1  19
HETATM   19  O4  UNL     1     -26.003  29.428   5.794  1.00  0.00    -0.310 OA
BRANCH  19  20
HETATM   20  C14 UNL     1     -24.716  29.667   5.272  1.00  0.00     0.165 C 
BRANCH  20  21
HETATM   21  C15 UNL     1     -24.275  28.605   4.304  1.00  0.00     0.042 C 
BRANCH  21  22
HETATM   22  C16 UNL     1     -24.688  27.241   4.734  1.00  0.00     0.041 C 
BRANCH  22  23
HETATM   23  C17 UNL     1     -25.569  26.675   3.649  1.00  0.00    -0.058 A 
HETATM   24  C18 UNL     1     -25.206  26.709   2.331  1.00  0.00     0.007 A 
HETATM   25  C19 UNL     1     -26.042  26.180   1.378  1.00  0.00     0.001 A 
HETATM   26  C20 UNL     1     -27.253  25.601   1.672  1.00  0.00     0.000 A 
HETATM   27  C21 UNL     1     -27.612  25.569   3.013  1.00  0.00     0.001 A 
HETATM   28  C22 UNL     1     -26.781  26.098   3.973  1.00  0.00     0.007 A 
ENDBRANCH  22  23
ENDBRANCH  21  22
ENDBRANCH  20  21
BRANCH  20  29
HETATM   29  C23 UNL     1     -23.729  29.943   6.337  1.00  0.00    -0.029 A 
HETATM   30  C24 UNL     1     -24.085  30.424   7.577  1.00  0.00     0.010 A 
HETATM   31  C25 UNL     1     -23.123  30.652   8.511  1.00  0.00     0.001 A 
HETATM   32  C26 UNL     1     -21.783  30.409   8.244  1.00  0.00     0.000 A 
HETATM   33  C27 UNL     1     -21.407  29.928   7.013  1.00  0.00     0.001 A 
HETATM   34  C28 UNL     1     -22.391  29.707   6.089  1.00  0.00     0.010 A 
ENDBRANCH  20  29
ENDBRANCH  19  20
ENDBRANCH   1  19
TORSDOF 12
ENDMDL
