MODEL 1
REMARK VINA RESULT: -7.789433040      0.000      0.000
REMARK  12 active torsions:
REMARK  status: ('A' for Active; 'I' for Inactive)
REMARK    1  A    between atoms: C2_2  and  C3_3 
REMARK    2  A    between atoms: C3_3  and  C6_6 
REMARK    3  A    between atoms: C6_6  and  C7_8 
REMARK    4  A    between atoms: C7_8  and  O2_9 
REMARK    5  A    between atoms: C7_8  and  N1_11 
REMARK    6  A    between atoms: C12_16  and  C13_17 
REMARK    7  A    between atoms: C13_17  and  O4_19 
REMARK    8  A    between atoms: O4_19  and  C14_20 
REMARK    9  A    between atoms: C14_20  and  C15_21 
REMARK   10  A    between atoms: C14_20  and  C23_29 
REMARK   11  A    between atoms: C15_21  and  C16_22 
REMARK   12  A    between atoms: C16_22  and  C17_23 
ROOT
HETATM    1  C13 UNL     1     -28.915  30.223   4.575  1.00  0.00     0.282 C 
HETATM    2  O3  UNL     1     -29.581  31.082   5.197  1.00  0.00    -0.263 OA
ENDROOT
BRANCH   1   3
HETATM    3  C12 UNL     1     -27.505  30.439   4.196  1.00  0.00     0.186 C 
HETATM    4  N1  UNL     1     -26.597  29.802   5.164  1.00  0.00    -0.345 N 
HETATM    5  C8  UNL     1     -25.764  28.776   4.618  1.00  0.00     0.126 C 
HETATM    6  C9  UNL     1     -24.836  29.337   3.549  1.00  0.00     0.020 C 
HETATM    7  C10 UNL     1     -25.712  30.004   2.532  1.00  0.00     0.004 C 
HETATM    8  C11 UNL     1     -27.175  29.929   2.830  1.00  0.00     0.035 C 
BRANCH   4   9
HETATM    9  C7  UNL     1     -26.598  30.220   6.502  1.00  0.00     0.186 C 
BRANCH   9  10
HETATM   10  C6  UNL     1     -25.967  31.377   7.068  1.00  0.00     0.207 C 
HETATM   11  O1  UNL     1     -26.647  32.260   7.655  1.00  0.00    -0.288 OA
BRANCH  10  12
HETATM   12  C3  UNL     1     -24.495  31.618   7.006  1.00  0.00     0.021 C 
HETATM   13  C4  UNL     1     -24.172  32.298   5.724  1.00  0.00     0.023 C 
HETATM   14  C5  UNL     1     -24.127  32.597   8.132  1.00  0.00     0.023 C 
BRANCH  12  15
HETATM   15  C2  UNL     1     -23.722  30.374   7.262  1.00  0.00     0.012 C 
HETATM   16  C1  UNL     1     -22.574  30.182   6.298  1.00  0.00     0.006 C 
ENDBRANCH  12  15
ENDBRANCH  10  12
ENDBRANCH   9  10
BRANCH   9  17
HETATM   17  O2  UNL     1     -27.239  29.499   7.381  1.00  0.00    -0.343 OA
ATOM     18  H2  UNL     1     -26.765  28.719   7.647  1.00  0.00     0.219 HD
ENDBRANCH   9  17
ENDBRANCH   4   9
ENDBRANCH   1   3
BRANCH   1  19
HETATM   19  O4  UNL     1     -29.604  29.056   4.269  1.00  0.00    -0.310 OA
BRANCH  19  20
HETATM   20  C14 UNL     1     -29.200  27.773   4.688  1.00  0.00     0.165 C 
BRANCH  20  21
HETATM   21  C15 UNL     1     -29.593  26.694   3.719  1.00  0.00     0.042 C 
BRANCH  21  22
HETATM   22  C16 UNL     1     -28.812  25.443   3.917  1.00  0.00     0.041 C 
BRANCH  22  23
HETATM   23  C17 UNL     1     -27.470  25.640   3.259  1.00  0.00    -0.058 A 
HETATM   24  C18 UNL     1     -26.300  25.333   3.896  1.00  0.00     0.007 A 
HETATM   25  C19 UNL     1     -25.101  25.530   3.255  1.00  0.00     0.001 A 
HETATM   26  C20 UNL     1     -25.000  26.028   1.978  1.00  0.00     0.000 A 
HETATM   27  C21 UNL     1     -26.193  26.335   1.339  1.00  0.00     0.001 A 
HETATM   28  C22 UNL     1     -27.397  26.142   1.975  1.00  0.00     0.007 A 
ENDBRANCH  22  23
ENDBRANCH  21  22
ENDBRANCH  20  21
BRANCH  20  29
HETATM   29  C23 UNL     1     -29.605  27.493   6.082  1.00  0.00    -0.029 A 
HETATM   30  C24 UNL     1     -30.588  28.207   6.730  1.00  0.00     0.010 A 
HETATM   31  C25 UNL     1     -30.912  27.891   8.013  1.00  0.00     0.001 A 
HETATM   32  C26 UNL     1     -30.273  26.861   8.688  1.00  0.00     0.000 A 
HETATM   33  C27 UNL     1     -29.290  26.136   8.058  1.00  0.00     0.001 A 
HETATM   34  C28 UNL     1     -28.980  26.471   6.769  1.00  0.00     0.010 A 
ENDBRANCH  20  29
ENDBRANCH  19  20
ENDBRANCH   1  19
TORSDOF 12
ENDMDL
