MODEL 3
REMARK VINA RESULT: -8.203351092      1.143      4.702
REMARK  10 active torsions:
REMARK  status: ('A' for Active; 'I' for Inactive)
REMARK    1  A    between atoms: C2_2  and  C3_3 
REMARK    2  A    between atoms: C3_3  and  C6_6 
REMARK    3  A    between atoms: C6_6  and  C7_8 
REMARK       I    between atoms: C7_8  and  N1_10 
REMARK    4  A    between atoms: C12_15  and  C13_16 
REMARK    5  A    between atoms: C13_16  and  O4_18 
REMARK    6  A    between atoms: O4_18  and  C14_19 
REMARK    7  A    between atoms: C14_19  and  C15_20 
REMARK    8  A    between atoms: C14_19  and  C23_28 
REMARK    9  A    between atoms: C15_20  and  C16_21 
REMARK   10  A    between atoms: C16_21  and  C17_22 
ROOT
HETATM    1  C13 UNL     1     -28.361  28.791  44.487  1.00  0.00     0.282 C 
HETATM    2  O3  UNL     1     -28.196  28.156  45.559  1.00  0.00    -0.263 OA
ENDROOT
BRANCH   1   3
HETATM    3  C12 UNL     1     -27.595  30.052  44.319  1.00  0.00     0.187 C 
HETATM    4  N1  UNL     1     -26.178  29.842  44.235  1.00  0.00    -0.332 N 
HETATM    5  C7  UNL     1     -25.333  30.037  45.349  1.00  0.00     0.291 C 
HETATM    6  C8  UNL     1     -25.620  29.421  42.986  1.00  0.00     0.127 C 
HETATM    7  O2  UNL     1     -25.811  30.412  46.480  1.00  0.00    -0.264 OA
HETATM    8  C9  UNL     1     -26.626  29.351  41.863  1.00  0.00     0.020 C 
HETATM    9  C10 UNL     1     -27.438  30.627  41.876  1.00  0.00     0.004 C 
HETATM   10  C11 UNL     1     -28.145  30.845  43.171  1.00  0.00     0.035 C 
BRANCH   5  11
HETATM   11  C6  UNL     1     -23.891  29.839  45.320  1.00  0.00     0.224 C 
HETATM   12  O1  UNL     1     -23.401  28.661  45.320  1.00  0.00    -0.286 OA
BRANCH  11  13
HETATM   13  C3  UNL     1     -22.910  30.934  45.291  1.00  0.00     0.022 C 
HETATM   14  C4  UNL     1     -23.326  32.073  44.408  1.00  0.00     0.023 C 
HETATM   15  C5  UNL     1     -22.665  31.502  46.675  1.00  0.00     0.023 C 
BRANCH  13  16
HETATM   16  C2  UNL     1     -21.604  30.399  44.746  1.00  0.00     0.012 C 
HETATM   17  C1  UNL     1     -20.541  31.472  44.637  1.00  0.00     0.006 C 
ENDBRANCH  13  16
ENDBRANCH  11  13
ENDBRANCH   5  11
ENDBRANCH   1   3
BRANCH   1  18
HETATM   18  O4  UNL     1     -29.225  28.265  43.579  1.00  0.00    -0.314 OA
BRANCH  18  19
HETATM   19  C14 UNL     1     -29.989  27.078  43.784  1.00  0.00     0.136 C 
BRANCH  19  20
HETATM   20  C15 UNL     1     -29.696  26.041  42.757  1.00  0.00     0.037 C 
BRANCH  20  21
HETATM   21  C16 UNL     1     -28.474  25.233  42.998  1.00  0.00     0.041 C 
BRANCH  21  22
HETATM   22  C17 UNL     1     -27.349  25.558  42.068  1.00  0.00    -0.058 A 
HETATM   23  C18 UNL     1     -26.027  25.509  42.393  1.00  0.00     0.007 A 
HETATM   24  C19 UNL     1     -25.070  25.847  41.445  1.00  0.00     0.001 A 
HETATM   25  C20 UNL     1     -25.439  26.227  40.195  1.00  0.00     0.000 A 
HETATM   26  C21 UNL     1     -26.765  26.273  39.881  1.00  0.00     0.001 A 
HETATM   27  C22 UNL     1     -27.729  25.945  40.793  1.00  0.00     0.007 A 
ENDBRANCH  21  22
ENDBRANCH  20  21
ENDBRANCH  19  20
BRANCH  19  28
HETATM   28  C23 UNL     1     -31.462  27.420  43.852  1.00  0.00     0.015 C 
HETATM   29  C24 UNL     1     -31.731  28.846  43.406  1.00  0.00     0.007 C 
HETATM   30  C25 UNL     1     -33.224  28.950  43.173  1.00  0.00     0.000 C 
HETATM   31  C26 UNL     1     -33.943  28.668  44.456  1.00  0.00     0.000 C 
HETATM   32  C27 UNL     1     -33.569  27.340  45.063  1.00  0.00     0.000 C 
HETATM   33  C28 UNL     1     -32.043  27.243  45.213  1.00  0.00     0.007 C 
ENDBRANCH  19  28
ENDBRANCH  18  19
ENDBRANCH   1  18
TORSDOF 10
ENDMDL
