MODEL 2
REMARK VINA RESULT: -8.344383474      1.704      7.422
REMARK  10 active torsions:
REMARK  status: ('A' for Active; 'I' for Inactive)
REMARK    1  A    between atoms: C2_2  and  C3_3 
REMARK    2  A    between atoms: C3_3  and  C6_6 
REMARK    3  A    between atoms: C6_6  and  C7_8 
REMARK       I    between atoms: C7_8  and  N1_10 
REMARK    4  A    between atoms: C12_15  and  C13_16 
REMARK    5  A    between atoms: C13_16  and  O4_18 
REMARK    6  A    between atoms: O4_18  and  C14_19 
REMARK    7  A    between atoms: C14_19  and  C15_20 
REMARK    8  A    between atoms: C14_19  and  C23_28 
REMARK    9  A    between atoms: C15_20  and  C16_21 
REMARK   10  A    between atoms: C16_21  and  C17_22 
ROOT
HETATM    1  C13 UNL     1     -25.277  26.680  42.657  1.00  0.00     0.282 C 
HETATM    2  O3  UNL     1     -24.138  26.379  42.217  1.00  0.00    -0.263 OA
ENDROOT
BRANCH   1   3
HETATM    3  C12 UNL     1     -26.396  25.761  42.330  1.00  0.00     0.187 C 
HETATM    4  N1  UNL     1     -27.672  26.250  42.767  1.00  0.00    -0.332 N 
HETATM    5  C7  UNL     1     -28.273  25.790  43.959  1.00  0.00     0.291 C 
HETATM    6  C8  UNL     1     -28.340  27.232  41.968  1.00  0.00     0.127 C 
HETATM    7  O2  UNL     1     -27.691  24.912  44.693  1.00  0.00    -0.264 OA
HETATM    8  C9  UNL     1     -27.627  27.554  40.677  1.00  0.00     0.020 C 
HETATM    9  C10 UNL     1     -27.243  26.250  40.013  1.00  0.00     0.004 C 
HETATM   10  C11 UNL     1     -26.367  25.404  40.874  1.00  0.00     0.035 C 
BRANCH   5  11
HETATM   11  C6  UNL     1     -29.564  26.251  44.449  1.00  0.00     0.224 C 
HETATM   12  O1  UNL     1     -30.640  25.903  43.860  1.00  0.00    -0.286 OA
BRANCH  11  13
HETATM   13  C3  UNL     1     -29.736  27.126  45.619  1.00  0.00     0.022 C 
HETATM   14  C4  UNL     1     -29.299  26.484  46.902  1.00  0.00     0.023 C 
HETATM   15  C5  UNL     1     -28.954  28.417  45.470  1.00  0.00     0.023 C 
BRANCH  13  16
HETATM   16  C2  UNL     1     -31.204  27.459  45.762  1.00  0.00     0.012 C 
HETATM   17  C1  UNL     1     -31.431  28.894  46.190  1.00  0.00     0.006 C 
ENDBRANCH  13  16
ENDBRANCH  11  13
ENDBRANCH   5  11
ENDBRANCH   1   3
BRANCH   1  18
HETATM   18  O4  UNL     1     -25.378  27.818  43.393  1.00  0.00    -0.314 OA
BRANCH  18  19
HETATM   19  C14 UNL     1     -24.487  28.928  43.291  1.00  0.00     0.136 C 
BRANCH  19  20
HETATM   20  C15 UNL     1     -23.825  29.233  44.589  1.00  0.00     0.037 C 
BRANCH  20  21
HETATM   21  C16 UNL     1     -23.006  30.471  44.610  1.00  0.00     0.041 C 
BRANCH  21  22
HETATM   22  C17 UNL     1     -21.586  30.241  45.015  1.00  0.00    -0.058 A 
HETATM   23  C18 UNL     1     -20.516  30.940  44.543  1.00  0.00     0.007 A 
HETATM   24  C19 UNL     1     -19.237  30.625  44.985  1.00  0.00     0.001 A 
HETATM   25  C20 UNL     1     -19.042  29.627  45.884  1.00  0.00     0.000 A 
HETATM   26  C21 UNL     1     -20.120  28.935  46.350  1.00  0.00     0.001 A 
HETATM   27  C22 UNL     1     -21.390  29.222  45.933  1.00  0.00     0.007 A 
ENDBRANCH  21  22
ENDBRANCH  20  21
ENDBRANCH  19  20
BRANCH  19  28
HETATM   28  C23 UNL     1     -25.221  30.125  42.724  1.00  0.00     0.015 C 
HETATM   29  C24 UNL     1     -26.644  30.213  43.247  1.00  0.00     0.007 C 
HETATM   30  C25 UNL     1     -27.140  31.605  42.912  1.00  0.00     0.000 C 
HETATM   31  C26 UNL     1     -27.126  31.788  41.425  1.00  0.00     0.000 C 
HETATM   32  C27 UNL     1     -25.776  31.518  40.811  1.00  0.00     0.000 C 
HETATM   33  C28 UNL     1     -25.273  30.130  41.235  1.00  0.00     0.007 C 
ENDBRANCH  19  28
ENDBRANCH  18  19
ENDBRANCH   1  18
TORSDOF 10
ENDMDL
