MODEL 1
REMARK VINA RESULT: -8.519771889      0.000      0.000
REMARK  10 active torsions:
REMARK  status: ('A' for Active; 'I' for Inactive)
REMARK    1  A    between atoms: C2_2  and  C3_3 
REMARK    2  A    between atoms: C3_3  and  C6_6 
REMARK    3  A    between atoms: C6_6  and  C7_8 
REMARK       I    between atoms: C7_8  and  N1_10 
REMARK    4  A    between atoms: C12_15  and  C13_16 
REMARK    5  A    between atoms: C13_16  and  O4_18 
REMARK    6  A    between atoms: O4_18  and  C14_19 
REMARK    7  A    between atoms: C14_19  and  C15_20 
REMARK    8  A    between atoms: C14_19  and  C23_28 
REMARK    9  A    between atoms: C15_20  and  C16_21 
REMARK   10  A    between atoms: C16_21  and  C17_22 
ROOT
HETATM    1  C13 UNL     1     -28.147  29.025  43.685  1.00  0.00     0.282 C 
HETATM    2  O3  UNL     1     -29.312  29.206  43.247  1.00  0.00    -0.263 OA
ENDROOT
BRANCH   1   3
HETATM    3  C12 UNL     1     -27.299  30.228  43.878  1.00  0.00     0.187 C 
HETATM    4  N1  UNL     1     -25.895  29.938  43.850  1.00  0.00    -0.332 N 
HETATM    5  C7  UNL     1     -25.142  29.804  45.037  1.00  0.00     0.291 C 
HETATM    6  C8  UNL     1     -25.253  29.778  42.580  1.00  0.00     0.127 C 
HETATM    7  O2  UNL     1     -25.697  29.940  46.187  1.00  0.00    -0.264 OA
HETATM    8  C9  UNL     1     -26.158  30.047  41.403  1.00  0.00     0.020 C 
HETATM    9  C10 UNL     1     -26.895  31.343  41.660  1.00  0.00     0.004 C 
HETATM   10  C11 UNL     1     -27.700  31.306  42.915  1.00  0.00     0.035 C 
BRANCH   5  11
HETATM   11  C6  UNL     1     -23.716  29.510  45.067  1.00  0.00     0.224 C 
HETATM   12  O1  UNL     1     -23.295  28.333  44.814  1.00  0.00    -0.286 OA
BRANCH  11  13
HETATM   13  C3  UNL     1     -22.677  30.503  45.379  1.00  0.00     0.022 C 
HETATM   14  C4  UNL     1     -21.303  30.065  44.967  1.00  0.00     0.023 C 
HETATM   15  C5  UNL     1     -22.952  31.830  44.700  1.00  0.00     0.023 C 
BRANCH  13  16
HETATM   16  C2  UNL     1     -22.648  30.718  46.876  1.00  0.00     0.012 C 
HETATM   17  C1  UNL     1     -21.727  29.745  47.581  1.00  0.00     0.006 C 
ENDBRANCH  13  16
ENDBRANCH  11  13
ENDBRANCH   5  11
ENDBRANCH   1   3
BRANCH   1  18
HETATM   18  O4  UNL     1     -27.772  27.744  43.943  1.00  0.00    -0.314 OA
BRANCH  18  19
HETATM   19  C14 UNL     1     -28.317  26.597  43.294  1.00  0.00     0.136 C 
BRANCH  19  20
HETATM   20  C15 UNL     1     -28.544  25.474  44.245  1.00  0.00     0.037 C 
BRANCH  20  21
HETATM   21  C16 UNL     1     -29.015  25.868  45.596  1.00  0.00     0.041 C 
BRANCH  21  22
HETATM   22  C17 UNL     1     -30.297  26.637  45.581  1.00  0.00    -0.058 A 
HETATM   23  C18 UNL     1     -31.398  26.306  44.851  1.00  0.00     0.007 A 
HETATM   24  C19 UNL     1     -32.531  27.108  44.908  1.00  0.00     0.001 A 
HETATM   25  C20 UNL     1     -32.552  28.221  45.684  1.00  0.00     0.000 A 
HETATM   26  C21 UNL     1     -31.444  28.543  46.411  1.00  0.00     0.001 A 
HETATM   27  C22 UNL     1     -30.315  27.772  46.375  1.00  0.00     0.007 A 
ENDBRANCH  21  22
ENDBRANCH  20  21
ENDBRANCH  19  20
BRANCH  19  28
HETATM   28  C23 UNL     1     -27.435  26.197  42.131  1.00  0.00     0.015 C 
HETATM   29  C24 UNL     1     -25.966  26.431  42.431  1.00  0.00     0.007 C 
HETATM   30  C25 UNL     1     -25.185  25.676  41.374  1.00  0.00     0.000 C 
HETATM   31  C26 UNL     1     -25.528  26.224  40.023  1.00  0.00     0.000 C 
HETATM   32  C27 UNL     1     -27.008  26.205  39.737  1.00  0.00     0.000 C 
HETATM   33  C28 UNL     1     -27.771  26.913  40.868  1.00  0.00     0.007 C 
ENDBRANCH  19  28
ENDBRANCH  18  19
ENDBRANCH   1  18
TORSDOF 10
ENDMDL
