MODEL 4
REMARK VINA RESULT: -8.163862791      1.257      4.546
REMARK  10 active torsions:
REMARK  status: ('A' for Active; 'I' for Inactive)
REMARK    1  A    between atoms: C2_2  and  C3_3 
REMARK    2  A    between atoms: C3_3  and  C6_6 
REMARK    3  A    between atoms: C6_6  and  C7_8 
REMARK       I    between atoms: C7_8  and  N1_10 
REMARK    4  A    between atoms: C12_15  and  C13_16 
REMARK    5  A    between atoms: C13_16  and  O4_18 
REMARK    6  A    between atoms: O4_18  and  C14_19 
REMARK    7  A    between atoms: C14_19  and  C15_20 
REMARK    8  A    between atoms: C14_19  and  C23_28 
REMARK    9  A    between atoms: C15_20  and  C16_21 
REMARK   10  A    between atoms: C16_21  and  C17_22 
ROOT
HETATM    1  C13 UNL     1     -27.823  29.014  44.863  1.00  0.00     0.282 C 
HETATM    2  O3  UNL     1     -27.694  28.831  46.101  1.00  0.00    -0.263 OA
ENDROOT
BRANCH   1   3
HETATM    3  C12 UNL     1     -27.391  30.327  44.322  1.00  0.00     0.187 C 
HETATM    4  N1  UNL     1     -25.975  30.408  44.108  1.00  0.00    -0.332 N 
HETATM    5  C7  UNL     1     -25.120  31.046  45.033  1.00  0.00     0.291 C 
HETATM    6  C8  UNL     1     -25.425  29.820  42.923  1.00  0.00     0.127 C 
HETATM    7  O2  UNL     1     -25.590  31.578  46.104  1.00  0.00    -0.264 OA
HETATM    8  C9  UNL     1     -26.466  29.263  41.982  1.00  0.00     0.020 C 
HETATM    9  C10 UNL     1     -27.553  30.302  41.813  1.00  0.00     0.004 C 
HETATM   10  C11 UNL     1     -28.195  30.678  43.106  1.00  0.00     0.035 C 
BRANCH   5  11
HETATM   11  C6  UNL     1     -23.678  31.157  44.866  1.00  0.00     0.224 C 
HETATM   12  O1  UNL     1     -23.177  32.139  44.225  1.00  0.00    -0.286 OA
BRANCH  11  13
HETATM   13  C3  UNL     1     -22.711  30.186  45.398  1.00  0.00     0.022 C 
HETATM   14  C4  UNL     1     -23.102  28.762  45.137  1.00  0.00     0.023 C 
HETATM   15  C5  UNL     1     -21.330  30.392  44.806  1.00  0.00     0.023 C 
BRANCH  13  16
HETATM   16  C2  UNL     1     -22.628  30.359  46.899  1.00  0.00     0.012 C 
HETATM   17  C1  UNL     1     -21.627  29.417  47.534  1.00  0.00     0.006 C 
ENDBRANCH  13  16
ENDBRANCH  11  13
ENDBRANCH   5  11
ENDBRANCH   1   3
BRANCH   1  18
HETATM   18  O4  UNL     1     -28.347  27.992  44.135  1.00  0.00    -0.314 OA
BRANCH  18  19
HETATM   19  C14 UNL     1     -29.029  26.870  44.691  1.00  0.00     0.136 C 
BRANCH  19  20
HETATM   20  C15 UNL     1     -28.522  25.582  44.145  1.00  0.00     0.037 C 
BRANCH  20  21
HETATM   21  C16 UNL     1     -28.672  25.409  42.678  1.00  0.00     0.041 C 
BRANCH  21  22
HETATM   22  C17 UNL     1     -27.408  25.642  41.916  1.00  0.00    -0.058 A 
HETATM   23  C18 UNL     1     -26.152  25.512  42.427  1.00  0.00     0.007 A 
HETATM   24  C19 UNL     1     -25.049  25.770  41.623  1.00  0.00     0.001 A 
HETATM   25  C20 UNL     1     -25.210  26.152  40.331  1.00  0.00     0.000 A 
HETATM   26  C21 UNL     1     -26.472  26.279  39.830  1.00  0.00     0.001 A 
HETATM   27  C22 UNL     1     -27.575  26.032  40.597  1.00  0.00     0.007 A 
ENDBRANCH  21  22
ENDBRANCH  20  21
ENDBRANCH  19  20
BRANCH  19  28
HETATM   28  C23 UNL     1     -30.522  27.029  44.497  1.00  0.00     0.015 C 
HETATM   29  C24 UNL     1     -30.876  28.400  43.948  1.00  0.00     0.007 C 
HETATM   30  C25 UNL     1     -32.310  28.313  43.465  1.00  0.00     0.000 C 
HETATM   31  C26 UNL     1     -33.199  27.976  44.622  1.00  0.00     0.000 C 
HETATM   32  C27 UNL     1     -32.781  26.720  45.342  1.00  0.00     0.000 C 
HETATM   33  C28 UNL     1     -31.302  26.816  45.749  1.00  0.00     0.007 C 
ENDBRANCH  19  28
ENDBRANCH  18  19
ENDBRANCH   1  18
TORSDOF 10
ENDMDL
