MODEL 3
REMARK VINA RESULT: -7.247970747      2.673      8.038
REMARK  0 active torsions:
REMARK  status: ('A' for Active; 'I' for Inactive)
ROOT
HETATM    1  C1  UNL     1       0.353 -41.193   2.360  1.00  0.00     0.026 C 
HETATM    2  C2  UNL     1       1.834 -41.605   2.260  1.00  0.00     0.045 C 
HETATM    3  C3  UNL     1       2.047 -42.673   3.270  1.00  0.00     0.026 C 
HETATM    4  C4  UNL     1       2.611 -40.332   2.564  1.00  0.00     0.195 C 
HETATM    5  O1  UNL     1       1.886 -39.267   2.013  1.00  0.00    -0.320 OA
HETATM    6  C5  UNL     1       2.041 -37.938   2.338  1.00  0.00     0.258 C 
HETATM    7  O2  UNL     1       1.090 -37.135   2.449  1.00  0.00    -0.265 OA
HETATM    8  C6  UNL     1       3.410 -37.431   2.570  1.00  0.00     0.111 C 
HETATM    9  C7  UNL     1       4.092 -37.334   1.211  1.00  0.00     0.010 C 
HETATM   10  C8  UNL     1       5.045 -36.173   1.147  1.00  0.00     0.000 C 
HETATM   11  C9  UNL     1       6.185 -36.580   0.223  1.00  0.00     0.000 C 
HETATM   12  C10 UNL     1       7.451 -35.992   0.781  1.00  0.00     0.000 C 
HETATM   13  C11 UNL     1       8.610 -36.856   0.306  1.00  0.00     0.000 C 
HETATM   14  C12 UNL     1       8.751 -38.072   1.173  1.00  0.00     0.000 C 
HETATM   15  C13 UNL     1       8.845 -39.317   0.327  1.00  0.00     0.000 C 
HETATM   16  C14 UNL     1       9.224 -40.508   1.208  1.00  0.00     0.002 C 
HETATM   17  C15 UNL     1       8.845 -41.808   0.570  1.00  0.00     0.027 C 
HETATM   18  C16 UNL     1       7.988 -42.676   1.500  1.00  0.00     0.178 C 
HETATM   19  O3  UNL     1       7.152 -43.437   0.689  1.00  0.00    -0.320 OA
HETATM   20  C17 UNL     1       5.827 -43.290   0.412  1.00  0.00     0.282 C 
HETATM   21  O4  UNL     1       5.324 -42.939  -0.691  1.00  0.00    -0.263 OA
HETATM   22  C18 UNL     1       4.837 -43.560   1.489  1.00  0.00     0.187 C 
HETATM   23  C19 UNL     1       5.375 -44.371   2.614  1.00  0.00     0.035 C 
HETATM   24  C20 UNL     1       5.102 -45.822   2.600  1.00  0.00     0.004 C 
HETATM   25  C21 UNL     1       3.700 -46.155   2.085  1.00  0.00     0.020 C 
HETATM   26  C22 UNL     1       3.601 -45.541   0.731  1.00  0.00     0.127 C 
HETATM   27  N1  UNL     1       3.647 -44.092   0.860  1.00  0.00    -0.332 N 
HETATM   28  C23 UNL     1       2.583 -43.279   0.385  1.00  0.00     0.291 C 
HETATM   29  O5  UNL     1       1.935 -43.769  -0.609  1.00  0.00    -0.264 OA
HETATM   30  C24 UNL     1       2.149 -42.001   0.863  1.00  0.00     0.226 C 
HETATM   31  O6  UNL     1       1.991 -41.034   0.028  1.00  0.00    -0.286 OA
ENDROOT
TORSDOF 0
ENDMDL
