MODEL 2
REMARK VINA RESULT: -7.516099347      2.383      7.908
REMARK  0 active torsions:
REMARK  status: ('A' for Active; 'I' for Inactive)
ROOT
HETATM    1  C1  UNL     1       1.071 -40.982   4.426  1.00  0.00     0.026 C 
HETATM    2  C2  UNL     1       2.423 -41.385   3.806  1.00  0.00     0.045 C 
HETATM    3  C3  UNL     1       2.805 -42.679   4.426  1.00  0.00     0.026 C 
HETATM    4  C4  UNL     1       3.367 -40.247   4.168  1.00  0.00     0.195 C 
HETATM    5  O1  UNL     1       2.621 -39.062   4.120  1.00  0.00    -0.320 OA
HETATM    6  C5  UNL     1       2.982 -37.863   4.695  1.00  0.00     0.258 C 
HETATM    7  O2  UNL     1       2.177 -37.097   5.264  1.00  0.00    -0.265 OA
HETATM    8  C6  UNL     1       4.403 -37.461   4.634  1.00  0.00     0.111 C 
HETATM    9  C7  UNL     1       4.690 -37.034   3.200  1.00  0.00     0.010 C 
HETATM   10  C8  UNL     1       5.692 -35.914   3.142  1.00  0.00     0.000 C 
HETATM   11  C9  UNL     1       6.492 -36.095   1.858  1.00  0.00     0.000 C 
HETATM   12  C10 UNL     1       7.911 -35.694   2.150  1.00  0.00     0.000 C 
HETATM   13  C11 UNL     1       8.810 -36.431   1.167  1.00  0.00     0.000 C 
HETATM   14  C12 UNL     1       9.070 -37.831   1.640  1.00  0.00     0.000 C 
HETATM   15  C13 UNL     1       8.812 -38.821   0.531  1.00  0.00     0.000 C 
HETATM   16  C14 UNL     1       9.306 -40.204   0.954  1.00  0.00     0.002 C 
HETATM   17  C15 UNL     1       8.648 -41.291   0.162  1.00  0.00     0.027 C 
HETATM   18  C16 UNL     1       8.004 -42.350   1.065  1.00  0.00     0.178 C 
HETATM   19  O3  UNL     1       6.910 -42.861   0.373  1.00  0.00    -0.320 OA
HETATM   20  C17 UNL     1       5.579 -42.621   0.535  1.00  0.00     0.282 C 
HETATM   21  O4  UNL     1       4.827 -41.990  -0.258  1.00  0.00    -0.263 OA
HETATM   22  C18 UNL     1       4.904 -43.138   1.755  1.00  0.00     0.187 C 
HETATM   23  C19 UNL     1       5.652 -44.219   2.448  1.00  0.00     0.035 C 
HETATM   24  C20 UNL     1       5.252 -45.613   2.168  1.00  0.00     0.004 C 
HETATM   25  C21 UNL     1       3.739 -45.776   2.017  1.00  0.00     0.020 C 
HETATM   26  C22 UNL     1       3.329 -44.835   0.937  1.00  0.00     0.127 C 
HETATM   27  N1  UNL     1       3.542 -43.468   1.390  1.00  0.00    -0.332 N 
HETATM   28  C23 UNL     1       2.469 -42.538   1.451  1.00  0.00     0.291 C 
HETATM   29  O5  UNL     1       1.529 -42.745   0.601  1.00  0.00    -0.264 OA
HETATM   30  C24 UNL     1       2.303 -41.416   2.326  1.00  0.00     0.226 C 
HETATM   31  O6  UNL     1       2.011 -40.266   1.828  1.00  0.00    -0.286 OA
ENDROOT
TORSDOF 0
ENDMDL
