MODEL 4
REMARK VINA RESULT: -7.150289727      1.996      5.540
REMARK  0 active torsions:
REMARK  status: ('A' for Active; 'I' for Inactive)
ROOT
HETATM    1  C1  UNL     1       2.114 -36.502   2.887  1.00  0.00     0.026 C 
HETATM    2  C2  UNL     1       3.168 -37.412   2.228  1.00  0.00     0.045 C 
HETATM    3  C3  UNL     1       3.410 -36.866   0.868  1.00  0.00     0.026 C 
HETATM    4  C4  UNL     1       2.529 -38.794   2.212  1.00  0.00     0.195 C 
HETATM    5  O1  UNL     1       1.780 -38.914   3.391  1.00  0.00    -0.320 OA
HETATM    6  C5  UNL     1       0.788 -39.842   3.619  1.00  0.00     0.258 C 
HETATM    7  O2  UNL     1      -0.272 -39.589   4.229  1.00  0.00    -0.265 OA
HETATM    8  C6  UNL     1       0.990 -41.216   3.114  1.00  0.00     0.111 C 
HETATM    9  C7  UNL     1       2.028 -41.879   4.012  1.00  0.00     0.010 C 
HETATM   10  C8  UNL     1       1.758 -43.348   4.185  1.00  0.00     0.000 C 
HETATM   11  C9  UNL     1       3.109 -44.036   4.337  1.00  0.00     0.000 C 
HETATM   12  C10 UNL     1       3.020 -45.364   3.638  1.00  0.00     0.000 C 
HETATM   13  C11 UNL     1       4.430 -45.761   3.222  1.00  0.00     0.000 C 
HETATM   14  C12 UNL     1       4.816 -45.075   1.946  1.00  0.00     0.000 C 
HETATM   15  C13 UNL     1       6.167 -44.420   2.085  1.00  0.00     0.000 C 
HETATM   16  C14 UNL     1       6.645 -43.934   0.716  1.00  0.00     0.002 C 
HETATM   17  C15 UNL     1       7.684 -42.864   0.842  1.00  0.00     0.027 C 
HETATM   18  C16 UNL     1       7.316 -41.608   0.042  1.00  0.00     0.178 C 
HETATM   19  O3  UNL     1       7.872 -40.523   0.713  1.00  0.00    -0.320 OA
HETATM   20  C17 UNL     1       7.283 -39.590   1.511  1.00  0.00     0.282 C 
HETATM   21  O4  UNL     1       7.429 -39.469   2.759  1.00  0.00    -0.263 OA
HETATM   22  C18 UNL     1       6.370 -38.593   0.891  1.00  0.00     0.187 C 
HETATM   23  C19 UNL     1       6.535 -38.456  -0.580  1.00  0.00     0.035 C 
HETATM   24  C20 UNL     1       7.373 -37.343  -1.071  1.00  0.00     0.004 C 
HETATM   25  C21 UNL     1       7.201 -36.065  -0.248  1.00  0.00     0.020 C 
HETATM   26  C22 UNL     1       7.510 -36.436   1.161  1.00  0.00     0.127 C 
HETATM   27  N1  UNL     1       6.497 -37.362   1.643  1.00  0.00    -0.332 N 
HETATM   28  C23 UNL     1       5.706 -37.057   2.784  1.00  0.00     0.291 C 
HETATM   29  O5  UNL     1       6.277 -36.295   3.645  1.00  0.00    -0.264 OA
HETATM   30  C24 UNL     1       4.374 -37.484   3.092  1.00  0.00     0.226 C 
HETATM   31  O6  UNL     1       4.128 -38.001   4.244  1.00  0.00    -0.286 OA
ENDROOT
TORSDOF 0
ENDMDL
