MODEL 4
REMARK VINA RESULT: -6.726864719      3.188      5.505
REMARK  5 active torsions:
REMARK  status: ('A' for Active; 'I' for Inactive)
REMARK    1  A    between atoms: O1_1  and  C1_3 
REMARK    2  A    between atoms: C1_3  and  C2_4 
REMARK    3  A    between atoms: C3_6  and  N1_7 
REMARK    4  A    between atoms: C9_19  and  O3_20 
REMARK    5  A    between atoms: C10_22  and  O4_23 
ROOT
HETATM    1  C2  UNL     1       8.060  19.212  37.536  1.00  0.00     0.179 C 
HETATM    2  O2  UNL     1       6.843  19.895  37.368  1.00  0.00    -0.353 OA
HETATM    3  C3  UNL     1       5.937  18.850  37.532  1.00  0.00     0.262 C 
HETATM    4  C9  UNL     1       6.431  17.834  36.556  1.00  0.00     0.198 C 
HETATM    5  C10 UNL     1       7.931  18.130  36.490  1.00  0.00     0.182 C 
ENDROOT
BRANCH   3   6
HETATM    6  N1  UNL     1       4.571  19.247  37.331  1.00  0.00    -0.297 N 
HETATM    7  C4  UNL     1       3.932  19.182  36.127  1.00  0.00     0.188 A 
HETATM    8  N2  UNL     1       2.669  19.625  36.272  1.00  0.00    -0.348 N 
HETATM    9  C5  UNL     1       2.506  19.968  37.557  1.00  0.00     0.093 A 
ATOM     10  H2  UNL     1       1.964  19.688  35.537  1.00  0.00     0.167 HD
HETATM   11  C6  UNL     1       1.437  20.473  38.257  1.00  0.00     0.122 A 
HETATM   12  C8  UNL     1       3.699  19.728  38.206  1.00  0.00     0.140 A 
HETATM   13  N3  UNL     1       1.587  20.721  39.569  1.00  0.00    -0.360 N 
HETATM   14  C7  UNL     1       2.765  20.478  40.183  1.00  0.00     0.182 A 
ATOM     15  H3  UNL     1       0.806  21.095  40.106  1.00  0.00     0.166 HD
HETATM   16  N4  UNL     1       3.829  19.983  39.521  1.00  0.00    -0.336 N 
ATOM     17  H4  UNL     1       4.710  19.806  40.003  1.00  0.00     0.168 HD
ENDBRANCH   3   6
BRANCH   4  18
HETATM   18  O3  UNL     1       6.297  16.564  37.126  1.00  0.00    -0.388 OA
ATOM     19  H3  UNL     1       6.396  15.912  36.442  1.00  0.00     0.210 HD
ENDBRANCH   4  18
BRANCH   1  20
HETATM   20  C1  UNL     1       9.239  20.121  37.288  1.00  0.00     0.198 C 
BRANCH  20  21
HETATM   21  O1  UNL     1       9.765  19.786  36.043  1.00  0.00    -0.398 OA
ATOM     22  H1  UNL     1      10.224  18.960  36.144  1.00  0.00     0.209 HD
ENDBRANCH  20  21
ENDBRANCH   1  20
BRANCH   5  23
HETATM   23  O4  UNL     1       8.676  17.003  36.778  1.00  0.00    -0.390 OA
ATOM     24  H4  UNL     1       8.369  16.225  36.327  1.00  0.00     0.210 HD
ENDBRANCH   5  23
TORSDOF 5
ENDMDL
