MODEL 2
REMARK VINA RESULT: -7.048708371      1.561      2.628
REMARK  5 active torsions:
REMARK  status: ('A' for Active; 'I' for Inactive)
REMARK    1  A    between atoms: O1_1  and  C1_3 
REMARK    2  A    between atoms: C1_3  and  C2_4 
REMARK    3  A    between atoms: C3_6  and  N1_7 
REMARK    4  A    between atoms: C9_19  and  O3_20 
REMARK    5  A    between atoms: C10_22  and  O4_23 
ROOT
HETATM    1  C2  UNL     1       3.296  20.304  38.749  1.00  0.00     0.179 C 
HETATM    2  O2  UNL     1       4.366  19.456  39.081  1.00  0.00    -0.353 OA
HETATM    3  C3  UNL     1       5.034  19.392  37.860  1.00  0.00     0.262 C 
HETATM    4  C9  UNL     1       3.949  18.988  36.917  1.00  0.00     0.198 C 
HETATM    5  C10 UNL     1       2.694  19.565  37.576  1.00  0.00     0.182 C 
ENDROOT
BRANCH   3   6
HETATM    6  N1  UNL     1       6.163  18.505  37.876  1.00  0.00    -0.297 N 
HETATM    7  C4  UNL     1       6.112  17.220  38.333  1.00  0.00     0.188 A 
HETATM    8  N2  UNL     1       7.330  16.658  38.215  1.00  0.00    -0.348 N 
HETATM    9  C5  UNL     1       8.149  17.578  37.688  1.00  0.00     0.093 A 
ATOM     10  H2  UNL     1       7.583  15.706  38.479  1.00  0.00     0.167 HD
HETATM   11  C6  UNL     1       9.482  17.556  37.355  1.00  0.00     0.122 A 
HETATM   12  C8  UNL     1       7.410  18.725  37.483  1.00  0.00     0.140 A 
HETATM   13  N3  UNL     1      10.032  18.665  36.832  1.00  0.00    -0.360 N 
HETATM   14  C7  UNL     1       9.289  19.775  36.640  1.00  0.00     0.182 A 
ATOM     15  H3  UNL     1      11.020  18.668  36.579  1.00  0.00     0.166 HD
HETATM   16  N4  UNL     1       7.980  19.824  36.957  1.00  0.00    -0.336 N 
ATOM     17  H4  UNL     1       7.436  20.673  36.803  1.00  0.00     0.168 HD
ENDBRANCH   3   6
BRANCH   4  18
HETATM   18  O3  UNL     1       4.124  19.678  35.712  1.00  0.00    -0.388 OA
ATOM     19  H3  UNL     1       3.952  19.081  34.994  1.00  0.00     0.210 HD
ENDBRANCH   4  18
BRANCH   1  20
HETATM   20  C1  UNL     1       2.332  20.450  39.900  1.00  0.00     0.198 C 
BRANCH  20  21
HETATM   21  O1  UNL     1       3.044  20.983  40.970  1.00  0.00    -0.398 OA
ATOM     22  H1  UNL     1       3.955  20.738  40.853  1.00  0.00     0.209 HD
ENDBRANCH  20  21
ENDBRANCH   1  20
BRANCH   5  23
HETATM   23  O4  UNL     1       2.007  20.390  36.707  1.00  0.00    -0.390 OA
ATOM     24  H4  UNL     1       1.717  19.945  35.919  1.00  0.00     0.210 HD
ENDBRANCH   5  23
TORSDOF 5
ENDMDL
