MODEL 1
REMARK VINA RESULT: -7.488987778      0.000      0.000
REMARK  5 active torsions:
REMARK  status: ('A' for Active; 'I' for Inactive)
REMARK    1  A    between atoms: O1_1  and  C1_3 
REMARK    2  A    between atoms: C1_3  and  C2_4 
REMARK    3  A    between atoms: C3_6  and  N1_7 
REMARK    4  A    between atoms: C9_19  and  O3_20 
REMARK    5  A    between atoms: C10_22  and  O4_23 
ROOT
HETATM    1  C2  UNL     1       3.804  20.183  38.599  1.00  0.00     0.179 C 
HETATM    2  O2  UNL     1       4.703  19.142  38.889  1.00  0.00    -0.353 OA
HETATM    3  C3  UNL     1       5.341  19.002  37.659  1.00  0.00     0.262 C 
HETATM    4  C9  UNL     1       4.196  18.837  36.716  1.00  0.00     0.198 C 
HETATM    5  C10 UNL     1       3.071  19.609  37.409  1.00  0.00     0.182 C 
ENDROOT
BRANCH   3   6
HETATM    6  N1  UNL     1       6.289  17.923  37.632  1.00  0.00    -0.297 N 
HETATM    7  C4  UNL     1       7.154  17.700  36.601  1.00  0.00     0.188 A 
HETATM    8  N2  UNL     1       7.906  16.618  36.879  1.00  0.00    -0.348 N 
HETATM    9  C5  UNL     1       7.521  16.157  38.077  1.00  0.00     0.093 A 
ATOM     10  H2  UNL     1       8.635  16.221  36.286  1.00  0.00     0.167 HD
HETATM   11  C6  UNL     1       7.937  15.094  38.843  1.00  0.00     0.122 A 
HETATM   12  C8  UNL     1       6.512  16.979  38.535  1.00  0.00     0.140 A 
HETATM   13  N3  UNL     1       7.342  14.885  40.030  1.00  0.00    -0.360 N 
HETATM   14  C7  UNL     1       6.357  15.703  40.457  1.00  0.00     0.182 A 
ATOM     15  H3  UNL     1       7.637  14.102  40.612  1.00  0.00     0.166 HD
HETATM   16  N4  UNL     1       5.930  16.752  39.727  1.00  0.00    -0.336 N 
ATOM     17  H4  UNL     1       5.185  17.358  40.068  1.00  0.00     0.168 HD
ENDBRANCH   3   6
BRANCH   4  18
HETATM   18  O3  UNL     1       4.487  19.526  35.534  1.00  0.00    -0.388 OA
ATOM     19  H3  UNL     1       3.678  19.873  35.178  1.00  0.00     0.210 HD
ENDBRANCH   4  18
BRANCH   1  20
HETATM   20  C1  UNL     1       2.888  20.461  39.766  1.00  0.00     0.198 C 
BRANCH  20  21
HETATM   21  O1  UNL     1       2.174  19.293  40.018  1.00  0.00    -0.398 OA
ATOM     22  H1  UNL     1       2.247  19.112  40.948  1.00  0.00     0.209 HD
ENDBRANCH  20  21
ENDBRANCH   1  20
BRANCH   5  23
HETATM   23  O4  UNL     1       2.542  20.576  36.577  1.00  0.00    -0.390 OA
ATOM     24  H4  UNL     1       3.066  20.729  35.800  1.00  0.00     0.210 HD
ENDBRANCH   5  23
TORSDOF 5
ENDMDL
