MODEL 3
REMARK VINA RESULT: -6.757960847      2.290      3.573
REMARK  5 active torsions:
REMARK  status: ('A' for Active; 'I' for Inactive)
REMARK    1  A    between atoms: O1_1  and  C1_3 
REMARK    2  A    between atoms: C1_3  and  C2_4 
REMARK    3  A    between atoms: C3_6  and  N1_7 
REMARK    4  A    between atoms: C9_19  and  O3_20 
REMARK    5  A    between atoms: C10_22  and  O4_23 
ROOT
HETATM    1  C2  UNL     1       5.990  18.439  37.162  1.00  0.00     0.179 C 
HETATM    2  O2  UNL     1       5.818  17.064  37.395  1.00  0.00    -0.353 OA
HETATM    3  C3  UNL     1       7.138  16.670  37.605  1.00  0.00     0.262 C 
HETATM    4  C9  UNL     1       7.832  17.201  36.395  1.00  0.00     0.198 C 
HETATM    5  C10 UNL     1       6.981  18.417  36.022  1.00  0.00     0.182 C 
ENDROOT
BRANCH   3   6
HETATM    6  N1  UNL     1       7.283  15.254  37.797  1.00  0.00    -0.297 N 
HETATM    7  C4  UNL     1       7.979  14.442  36.950  1.00  0.00     0.188 A 
HETATM    8  N2  UNL     1       7.927  13.176  37.406  1.00  0.00    -0.348 N 
HETATM    9  C5  UNL     1       7.203  13.184  38.534  1.00  0.00     0.093 A 
ATOM     10  H2  UNL     1       8.359  12.360  36.973  1.00  0.00     0.167 HD
HETATM   11  C6  UNL     1       6.830  12.191  39.408  1.00  0.00     0.122 A 
HETATM   12  C8  UNL     1       6.807  14.485  38.766  1.00  0.00     0.140 A 
HETATM   13  N3  UNL     1       6.084  12.521  40.476  1.00  0.00    -0.360 N 
HETATM   14  C7  UNL     1       5.709  13.801  40.682  1.00  0.00     0.182 A 
ATOM     15  H3  UNL     1       5.799  11.798  41.136  1.00  0.00     0.166 HD
HETATM   16  N4  UNL     1       6.060  14.794  39.841  1.00  0.00    -0.336 N 
ATOM     17  H4  UNL     1       5.767  15.755  40.016  1.00  0.00     0.168 HD
ENDBRANCH   3   6
BRANCH   4  18
HETATM   18  O3  UNL     1       9.086  17.689  36.776  1.00  0.00    -0.388 OA
ATOM     19  H3  UNL     1       9.477  18.134  36.034  1.00  0.00     0.210 HD
ENDBRANCH   4  18
BRANCH   1  20
HETATM   20  C1  UNL     1       4.688  19.101  36.787  1.00  0.00     0.198 C 
BRANCH  20  21
HETATM   21  O1  UNL     1       4.755  19.404  35.430  1.00  0.00    -0.398 OA
ATOM     22  H1  UNL     1       4.308  18.708  34.962  1.00  0.00     0.209 HD
ENDBRANCH  20  21
ENDBRANCH   1  20
BRANCH   5  23
HETATM   23  O4  UNL     1       7.751  19.562  35.948  1.00  0.00    -0.390 OA
ATOM     24  H4  UNL     1       7.235  20.355  35.854  1.00  0.00     0.210 HD
ENDBRANCH   5  23
TORSDOF 5
ENDMDL
