MODEL 9
REMARK VINA RESULT: -9.825774071      3.695     10.279
REMARK  7 active torsions:
REMARK  status: ('A' for Active; 'I' for Inactive)
REMARK    1  A    between atoms: C1_2  and  C2_4 
REMARK    2  A    between atoms: C2_4  and  C3_5 
REMARK    3  A    between atoms: C3_5  and  C4_6 
REMARK    4  A    between atoms: C4_6  and  C5_7 
REMARK       I    between atoms: C5_7  and  N1_9 
REMARK    5  A    between atoms: N1_9  and  C6_11 
REMARK    6  A    between atoms: C9_14  and  C10_15 
REMARK    7  A    between atoms: C11_16  and  C12_17 
ROOT
HETATM    1  C6  UNL     1      63.284  -0.996 -29.761  1.00  0.00     0.034 A 
HETATM    2  C7  UNL     1      63.578  -2.362 -29.777  1.00  0.00     0.030 A 
HETATM    3  C8  UNL     1      64.751  -2.815 -30.292  1.00  0.00     0.013 A 
HETATM    4  C9  UNL     1      65.718  -1.991 -30.826  1.00  0.00    -0.036 A 
HETATM    5  C18 UNL     1      65.439  -0.652 -30.815  1.00  0.00     0.013 A 
HETATM    6  C19 UNL     1      64.227  -0.163 -30.285  1.00  0.00     0.030 A 
ENDROOT
BRANCH   1   7
HETATM    7  N1  UNL     1      62.045  -0.562 -29.230  1.00  0.00    -0.327 N 
HETATM    8  C5  UNL     1      60.968  -0.057 -29.970  1.00  0.00     0.222 C 
HETATM    9  O3  UNL     1      61.037   0.052 -31.205  1.00  0.00    -0.273 OA
ATOM     10  H1  UNL     1      61.926  -0.623 -28.219  1.00  0.00     0.169 HD
BRANCH   8  11
HETATM   11  C4  UNL     1      59.690   0.366 -29.254  1.00  0.00     0.103 C 
BRANCH  11  12
HETATM   12  C3  UNL     1      60.023   1.534 -28.323  1.00  0.00     0.020 C 
BRANCH  12  13
HETATM   13  C2  UNL     1      58.902   2.535 -28.357  1.00  0.00     0.113 C 
BRANCH  13  14
HETATM   14  C1  UNL     1      59.310   3.708 -29.171  1.00  0.00     0.172 C 
HETATM   15  O1  UNL     1      58.530   4.661 -29.443  1.00  0.00    -0.648 OA
HETATM   16  O2  UNL     1      60.628   3.747 -29.654  1.00  0.00    -0.648 OA
ENDBRANCH  13  14
ENDBRANCH  12  13
ENDBRANCH  11  12
ENDBRANCH   8  11
ENDBRANCH   1   7
BRANCH   4  17
HETATM   17  C10 UNL     1      66.947  -2.546 -31.359  1.00  0.00     0.012 C 
HETATM   18  C11 UNL     1      67.054  -3.454 -32.288  1.00  0.00     0.012 C 
BRANCH  18  19
HETATM   19  C12 UNL     1      68.287  -4.011 -32.822  1.00  0.00    -0.036 A 
HETATM   20  C13 UNL     1      68.584  -3.943 -34.187  1.00  0.00     0.011 A 
HETATM   21  C14 UNL     1      69.786  -4.505 -34.584  1.00  0.00     0.001 A 
HETATM   22  C15 UNL     1      70.655  -5.103 -33.701  1.00  0.00     0.000 A 
HETATM   23  C16 UNL     1      70.345  -5.156 -32.379  1.00  0.00     0.001 A 
HETATM   24  C17 UNL     1      69.162  -4.611 -31.938  1.00  0.00     0.011 A 
ENDBRANCH  18  19
ENDBRANCH   4  17
TORSDOF 7
ENDMDL
