MODEL 2
REMARK VINA RESULT: -11.531907594      0.301      1.039
REMARK  7 active torsions:
REMARK  status: ('A' for Active; 'I' for Inactive)
REMARK    1  A    between atoms: C1_2  and  C2_4 
REMARK    2  A    between atoms: C2_4  and  C3_5 
REMARK    3  A    between atoms: C3_5  and  C4_6 
REMARK    4  A    between atoms: C4_6  and  C5_7 
REMARK       I    between atoms: C5_7  and  N1_9 
REMARK    5  A    between atoms: N1_9  and  C6_11 
REMARK    6  A    between atoms: C9_14  and  C10_15 
REMARK    7  A    between atoms: C11_16  and  C12_17 
ROOT
HETATM    1  C6  UNL     1      64.778  -2.180 -30.298  1.00  0.00     0.034 A 
HETATM    2  C7  UNL     1      64.648  -0.826 -30.619  1.00  0.00     0.030 A 
HETATM    3  C8  UNL     1      63.593  -0.101 -30.165  1.00  0.00     0.013 A 
HETATM    4  C9  UNL     1      62.592  -0.625 -29.375  1.00  0.00    -0.036 A 
HETATM    5  C18 UNL     1      62.709  -1.950 -29.056  1.00  0.00     0.013 A 
HETATM    6  C19 UNL     1      63.798  -2.719 -29.518  1.00  0.00     0.030 A 
ENDROOT
BRANCH   1   7
HETATM    7  N1  UNL     1      65.883  -2.907 -30.803  1.00  0.00    -0.327 N 
HETATM    8  C5  UNL     1      65.830  -4.180 -31.386  1.00  0.00     0.222 C 
HETATM    9  O3  UNL     1      64.752  -4.786 -31.499  1.00  0.00    -0.273 OA
ATOM     10  H1  UNL     1      66.799  -2.465 -30.736  1.00  0.00     0.169 HD
BRANCH   8  11
HETATM   11  C4  UNL     1      67.111  -4.836 -31.891  1.00  0.00     0.103 C 
BRANCH  11  12
HETATM   12  C3  UNL     1      68.304  -4.074 -31.306  1.00  0.00     0.020 C 
BRANCH  12  13
HETATM   13  C2  UNL     1      69.202  -3.620 -32.423  1.00  0.00     0.113 C 
BRANCH  13  14
HETATM   14  C1  UNL     1      70.109  -4.729 -32.813  1.00  0.00     0.172 C 
HETATM   15  O1  UNL     1      70.816  -5.362 -31.983  1.00  0.00    -0.648 OA
HETATM   16  O2  UNL     1      70.173  -5.080 -34.170  1.00  0.00    -0.648 OA
ENDBRANCH  13  14
ENDBRANCH  12  13
ENDBRANCH  11  12
ENDBRANCH   8  11
ENDBRANCH   1   7
BRANCH   4  17
HETATM   17  C10 UNL     1      61.494   0.209 -28.927  1.00  0.00     0.012 C 
HETATM   18  C11 UNL     1      60.777   1.014 -29.659  1.00  0.00     0.012 C 
BRANCH  18  19
HETATM   19  C12 UNL     1      59.675   1.852 -29.209  1.00  0.00    -0.036 A 
HETATM   20  C13 UNL     1      58.500   1.294 -28.698  1.00  0.00     0.011 A 
HETATM   21  C14 UNL     1      57.518   2.185 -28.299  1.00  0.00     0.001 A 
HETATM   22  C15 UNL     1      57.670   3.550 -28.393  1.00  0.00     0.000 A 
HETATM   23  C16 UNL     1      58.822   4.069 -28.892  1.00  0.00     0.001 A 
HETATM   24  C17 UNL     1      59.826   3.222 -29.300  1.00  0.00     0.011 A 
ENDBRANCH  18  19
ENDBRANCH   4  17
TORSDOF 7
ENDMDL
