MODEL 4
REMARK VINA RESULT: -11.385044774      1.002      1.829
REMARK  7 active torsions:
REMARK  status: ('A' for Active; 'I' for Inactive)
REMARK    1  A    between atoms: C1_2  and  C2_4 
REMARK    2  A    between atoms: C2_4  and  C3_5 
REMARK    3  A    between atoms: C3_5  and  C4_6 
REMARK    4  A    between atoms: C4_6  and  C5_7 
REMARK       I    between atoms: C5_7  and  N1_9 
REMARK    5  A    between atoms: N1_9  and  C6_11 
REMARK    6  A    between atoms: C9_14  and  C10_15 
REMARK    7  A    between atoms: C11_16  and  C12_17 
ROOT
HETATM    1  C6  UNL     1      64.414  -2.164 -30.182  1.00  0.00     0.034 A 
HETATM    2  C7  UNL     1      63.371  -2.711 -29.429  1.00  0.00     0.030 A 
HETATM    3  C8  UNL     1      62.284  -1.965 -29.101  1.00  0.00     0.013 A 
HETATM    4  C9  UNL     1      62.125  -0.646 -29.470  1.00  0.00    -0.036 A 
HETATM    5  C18 UNL     1      63.142  -0.102 -30.207  1.00  0.00     0.013 A 
HETATM    6  C19 UNL     1      64.277  -0.861 -30.558  1.00  0.00     0.030 A 
ENDROOT
BRANCH   1   7
HETATM    7  N1  UNL     1      65.538  -2.968 -30.491  1.00  0.00    -0.327 N 
HETATM    8  C5  UNL     1      65.504  -4.213 -31.133  1.00  0.00     0.222 C 
HETATM    9  O3  UNL     1      64.427  -4.720 -31.488  1.00  0.00    -0.273 OA
ATOM     10  H1  UNL     1      66.454  -2.609 -30.223  1.00  0.00     0.169 HD
BRANCH   8  11
HETATM   11  C4  UNL     1      66.805  -4.961 -31.404  1.00  0.00     0.103 C 
BRANCH  11  12
HETATM   12  C3  UNL     1      67.111  -4.869 -32.902  1.00  0.00     0.020 C 
BRANCH  12  13
HETATM   13  C2  UNL     1      67.592  -3.482 -33.228  1.00  0.00     0.113 C 
BRANCH  13  14
HETATM   14  C1  UNL     1      68.708  -3.119 -32.319  1.00  0.00     0.172 C 
HETATM   15  O1  UNL     1      69.831  -3.691 -32.346  1.00  0.00    -0.648 OA
HETATM   16  O2  UNL     1      68.490  -2.089 -31.390  1.00  0.00    -0.648 OA
ENDBRANCH  13  14
ENDBRANCH  12  13
ENDBRANCH  11  12
ENDBRANCH   8  11
ENDBRANCH   1   7
BRANCH   4  17
HETATM   17  C10 UNL     1      60.938   0.089 -29.083  1.00  0.00     0.012 C 
HETATM   18  C11 UNL     1      60.639   1.315 -29.411  1.00  0.00     0.012 C 
BRANCH  18  19
HETATM   19  C12 UNL     1      59.447   2.054 -29.023  1.00  0.00    -0.036 A 
HETATM   20  C13 UNL     1      58.305   1.397 -28.555  1.00  0.00     0.011 A 
HETATM   21  C14 UNL     1      57.229   2.200 -28.213  1.00  0.00     0.001 A 
HETATM   22  C15 UNL     1      57.261   3.571 -28.321  1.00  0.00     0.000 A 
HETATM   23  C16 UNL     1      58.383   4.187 -28.778  1.00  0.00     0.001 A 
HETATM   24  C17 UNL     1      59.476   3.431 -29.129  1.00  0.00     0.011 A 
ENDBRANCH  18  19
ENDBRANCH   4  17
TORSDOF 7
ENDMDL
