MODEL 10
REMARK VINA RESULT: -9.785549575      3.941     10.568
REMARK  7 active torsions:
REMARK  status: ('A' for Active; 'I' for Inactive)
REMARK    1  A    between atoms: C1_2  and  C2_4 
REMARK    2  A    between atoms: C2_4  and  C3_5 
REMARK    3  A    between atoms: C3_5  and  C4_6 
REMARK    4  A    between atoms: C4_6  and  C5_7 
REMARK       I    between atoms: C5_7  and  N1_9 
REMARK    5  A    between atoms: N1_9  and  C6_11 
REMARK    6  A    between atoms: C9_14  and  C10_15 
REMARK    7  A    between atoms: C11_16  and  C12_17 
ROOT
HETATM    1  C6  UNL     1      63.356  -0.727 -29.573  1.00  0.00     0.034 A 
HETATM    2  C7  UNL     1      64.404  -0.186 -30.324  1.00  0.00     0.030 A 
HETATM    3  C8  UNL     1      65.341  -0.991 -30.890  1.00  0.00     0.013 A 
HETATM    4  C9  UNL     1      65.337  -2.364 -30.775  1.00  0.00    -0.036 A 
HETATM    5  C18 UNL     1      64.315  -2.903 -30.042  1.00  0.00     0.013 A 
HETATM    6  C19 UNL     1      63.333  -2.083 -29.446  1.00  0.00     0.030 A 
ENDROOT
BRANCH   1   7
HETATM    7  N1  UNL     1      62.408   0.144 -28.984  1.00  0.00    -0.327 N 
HETATM    8  C5  UNL     1      61.198   0.551 -29.562  1.00  0.00     0.222 C 
HETATM    9  O3  UNL     1      60.864   0.154 -30.691  1.00  0.00    -0.273 OA
ATOM     10  H1  UNL     1      62.625   0.508 -28.056  1.00  0.00     0.169 HD
BRANCH   8  11
HETATM   11  C4  UNL     1      60.273   1.493 -28.799  1.00  0.00     0.103 C 
BRANCH  11  12
HETATM   12  C3  UNL     1      58.827   1.056 -29.049  1.00  0.00     0.020 C 
BRANCH  12  13
HETATM   13  C2  UNL     1      57.950   1.578 -27.945  1.00  0.00     0.113 C 
BRANCH  13  14
HETATM   14  C1  UNL     1      57.186   2.754 -28.433  1.00  0.00     0.172 C 
HETATM   15  O1  UNL     1      57.731   3.742 -28.995  1.00  0.00    -0.648 OA
HETATM   16  O2  UNL     1      55.794   2.754 -28.253  1.00  0.00    -0.648 OA
ENDBRANCH  13  14
ENDBRANCH  12  13
ENDBRANCH  11  12
ENDBRANCH   8  11
ENDBRANCH   1   7
BRANCH   4  17
HETATM   17  C10 UNL     1      66.370  -3.160 -31.407  1.00  0.00     0.012 C 
HETATM   18  C11 UNL     1      67.354  -2.720 -32.140  1.00  0.00     0.012 C 
BRANCH  18  19
HETATM   19  C12 UNL     1      68.391  -3.519 -32.775  1.00  0.00    -0.036 A 
HETATM   20  C13 UNL     1      68.504  -3.591 -34.167  1.00  0.00     0.011 A 
HETATM   21  C14 UNL     1      69.529  -4.381 -34.662  1.00  0.00     0.001 A 
HETATM   22  C15 UNL     1      70.399  -5.067 -33.846  1.00  0.00     0.000 A 
HETATM   23  C16 UNL     1      70.270  -4.981 -32.496  1.00  0.00     0.001 A 
HETATM   24  C17 UNL     1      69.267  -4.208 -31.959  1.00  0.00     0.011 A 
ENDBRANCH  18  19
ENDBRANCH   4  17
TORSDOF 7
ENDMDL
