MODEL 11
REMARK VINA RESULT: -9.678476477      3.830     10.391
REMARK  7 active torsions:
REMARK  status: ('A' for Active; 'I' for Inactive)
REMARK    1  A    between atoms: C1_2  and  C2_4 
REMARK    2  A    between atoms: C2_4  and  C3_5 
REMARK    3  A    between atoms: C3_5  and  C4_6 
REMARK    4  A    between atoms: C4_6  and  C5_7 
REMARK       I    between atoms: C5_7  and  N1_9 
REMARK    5  A    between atoms: N1_9  and  C6_11 
REMARK    6  A    between atoms: C9_14  and  C10_15 
REMARK    7  A    between atoms: C11_16  and  C12_17 
ROOT
HETATM    1  C6  UNL     1      63.226  -1.009 -29.775  1.00  0.00     0.034 A 
HETATM    2  C7  UNL     1      63.417  -2.392 -29.701  1.00  0.00     0.030 A 
HETATM    3  C8  UNL     1      64.568  -2.960 -30.148  1.00  0.00     0.013 A 
HETATM    4  C9  UNL     1      65.610  -2.243 -30.695  1.00  0.00    -0.036 A 
HETATM    5  C18 UNL     1      65.432  -0.888 -30.771  1.00  0.00     0.013 A 
HETATM    6  C19 UNL     1      64.244  -0.280 -30.313  1.00  0.00     0.030 A 
ENDROOT
BRANCH   1   7
HETATM    7  N1  UNL     1      62.007  -0.455 -29.314  1.00  0.00    -0.327 N 
HETATM    8  C5  UNL     1      60.975   0.041 -30.121  1.00  0.00     0.222 C 
HETATM    9  O3  UNL     1      61.071   0.029 -31.359  1.00  0.00    -0.273 OA
ATOM     10  H1  UNL     1      61.868  -0.414 -28.304  1.00  0.00     0.169 HD
BRANCH   8  11
HETATM   11  C4  UNL     1      59.714   0.604 -29.476  1.00  0.00     0.103 C 
BRANCH  11  12
HETATM   12  C3  UNL     1      60.132   1.585 -28.376  1.00  0.00     0.020 C 
BRANCH  12  13
HETATM   13  C2  UNL     1      60.110   2.985 -28.923  1.00  0.00     0.113 C 
BRANCH  13  14
HETATM   14  C1  UNL     1      58.756   3.567 -28.743  1.00  0.00     0.172 C 
HETATM   15  O1  UNL     1      57.888   3.064 -27.980  1.00  0.00    -0.648 OA
HETATM   16  O2  UNL     1      58.439   4.730 -29.462  1.00  0.00    -0.648 OA
ENDBRANCH  13  14
ENDBRANCH  12  13
ENDBRANCH  11  12
ENDBRANCH   8  11
ENDBRANCH   1   7
BRANCH   4  17
HETATM   17  C10 UNL     1      66.809  -2.916 -31.151  1.00  0.00     0.012 C 
HETATM   18  C11 UNL     1      67.150  -3.150 -32.387  1.00  0.00     0.012 C 
BRANCH  18  19
HETATM   19  C12 UNL     1      68.354  -3.827 -32.845  1.00  0.00    -0.036 A 
HETATM   20  C13 UNL     1      69.238  -4.426 -31.944  1.00  0.00     0.011 A 
HETATM   21  C14 UNL     1      70.352  -5.042 -32.491  1.00  0.00     0.001 A 
HETATM   22  C15 UNL     1      70.594  -5.074 -33.846  1.00  0.00     0.000 A 
HETATM   23  C16 UNL     1      69.719  -4.485 -34.702  1.00  0.00     0.001 A 
HETATM   24  C17 UNL     1      68.599  -3.861 -34.204  1.00  0.00     0.011 A 
ENDBRANCH  18  19
ENDBRANCH   4  17
TORSDOF 7
ENDMDL
