MODEL 1
REMARK VINA RESULT: -11.636473143      0.000      0.000
REMARK  7 active torsions:
REMARK  status: ('A' for Active; 'I' for Inactive)
REMARK    1  A    between atoms: C1_2  and  C2_4 
REMARK    2  A    between atoms: C2_4  and  C3_5 
REMARK    3  A    between atoms: C3_5  and  C4_6 
REMARK    4  A    between atoms: C4_6  and  C5_7 
REMARK       I    between atoms: C5_7  and  N1_9 
REMARK    5  A    between atoms: N1_9  and  C6_11 
REMARK    6  A    between atoms: C9_14  and  C10_15 
REMARK    7  A    between atoms: C11_16  and  C12_17 
ROOT
HETATM    1  C6  UNL     1      64.539  -2.147 -30.237  1.00  0.00     0.034 A 
HETATM    2  C7  UNL     1      64.364  -0.805 -30.585  1.00  0.00     0.030 A 
HETATM    3  C8  UNL     1      63.259  -0.121 -30.186  1.00  0.00     0.013 A 
HETATM    4  C9  UNL     1      62.250  -0.677 -29.430  1.00  0.00    -0.036 A 
HETATM    5  C18 UNL     1      62.412  -1.991 -29.085  1.00  0.00     0.013 A 
HETATM    6  C19 UNL     1      63.552  -2.717 -29.489  1.00  0.00     0.030 A 
ENDROOT
BRANCH   1   7
HETATM    7  N1  UNL     1      65.694  -2.832 -30.684  1.00  0.00    -0.327 N 
HETATM    8  C5  UNL     1      65.723  -4.118 -31.237  1.00  0.00     0.222 C 
HETATM    9  O3  UNL     1      64.680  -4.778 -31.374  1.00  0.00    -0.273 OA
ATOM     10  H1  UNL     1      66.586  -2.344 -30.596  1.00  0.00     0.169 HD
BRANCH   8  11
HETATM   11  C4  UNL     1      67.052  -4.723 -31.679  1.00  0.00     0.103 C 
BRANCH  11  12
HETATM   12  C3  UNL     1      68.185  -3.867 -31.106  1.00  0.00     0.020 C 
BRANCH  12  13
HETATM   13  C2  UNL     1      69.055  -3.375 -32.229  1.00  0.00     0.113 C 
BRANCH  13  14
HETATM   14  C1  UNL     1      69.891  -4.494 -32.735  1.00  0.00     0.172 C 
HETATM   15  O1  UNL     1      70.688  -5.141 -32.003  1.00  0.00    -0.648 OA
HETATM   16  O2  UNL     1      69.780  -4.836 -34.091  1.00  0.00    -0.648 OA
ENDBRANCH  13  14
ENDBRANCH  12  13
ENDBRANCH  11  12
ENDBRANCH   8  11
ENDBRANCH   1   7
BRANCH   4  17
HETATM   17  C10 UNL     1      61.099   0.114 -29.041  1.00  0.00     0.012 C 
HETATM   18  C11 UNL     1      60.784   1.300 -29.480  1.00  0.00     0.012 C 
BRANCH  18  19
HETATM   19  C12 UNL     1      59.629   2.094 -29.089  1.00  0.00    -0.036 A 
HETATM   20  C13 UNL     1      59.643   3.489 -29.174  1.00  0.00     0.011 A 
HETATM   21  C14 UNL     1      58.489   4.143 -28.776  1.00  0.00     0.001 A 
HETATM   22  C15 UNL     1      57.377   3.474 -28.318  1.00  0.00     0.000 A 
HETATM   23  C16 UNL     1      57.386   2.118 -28.244  1.00  0.00     0.001 A 
HETATM   24  C17 UNL     1      58.511   1.426 -28.629  1.00  0.00     0.011 A 
ENDBRANCH  18  19
ENDBRANCH   4  17
TORSDOF 7
ENDMDL
