MODEL 6
REMARK VINA RESULT: -11.029315366      1.226      1.962
REMARK  7 active torsions:
REMARK  status: ('A' for Active; 'I' for Inactive)
REMARK    1  A    between atoms: C1_2  and  C2_4 
REMARK    2  A    between atoms: C2_4  and  C3_5 
REMARK    3  A    between atoms: C3_5  and  C4_6 
REMARK    4  A    between atoms: C4_6  and  C5_7 
REMARK       I    between atoms: C5_7  and  N1_9 
REMARK    5  A    between atoms: N1_9  and  C6_11 
REMARK    6  A    between atoms: C9_14  and  C10_15 
REMARK    7  A    between atoms: C11_16  and  C12_17 
ROOT
HETATM    1  C6  UNL     1      64.918  -2.290 -30.611  1.00  0.00     0.034 A 
HETATM    2  C7  UNL     1      63.832  -2.774 -29.876  1.00  0.00     0.030 A 
HETATM    3  C8  UNL     1      62.868  -1.931 -29.422  1.00  0.00     0.013 A 
HETATM    4  C9  UNL     1      62.880  -0.570 -29.641  1.00  0.00    -0.036 A 
HETATM    5  C18 UNL     1      63.939  -0.087 -30.360  1.00  0.00     0.013 A 
HETATM    6  C19 UNL     1      64.950  -0.946 -30.839  1.00  0.00     0.030 A 
ENDROOT
BRANCH   1   7
HETATM    7  N1  UNL     1      65.911  -3.196 -31.053  1.00  0.00    -0.327 N 
HETATM    8  C5  UNL     1      67.268  -3.160 -30.705  1.00  0.00     0.222 C 
HETATM    9  O3  UNL     1      67.710  -2.280 -29.949  1.00  0.00    -0.273 OA
ATOM     10  H1  UNL     1      65.613  -3.943 -31.681  1.00  0.00     0.169 HD
BRANCH   8  11
HETATM   11  C4  UNL     1      68.220  -4.214 -31.260  1.00  0.00     0.103 C 
BRANCH  11  12
HETATM   12  C3  UNL     1      69.153  -3.537 -32.269  1.00  0.00     0.020 C 
BRANCH  12  13
HETATM   13  C2  UNL     1      68.597  -3.709 -33.655  1.00  0.00     0.113 C 
BRANCH  13  14
HETATM   14  C1  UNL     1      69.634  -4.305 -34.534  1.00  0.00     0.172 C 
HETATM   15  O1  UNL     1      70.570  -5.029 -34.100  1.00  0.00    -0.648 OA
HETATM   16  O2  UNL     1      69.559  -4.042 -35.911  1.00  0.00    -0.648 OA
ENDBRANCH  13  14
ENDBRANCH  12  13
ENDBRANCH  11  12
ENDBRANCH   8  11
ENDBRANCH   1   7
BRANCH   4  17
HETATM   17  C10 UNL     1      61.816   0.269 -29.127  1.00  0.00     0.012 C 
HETATM   18  C11 UNL     1      60.900   0.882 -29.823  1.00  0.00     0.012 C 
BRANCH  18  19
HETATM   19  C12 UNL     1      59.832   1.724 -29.306  1.00  0.00    -0.036 A 
HETATM   20  C13 UNL     1      58.643   1.174 -28.818  1.00  0.00     0.011 A 
HETATM   21  C14 UNL     1      57.696   2.070 -28.350  1.00  0.00     0.001 A 
HETATM   22  C15 UNL     1      57.894   3.432 -28.357  1.00  0.00     0.000 A 
HETATM   23  C16 UNL     1      59.058   3.943 -28.836  1.00  0.00     0.001 A 
HETATM   24  C17 UNL     1      60.028   3.092 -29.311  1.00  0.00     0.011 A 
ENDBRANCH  18  19
ENDBRANCH   4  17
TORSDOF 7
ENDMDL
