MODEL 3
REMARK VINA RESULT: -11.473966384      0.193      1.561
REMARK  7 active torsions:
REMARK  status: ('A' for Active; 'I' for Inactive)
REMARK    1  A    between atoms: C1_2  and  C2_4 
REMARK    2  A    between atoms: C2_4  and  C3_5 
REMARK    3  A    between atoms: C3_5  and  C4_6 
REMARK    4  A    between atoms: C4_6  and  C5_7 
REMARK       I    between atoms: C5_7  and  N1_9 
REMARK    5  A    between atoms: N1_9  and  C6_11 
REMARK    6  A    between atoms: C9_14  and  C10_15 
REMARK    7  A    between atoms: C11_16  and  C12_17 
ROOT
HETATM    1  C6  UNL     1      64.637  -2.155 -30.251  1.00  0.00     0.034 A 
HETATM    2  C7  UNL     1      63.641  -2.728 -29.455  1.00  0.00     0.030 A 
HETATM    3  C8  UNL     1      62.545  -2.013 -29.090  1.00  0.00     0.013 A 
HETATM    4  C9  UNL     1      62.331  -0.703 -29.460  1.00  0.00    -0.036 A 
HETATM    5  C18 UNL     1      63.302  -0.133 -30.238  1.00  0.00     0.013 A 
HETATM    6  C19 UNL     1      64.446  -0.859 -30.628  1.00  0.00     0.030 A 
ENDROOT
BRANCH   1   7
HETATM    7  N1  UNL     1      65.772  -2.926 -30.598  1.00  0.00    -0.327 N 
HETATM    8  C5  UNL     1      65.757  -4.140 -31.298  1.00  0.00     0.222 C 
HETATM    9  O3  UNL     1      64.687  -4.646 -31.674  1.00  0.00    -0.273 OA
ATOM     10  H1  UNL     1      66.684  -2.566 -30.314  1.00  0.00     0.169 HD
BRANCH   8  11
HETATM   11  C4  UNL     1      67.069  -4.854 -31.604  1.00  0.00     0.103 C 
BRANCH  11  12
HETATM   12  C3  UNL     1      68.224  -3.945 -31.175  1.00  0.00     0.020 C 
BRANCH  12  13
HETATM   13  C2  UNL     1      68.962  -3.467 -32.394  1.00  0.00     0.113 C 
BRANCH  13  14
HETATM   14  C1  UNL     1      69.796  -4.572 -32.933  1.00  0.00     0.172 C 
HETATM   15  O1  UNL     1      69.672  -5.018 -34.105  1.00  0.00    -0.648 OA
HETATM   16  O2  UNL     1      70.763  -5.137 -32.087  1.00  0.00    -0.648 OA
ENDBRANCH  13  14
ENDBRANCH  12  13
ENDBRANCH  11  12
ENDBRANCH   8  11
ENDBRANCH   1   7
BRANCH   4  17
HETATM   17  C10 UNL     1      61.137  -0.001 -29.032  1.00  0.00     0.012 C 
HETATM   18  C11 UNL     1      60.697   1.138 -29.488  1.00  0.00     0.012 C 
BRANCH  18  19
HETATM   19  C12 UNL     1      59.498   1.842 -29.058  1.00  0.00    -0.036 A 
HETATM   20  C13 UNL     1      58.357   1.149 -28.645  1.00  0.00     0.011 A 
HETATM   21  C14 UNL     1      57.275   1.921 -28.256  1.00  0.00     0.001 A 
HETATM   22  C15 UNL     1      57.300   3.297 -28.270  1.00  0.00     0.000 A 
HETATM   23  C16 UNL     1      58.421   3.949 -28.675  1.00  0.00     0.001 A 
HETATM   24  C17 UNL     1      59.521   3.223 -29.069  1.00  0.00     0.011 A 
ENDBRANCH  18  19
ENDBRANCH   4  17
TORSDOF 7
ENDMDL
