MODEL 10
REMARK VINA RESULT: -8.778351791      3.970      7.490
REMARK  10 active torsions:
REMARK  status: ('A' for Active; 'I' for Inactive)
REMARK    1  A    between atoms: N4_17  and  C9_18 
REMARK    2  A    between atoms: C9_18  and  C10_19 
REMARK    3  A    between atoms: C10_19  and  O3_20 
REMARK    4  A    between atoms: C10_19  and  C11_22 
REMARK    5  A    between atoms: C11_22  and  O4_23 
REMARK    6  A    between atoms: C11_22  and  C12_25 
REMARK    7  A    between atoms: C12_25  and  O5_26 
REMARK    8  A    between atoms: C12_25  and  C13_28 
REMARK    9  A    between atoms: C13_28  and  O6_29 
REMARK   10  A    between atoms: O6_29  and  P1_30 
ROOT
HETATM    1  C1  UNL     1      22.417  22.108  19.677  1.00  0.00     0.049 C 
HETATM    2  C2  UNL     1      22.585  23.075  20.788  1.00  0.00    -0.054 A 
HETATM    3  C3  UNL     1      21.849  22.957  21.946  1.00  0.00     0.039 A 
HETATM    4  C4  UNL     1      21.986  23.847  23.001  1.00  0.00     0.060 A 
HETATM    5  N1  UNL     1      21.244  23.679  24.110  1.00  0.00    -0.347 N 
ATOM      6  H1  UNL     1      20.586  22.901  24.163  1.00  0.00     0.166 HD
HETATM    7  C5  UNL     1      21.360  24.519  25.145  1.00  0.00     0.146 A 
HETATM    8  C6  UNL     1      20.612  24.388  26.321  1.00  0.00     0.280 A 
HETATM    9  O1  UNL     1      19.806  23.442  26.392  1.00  0.00    -0.265 OA
HETATM   10  N2  UNL     1      20.781  25.278  27.330  1.00  0.00    -0.273 N 
ATOM     11  H2  UNL     1      20.238  25.186  28.188  1.00  0.00     0.173 HD
HETATM   12  C7  UNL     1      21.666  26.283  27.199  1.00  0.00     0.328 A 
HETATM   13  O2  UNL     1      21.775  27.074  28.173  1.00  0.00    -0.247 OA
HETATM   14  N3  UNL     1      22.416  26.449  26.070  1.00  0.00    -0.292 N 
ATOM     15  H3  UNL     1      23.074  27.226  26.017  1.00  0.00     0.172 HD
HETATM   16  C8  UNL     1      22.306  25.610  25.029  1.00  0.00     0.145 A 
HETATM   17  N4  UNL     1      23.039  25.742  23.881  1.00  0.00    -0.327 N 
HETATM   18  C14 UNL     1      22.910  24.888  22.853  1.00  0.00     0.063 A 
HETATM   19  C15 UNL     1      23.653  25.014  21.695  1.00  0.00     0.039 A 
HETATM   20  C16 UNL     1      23.493  24.109  20.662  1.00  0.00    -0.054 A 
HETATM   21  C17 UNL     1      24.282  24.229  19.411  1.00  0.00     0.049 C 
ENDROOT
BRANCH  17  22
HETATM   22  C9  UNL     1      23.970  26.847  23.818  1.00  0.00     0.165 C 
BRANCH  22  23
HETATM   23  C10 UNL     1      23.172  28.112  23.471  1.00  0.00     0.167 C 
BRANCH  23  24
HETATM   24  O3  UNL     1      23.297  28.508  22.169  1.00  0.00    -0.391 OA
ATOM     25  H3  UNL     1      23.968  29.166  22.027  1.00  0.00     0.210 HD
ENDBRANCH  23  24
BRANCH  23  26
HETATM   26  C11 UNL     1      23.349  29.208  24.421  1.00  0.00     0.179 C 
BRANCH  26  27
HETATM   27  O4  UNL     1      24.144  28.798  25.495  1.00  0.00    -0.390 OA
ATOM     28  H4  UNL     1      24.977  28.462  25.181  1.00  0.00     0.210 HD
ENDBRANCH  26  27
BRANCH  26  29
HETATM   29  C12 UNL     1      22.237  30.031  24.899  1.00  0.00     0.173 C 
BRANCH  29  30
HETATM   30  O5  UNL     1      21.212  29.076  25.255  1.00  0.00    -0.391 OA
ATOM     31  H5  UNL     1      20.512  29.241  24.635  1.00  0.00     0.210 HD
ENDBRANCH  29  30
BRANCH  29  32
HETATM   32  C13 UNL     1      21.521  30.870  23.845  1.00  0.00     0.217 C 
BRANCH  32  33
HETATM   33  O6  UNL     1      22.490  31.354  22.916  1.00  0.00    -0.280 OA
BRANCH  33  34
HETATM   34  P1  UNL     1      21.772  31.599  21.415  1.00  0.00     0.422 P 
HETATM   35  O7  UNL     1      20.318  31.279  21.522  1.00  0.00    -0.617 OA
HETATM   36  O8  UNL     1      22.459  30.627  20.218  1.00  0.00    -0.617 OA
HETATM   37  O9  UNL     1      21.916  33.216  20.914  1.00  0.00    -0.617 OA
ENDBRANCH  33  34
ENDBRANCH  32  33
ENDBRANCH  29  32
ENDBRANCH  26  29
ENDBRANCH  23  26
ENDBRANCH  22  23
ENDBRANCH  17  22
TORSDOF 10
ENDMDL
