MODEL 7
REMARK VINA RESULT: -9.251427045      1.142      1.471
REMARK  10 active torsions:
REMARK  status: ('A' for Active; 'I' for Inactive)
REMARK    1  A    between atoms: N4_17  and  C9_18 
REMARK    2  A    between atoms: C9_18  and  C10_19 
REMARK    3  A    between atoms: C10_19  and  O3_20 
REMARK    4  A    between atoms: C10_19  and  C11_22 
REMARK    5  A    between atoms: C11_22  and  O4_23 
REMARK    6  A    between atoms: C11_22  and  C12_25 
REMARK    7  A    between atoms: C12_25  and  O5_26 
REMARK    8  A    between atoms: C12_25  and  C13_28 
REMARK    9  A    between atoms: C13_28  and  O6_29 
REMARK   10  A    between atoms: O6_29  and  P1_30 
ROOT
HETATM    1  C1  UNL     1      23.678  23.986  19.219  1.00  0.00     0.049 C 
HETATM    2  C2  UNL     1      23.370  24.288  20.638  1.00  0.00    -0.054 A 
HETATM    3  C3  UNL     1      24.069  25.257  21.323  1.00  0.00     0.039 A 
HETATM    4  C4  UNL     1      23.802  25.559  22.650  1.00  0.00     0.060 A 
HETATM    5  N1  UNL     1      24.514  26.520  23.266  1.00  0.00    -0.347 N 
ATOM      6  H1  UNL     1      25.245  27.013  22.754  1.00  0.00     0.166 HD
HETATM    7  C5  UNL     1      24.273  26.836  24.545  1.00  0.00     0.146 A 
HETATM    8  C6  UNL     1      24.985  27.827  25.231  1.00  0.00     0.280 A 
HETATM    9  O1  UNL     1      25.879  28.433  24.612  1.00  0.00    -0.265 OA
HETATM   10  N2  UNL     1      24.687  28.094  26.527  1.00  0.00    -0.273 N 
ATOM     11  H2  UNL     1      25.204  28.815  27.031  1.00  0.00     0.173 HD
HETATM   12  C7  UNL     1      23.711  27.409  27.148  1.00  0.00     0.328 A 
HETATM   13  O2  UNL     1      23.484  27.707  28.350  1.00  0.00    -0.247 OA
HETATM   14  N3  UNL     1      22.991  26.435  26.517  1.00  0.00    -0.292 N 
ATOM     15  H3  UNL     1      22.260  25.942  27.029  1.00  0.00     0.172 HD
HETATM   16  C8  UNL     1      23.227  26.113  25.236  1.00  0.00     0.145 A 
HETATM   17  N4  UNL     1      22.529  25.143  24.569  1.00  0.00    -0.327 N 
HETATM   18  C14 UNL     1      22.783  24.839  23.285  1.00  0.00     0.063 A 
HETATM   19  C15 UNL     1      22.076  23.866  22.606  1.00  0.00     0.039 A 
HETATM   20  C16 UNL     1      22.367  23.589  21.284  1.00  0.00    -0.054 A 
HETATM   21  C17 UNL     1      21.619  22.547  20.538  1.00  0.00     0.049 C 
ENDROOT
BRANCH  17  22
HETATM   22  C9  UNL     1      21.493  24.452  25.305  1.00  0.00     0.165 C 
BRANCH  22  23
HETATM   23  C10 UNL     1      22.174  23.411  26.205  1.00  0.00     0.167 C 
BRANCH  23  24
HETATM   24  O3  UNL     1      22.269  22.168  25.644  1.00  0.00    -0.391 OA
ATOM     25  H3  UNL     1      22.841  21.573  26.115  1.00  0.00     0.210 HD
ENDBRANCH  23  24
BRANCH  23  26
HETATM   26  C11 UNL     1      21.666  23.382  27.574  1.00  0.00     0.179 C 
BRANCH  26  27
HETATM   27  O4  UNL     1      22.519  24.090  28.425  1.00  0.00    -0.390 OA
ATOM     28  H4  UNL     1      22.024  24.710  28.949  1.00  0.00     0.210 HD
ENDBRANCH  26  27
BRANCH  26  29
HETATM   29  C12 UNL     1      21.205  22.154  28.225  1.00  0.00     0.173 C 
BRANCH  29  30
HETATM   30  O5  UNL     1      19.912  21.900  27.633  1.00  0.00    -0.391 OA
ATOM     31  H5  UNL     1      19.615  21.100  28.052  1.00  0.00     0.210 HD
ENDBRANCH  29  30
BRANCH  29  32
HETATM   32  C13 UNL     1      20.849  22.271  29.703  1.00  0.00     0.217 C 
BRANCH  32  33
HETATM   33  O6  UNL     1      20.291  23.564  29.935  1.00  0.00    -0.280 OA
BRANCH  33  34
HETATM   34  P1  UNL     1      19.102  23.471  31.121  1.00  0.00     0.422 P 
HETATM   35  O7  UNL     1      18.121  22.415  30.733  1.00  0.00    -0.617 OA
HETATM   36  O8  UNL     1      18.283  24.935  31.311  1.00  0.00    -0.617 OA
HETATM   37  O9  UNL     1      19.760  23.046  32.629  1.00  0.00    -0.617 OA
ENDBRANCH  33  34
ENDBRANCH  32  33
ENDBRANCH  29  32
ENDBRANCH  26  29
ENDBRANCH  23  26
ENDBRANCH  22  23
ENDBRANCH  17  22
TORSDOF 10
ENDMDL
