MODEL 3
REMARK VINA RESULT: -9.417435106      0.768      1.105
REMARK  10 active torsions:
REMARK  status: ('A' for Active; 'I' for Inactive)
REMARK    1  A    between atoms: N4_17  and  C9_18 
REMARK    2  A    between atoms: C9_18  and  C10_19 
REMARK    3  A    between atoms: C10_19  and  O3_20 
REMARK    4  A    between atoms: C10_19  and  C11_22 
REMARK    5  A    between atoms: C11_22  and  O4_23 
REMARK    6  A    between atoms: C11_22  and  C12_25 
REMARK    7  A    between atoms: C12_25  and  O5_26 
REMARK    8  A    between atoms: C12_25  and  C13_28 
REMARK    9  A    between atoms: C13_28  and  O6_29 
REMARK   10  A    between atoms: O6_29  and  P1_30 
ROOT
HETATM    1  C1  UNL     1      23.513  24.044  19.286  1.00  0.00     0.049 C 
HETATM    2  C2  UNL     1      23.248  24.327  20.717  1.00  0.00    -0.054 A 
HETATM    3  C3  UNL     1      23.969  25.286  21.395  1.00  0.00     0.039 A 
HETATM    4  C4  UNL     1      23.741  25.570  22.734  1.00  0.00     0.060 A 
HETATM    5  N1  UNL     1      24.472  26.521  23.342  1.00  0.00    -0.347 N 
ATOM      6  H1  UNL     1      25.189  27.020  22.815  1.00  0.00     0.166 HD
HETATM    7  C5  UNL     1      24.270  26.820  24.630  1.00  0.00     0.146 A 
HETATM    8  C6  UNL     1      25.003  27.801  25.309  1.00  0.00     0.280 A 
HETATM    9  O1  UNL     1      25.879  28.413  24.672  1.00  0.00    -0.265 OA
HETATM   10  N2  UNL     1      24.744  28.050  26.617  1.00  0.00    -0.273 N 
ATOM     11  H2  UNL     1      25.276  28.764  27.116  1.00  0.00     0.173 HD
HETATM   12  C7  UNL     1      23.785  27.357  27.257  1.00  0.00     0.328 A 
HETATM   13  O2  UNL     1      23.595  27.639  28.469  1.00  0.00    -0.247 OA
HETATM   14  N3  UNL     1      23.046  26.393  26.634  1.00  0.00    -0.292 N 
ATOM     15  H3  UNL     1      22.330  25.894  27.161  1.00  0.00     0.172 HD
HETATM   16  C8  UNL     1      23.243  26.088  25.342  1.00  0.00     0.145 A 
HETATM   17  N4  UNL     1      22.524  25.129  24.683  1.00  0.00    -0.327 N 
HETATM   18  C14 UNL     1      22.740  24.842  23.388  1.00  0.00     0.063 A 
HETATM   19  C15 UNL     1      22.012  23.879  22.717  1.00  0.00     0.039 A 
HETATM   20  C16 UNL     1      22.264  23.621  21.383  1.00  0.00    -0.054 A 
HETATM   21  C17 UNL     1      21.492  22.589  20.645  1.00  0.00     0.049 C 
ENDROOT
BRANCH  17  22
HETATM   22  C9  UNL     1      21.510  24.428  25.440  1.00  0.00     0.165 C 
BRANCH  22  23
HETATM   23  C10 UNL     1      22.224  23.509  26.441  1.00  0.00     0.167 C 
BRANCH  23  24
HETATM   24  O3  UNL     1      22.905  22.476  25.860  1.00  0.00    -0.391 OA
ATOM     25  H3  UNL     1      22.476  22.113  25.093  1.00  0.00     0.210 HD
ENDBRANCH  23  24
BRANCH  23  26
HETATM   26  C11 UNL     1      21.388  23.084  27.561  1.00  0.00     0.179 C 
BRANCH  26  27
HETATM   27  O4  UNL     1      21.793  23.718  28.739  1.00  0.00    -0.390 OA
ATOM     28  H4  UNL     1      21.040  24.070  29.201  1.00  0.00     0.210 HD
ENDBRANCH  26  27
BRANCH  26  29
HETATM   29  C12 UNL     1      21.068  21.680  27.825  1.00  0.00     0.173 C 
BRANCH  29  30
HETATM   30  O5  UNL     1      20.454  21.217  26.602  1.00  0.00    -0.391 OA
ATOM     31  H5  UNL     1      19.548  21.058  26.840  1.00  0.00     0.210 HD
ENDBRANCH  29  30
BRANCH  29  32
HETATM   32  C13 UNL     1      19.960  21.424  28.842  1.00  0.00     0.217 C 
BRANCH  32  33
HETATM   33  O6  UNL     1      20.557  21.230  30.124  1.00  0.00    -0.280 OA
BRANCH  33  34
HETATM   34  P1  UNL     1      19.713  22.105  31.286  1.00  0.00     0.422 P 
HETATM   35  O7  UNL     1      19.930  23.561  31.040  1.00  0.00    -0.617 OA
HETATM   36  O8  UNL     1      20.224  21.733  32.852  1.00  0.00    -0.617 OA
HETATM   37  O9  UNL     1      18.043  21.804  31.201  1.00  0.00    -0.617 OA
ENDBRANCH  33  34
ENDBRANCH  32  33
ENDBRANCH  29  32
ENDBRANCH  26  29
ENDBRANCH  23  26
ENDBRANCH  22  23
ENDBRANCH  17  22
TORSDOF 10
ENDMDL
