MODEL 2
REMARK VINA RESULT: -10.289327344      0.455      1.306
REMARK  10 active torsions:
REMARK  status: ('A' for Active; 'I' for Inactive)
REMARK    1  A    between atoms: N4_17  and  C9_18 
REMARK    2  A    between atoms: C9_18  and  C10_19 
REMARK    3  A    between atoms: C10_19  and  O3_20 
REMARK    4  A    between atoms: C10_19  and  C11_22 
REMARK    5  A    between atoms: C11_22  and  O4_23 
REMARK    6  A    between atoms: C11_22  and  C12_25 
REMARK    7  A    between atoms: C12_25  and  O5_26 
REMARK    8  A    between atoms: C12_25  and  C13_28 
REMARK    9  A    between atoms: C13_28  and  O6_29 
REMARK   10  A    between atoms: O6_29  and  P1_30 
ROOT
HETATM    1  C1  UNL     1      23.534  24.003  19.235  1.00  0.00     0.049 C 
HETATM    2  C2  UNL     1      23.230  24.239  20.667  1.00  0.00    -0.054 A 
HETATM    3  C3  UNL     1      23.899  25.209  21.382  1.00  0.00     0.039 A 
HETATM    4  C4  UNL     1      23.634  25.450  22.722  1.00  0.00     0.060 A 
HETATM    5  N1  UNL     1      24.315  26.414  23.368  1.00  0.00    -0.347 N 
ATOM      6  H1  UNL     1      25.020  26.954  22.867  1.00  0.00     0.166 HD
HETATM    7  C5  UNL     1      24.076  26.672  24.659  1.00  0.00     0.146 A 
HETATM    8  C6  UNL     1      24.756  27.664  25.376  1.00  0.00     0.280 A 
HETATM    9  O1  UNL     1      25.618  28.327  24.772  1.00  0.00    -0.265 OA
HETATM   10  N2  UNL     1      24.462  27.870  26.684  1.00  0.00    -0.273 N 
ATOM     11  H2  UNL     1      24.956  28.592  27.210  1.00  0.00     0.173 HD
HETATM   12  C7  UNL     1      23.520  27.124  27.288  1.00  0.00     0.328 A 
HETATM   13  O2  UNL     1      23.296  27.367  28.503  1.00  0.00    -0.247 OA
HETATM   14  N3  UNL     1      22.833  26.146  26.627  1.00  0.00    -0.292 N 
ATOM     15  H3  UNL     1      22.127  25.606  27.127  1.00  0.00     0.172 HD
HETATM   16  C8  UNL     1      23.066  25.883  25.333  1.00  0.00     0.145 A 
HETATM   17  N4  UNL     1      22.400  24.912  24.635  1.00  0.00    -0.327 N 
HETATM   18  C14 UNL     1      22.651  24.667  23.339  1.00  0.00     0.063 A 
HETATM   19  C15 UNL     1      21.976  23.693  22.630  1.00  0.00     0.039 A 
HETATM   20  C16 UNL     1      22.263  23.478  21.295  1.00  0.00    -0.054 A 
HETATM   21  C17 UNL     1      21.548  22.435  20.517  1.00  0.00     0.049 C 
ENDROOT
BRANCH  17  22
HETATM   22  C9  UNL     1      21.400  24.153  25.355  1.00  0.00     0.165 C 
BRANCH  22  23
HETATM   23  C10 UNL     1      22.131  23.107  26.208  1.00  0.00     0.167 C 
BRANCH  23  24
HETATM   24  O3  UNL     1      22.669  22.078  25.487  1.00  0.00    -0.391 OA
ATOM     25  H3  UNL     1      23.567  22.226  25.212  1.00  0.00     0.210 HD
ENDBRANCH  23  24
BRANCH  23  26
HETATM   26  C11 UNL     1      21.375  22.654  27.373  1.00  0.00     0.179 C 
BRANCH  26  27
HETATM   27  O4  UNL     1      20.384  21.748  26.988  1.00  0.00    -0.390 OA
ATOM     28  H4  UNL     1      19.694  21.714  27.642  1.00  0.00     0.210 HD
ENDBRANCH  26  27
BRANCH  26  29
HETATM   29  C12 UNL     1      20.856  23.572  28.389  1.00  0.00     0.173 C 
BRANCH  29  30
HETATM   30  O5  UNL     1      22.012  24.333  28.808  1.00  0.00    -0.391 OA
ATOM     31  H5  UNL     1      21.953  25.140  28.311  1.00  0.00     0.210 HD
ENDBRANCH  29  30
BRANCH  29  32
HETATM   32  C13 UNL     1      20.414  22.938  29.704  1.00  0.00     0.217 C 
BRANCH  32  33
HETATM   33  O6  UNL     1      21.108  21.702  29.868  1.00  0.00    -0.280 OA
BRANCH  33  34
HETATM   34  P1  UNL     1      20.895  21.128  31.434  1.00  0.00     0.422 P 
HETATM   35  O7  UNL     1      19.932  19.988  31.399  1.00  0.00    -0.617 OA
HETATM   36  O8  UNL     1      20.293  22.319  32.468  1.00  0.00    -0.617 OA
HETATM   37  O9  UNL     1      22.355  20.560  32.092  1.00  0.00    -0.617 OA
ENDBRANCH  33  34
ENDBRANCH  32  33
ENDBRANCH  29  32
ENDBRANCH  26  29
ENDBRANCH  23  26
ENDBRANCH  22  23
ENDBRANCH  17  22
TORSDOF 10
ENDMDL
