MODEL 11
REMARK VINA RESULT: -8.707099982      2.527      4.896
REMARK  10 active torsions:
REMARK  status: ('A' for Active; 'I' for Inactive)
REMARK    1  A    between atoms: N4_17  and  C9_18 
REMARK    2  A    between atoms: C9_18  and  C10_19 
REMARK    3  A    between atoms: C10_19  and  O3_20 
REMARK    4  A    between atoms: C10_19  and  C11_22 
REMARK    5  A    between atoms: C11_22  and  O4_23 
REMARK    6  A    between atoms: C11_22  and  C12_25 
REMARK    7  A    between atoms: C12_25  and  O5_26 
REMARK    8  A    between atoms: C12_25  and  C13_28 
REMARK    9  A    between atoms: C13_28  and  O6_29 
REMARK   10  A    between atoms: O6_29  and  P1_30 
ROOT
HETATM    1  C1  UNL     1      24.187  29.231  24.403  1.00  0.00     0.049 C 
HETATM    2  C2  UNL     1      23.606  27.905  24.082  1.00  0.00    -0.054 A 
HETATM    3  C3  UNL     1      23.905  27.269  22.896  1.00  0.00     0.039 A 
HETATM    4  C4  UNL     1      23.376  26.029  22.572  1.00  0.00     0.060 A 
HETATM    5  N1  UNL     1      23.708  25.454  21.402  1.00  0.00    -0.347 N 
ATOM      6  H1  UNL     1      24.341  25.937  20.765  1.00  0.00     0.166 HD
HETATM    7  C5  UNL     1      23.217  24.255  21.066  1.00  0.00     0.146 A 
HETATM    8  C6  UNL     1      23.531  23.614  19.861  1.00  0.00     0.280 A 
HETATM    9  O1  UNL     1      24.302  24.197  19.079  1.00  0.00    -0.265 OA
HETATM   10  N2  UNL     1      22.995  22.399  19.586  1.00  0.00    -0.273 N 
ATOM     11  H2  UNL     1      23.221  21.928  18.709  1.00  0.00     0.173 HD
HETATM   12  C7  UNL     1      22.166  21.813  20.468  1.00  0.00     0.328 A 
HETATM   13  O2  UNL     1      21.704  20.686  20.152  1.00  0.00    -0.247 OA
HETATM   14  N3  UNL     1      21.833  22.403  21.655  1.00  0.00    -0.292 N 
ATOM     15  H3  UNL     1      21.200  21.920  22.292  1.00  0.00     0.172 HD
HETATM   16  C8  UNL     1      22.322  23.604  21.999  1.00  0.00     0.145 A 
HETATM   17  N4  UNL     1      22.012  24.227  23.177  1.00  0.00    -0.327 N 
HETATM   18  C14 UNL     1      22.515  25.430  23.499  1.00  0.00     0.063 A 
HETATM   19  C15 UNL     1      22.210  26.060  24.690  1.00  0.00     0.039 A 
HETATM   20  C16 UNL     1      22.755  27.296  24.984  1.00  0.00    -0.054 A 
HETATM   21  C17 UNL     1      22.439  27.988  26.258  1.00  0.00     0.049 C 
ENDROOT
BRANCH  17  22
HETATM   22  C9  UNL     1      21.114  23.532  24.074  1.00  0.00     0.165 C 
BRANCH  22  23
HETATM   23  C10 UNL     1      21.930  22.469  24.822  1.00  0.00     0.167 C 
BRANCH  23  24
HETATM   24  O3  UNL     1      21.853  21.220  24.274  1.00  0.00    -0.391 OA
ATOM     25  H3  UNL     1      22.662  20.725  24.322  1.00  0.00     0.210 HD
ENDBRANCH  23  24
BRANCH  23  26
HETATM   26  C11 UNL     1      21.728  22.472  26.269  1.00  0.00     0.179 C 
BRANCH  26  27
HETATM   27  O4  UNL     1      20.375  22.297  26.572  1.00  0.00    -0.390 OA
ATOM     28  H4  UNL     1      20.211  21.402  26.849  1.00  0.00     0.210 HD
ENDBRANCH  26  27
BRANCH  26  29
HETATM   29  C12 UNL     1      22.319  23.480  27.152  1.00  0.00     0.173 C 
BRANCH  29  30
HETATM   30  O5  UNL     1      23.737  23.401  26.886  1.00  0.00    -0.391 OA
ATOM     31  H5  UNL     1      24.144  23.690  27.695  1.00  0.00     0.210 HD
ENDBRANCH  29  30
BRANCH  29  32
HETATM   32  C13 UNL     1      22.269  23.176  28.646  1.00  0.00     0.217 C 
BRANCH  32  33
HETATM   33  O6  UNL     1      21.130  23.831  29.204  1.00  0.00    -0.280 OA
BRANCH  33  34
HETATM   34  P1  UNL     1      20.137  22.706  29.963  1.00  0.00     0.422 P 
HETATM   35  O7  UNL     1      20.494  21.343  29.469  1.00  0.00    -0.617 OA
HETATM   36  O8  UNL     1      18.503  22.991  29.648  1.00  0.00    -0.617 OA
HETATM   37  O9  UNL     1      20.351  22.724  31.649  1.00  0.00    -0.617 OA
ENDBRANCH  33  34
ENDBRANCH  32  33
ENDBRANCH  29  32
ENDBRANCH  26  29
ENDBRANCH  23  26
ENDBRANCH  22  23
ENDBRANCH  17  22
TORSDOF 10
ENDMDL
