MODEL 6
REMARK VINA RESULT: -9.311856790      2.036      4.519
REMARK  10 active torsions:
REMARK  status: ('A' for Active; 'I' for Inactive)
REMARK    1  A    between atoms: N4_17  and  C9_18 
REMARK    2  A    between atoms: C9_18  and  C10_19 
REMARK    3  A    between atoms: C10_19  and  O3_20 
REMARK    4  A    between atoms: C10_19  and  C11_22 
REMARK    5  A    between atoms: C11_22  and  O4_23 
REMARK    6  A    between atoms: C11_22  and  C12_25 
REMARK    7  A    between atoms: C12_25  and  O5_26 
REMARK    8  A    between atoms: C12_25  and  C13_28 
REMARK    9  A    between atoms: C13_28  and  O6_29 
REMARK   10  A    between atoms: O6_29  and  P1_30 
ROOT
HETATM    1  C1  UNL     1      25.499  28.949  25.078  1.00  0.00     0.049 C 
HETATM    2  C2  UNL     1      24.658  27.774  24.746  1.00  0.00    -0.054 A 
HETATM    3  C3  UNL     1      24.733  27.178  23.506  1.00  0.00     0.039 A 
HETATM    4  C4  UNL     1      23.957  26.079  23.168  1.00  0.00     0.060 A 
HETATM    5  N1  UNL     1      24.077  25.535  21.944  1.00  0.00    -0.347 N 
ATOM      6  H1  UNL     1      24.733  25.939  21.275  1.00  0.00     0.166 HD
HETATM    7  C5  UNL     1      23.346  24.470  21.594  1.00  0.00     0.146 A 
HETATM    8  C6  UNL     1      23.433  23.867  20.333  1.00  0.00     0.280 A 
HETATM    9  O1  UNL     1      24.232  24.355  19.512  1.00  0.00    -0.265 OA
HETATM   10  N2  UNL     1      22.661  22.790  20.047  1.00  0.00    -0.273 N 
ATOM     11  H2  UNL     1      22.721  22.348  19.130  1.00  0.00     0.173 HD
HETATM   12  C7  UNL     1      21.814  22.304  20.973  1.00  0.00     0.328 A 
HETATM   13  O2  UNL     1      21.126  21.303  20.643  1.00  0.00    -0.247 OA
HETATM   14  N3  UNL     1      21.697  22.861  22.214  1.00  0.00    -0.292 N 
ATOM     15  H3  UNL     1      21.041  22.458  22.883  1.00  0.00     0.172 HD
HETATM   16  C8  UNL     1      22.427  23.928  22.573  1.00  0.00     0.145 A 
HETATM   17  N4  UNL     1      22.338  24.515  23.806  1.00  0.00    -0.327 N 
HETATM   18  C14 UNL     1      23.081  25.582  24.141  1.00  0.00     0.063 A 
HETATM   19  C15 UNL     1      22.999  26.174  25.387  1.00  0.00     0.039 A 
HETATM   20  C16 UNL     1      23.786  27.268  25.691  1.00  0.00    -0.054 A 
HETATM   21  C17 UNL     1      23.712  27.916  27.024  1.00  0.00     0.049 C 
ENDROOT
BRANCH  17  22
HETATM   22  C9  UNL     1      21.406  23.933  24.746  1.00  0.00     0.165 C 
BRANCH  22  23
HETATM   23  C10 UNL     1      22.195  22.989  25.665  1.00  0.00     0.167 C 
BRANCH  23  24
HETATM   24  O3  UNL     1      22.243  21.696  25.224  1.00  0.00    -0.391 OA
ATOM     25  H3  UNL     1      23.124  21.357  25.115  1.00  0.00     0.210 HD
ENDBRANCH  23  24
BRANCH  23  26
HETATM   26  C11 UNL     1      21.841  23.099  27.078  1.00  0.00     0.179 C 
BRANCH  26  27
HETATM   27  O4  UNL     1      22.914  23.615  27.810  1.00  0.00    -0.390 OA
ATOM     28  H4  UNL     1      22.810  23.417  28.734  1.00  0.00     0.210 HD
ENDBRANCH  26  27
BRANCH  26  29
HETATM   29  C12 UNL     1      21.194  22.016  27.821  1.00  0.00     0.173 C 
BRANCH  29  30
HETATM   30  O5  UNL     1      20.027  21.689  27.034  1.00  0.00    -0.391 OA
ATOM     31  H5  UNL     1      19.579  21.023  27.543  1.00  0.00     0.210 HD
ENDBRANCH  29  30
BRANCH  29  32
HETATM   32  C13 UNL     1      20.566  22.400  29.157  1.00  0.00     0.217 C 
BRANCH  32  33
HETATM   33  O6  UNL     1      21.563  22.297  30.173  1.00  0.00    -0.280 OA
BRANCH  33  34
HETATM   34  P1  UNL     1      21.085  21.178  31.334  1.00  0.00     0.422 P 
HETATM   35  O7  UNL     1      22.304  20.539  31.913  1.00  0.00    -0.617 OA
HETATM   36  O8  UNL     1      20.095  19.975  30.683  1.00  0.00    -0.617 OA
HETATM   37  O9  UNL     1      20.232  21.922  32.601  1.00  0.00    -0.617 OA
ENDBRANCH  33  34
ENDBRANCH  32  33
ENDBRANCH  29  32
ENDBRANCH  26  29
ENDBRANCH  23  26
ENDBRANCH  22  23
ENDBRANCH  17  22
TORSDOF 10
ENDMDL
