MODEL 4
REMARK VINA RESULT: -9.381479970      0.842      1.606
REMARK  10 active torsions:
REMARK  status: ('A' for Active; 'I' for Inactive)
REMARK    1  A    between atoms: N4_17  and  C9_18 
REMARK    2  A    between atoms: C9_18  and  C10_19 
REMARK    3  A    between atoms: C10_19  and  O3_20 
REMARK    4  A    between atoms: C10_19  and  C11_22 
REMARK    5  A    between atoms: C11_22  and  O4_23 
REMARK    6  A    between atoms: C11_22  and  C12_25 
REMARK    7  A    between atoms: C12_25  and  O5_26 
REMARK    8  A    between atoms: C12_25  and  C13_28 
REMARK    9  A    between atoms: C13_28  and  O6_29 
REMARK   10  A    between atoms: O6_29  and  P1_30 
ROOT
HETATM    1  C1  UNL     1      23.645  24.050  19.284  1.00  0.00     0.049 C 
HETATM    2  C2  UNL     1      23.341  24.325  20.709  1.00  0.00    -0.054 A 
HETATM    3  C3  UNL     1      24.035  25.289  21.407  1.00  0.00     0.039 A 
HETATM    4  C4  UNL     1      23.771  25.566  22.740  1.00  0.00     0.060 A 
HETATM    5  N1  UNL     1      24.477  26.522  23.369  1.00  0.00    -0.347 N 
ATOM      6  H1  UNL     1      25.201  27.030  22.862  1.00  0.00     0.166 HD
HETATM    7  C5  UNL     1      24.240  26.815  24.654  1.00  0.00     0.146 A 
HETATM    8  C6  UNL     1      24.945  27.801  25.354  1.00  0.00     0.280 A 
HETATM    9  O1  UNL     1      25.831  28.424  24.741  1.00  0.00    -0.265 OA
HETATM   10  N2  UNL     1      24.651  28.043  26.655  1.00  0.00    -0.273 N 
ATOM     11  H2  UNL     1      25.164  28.760  27.169  1.00  0.00     0.173 HD
HETATM   12  C7  UNL     1      23.684  27.338  27.269  1.00  0.00     0.328 A 
HETATM   13  O2  UNL     1      23.461  27.613  28.477  1.00  0.00    -0.247 OA
HETATM   14  N3  UNL     1      22.971  26.368  26.625  1.00  0.00    -0.292 N 
ATOM     15  H3  UNL     1      22.246  25.860  27.132  1.00  0.00     0.172 HD
HETATM   16  C8  UNL     1      23.203  26.070  25.337  1.00  0.00     0.145 A 
HETATM   17  N4  UNL     1      22.510  25.106  24.657  1.00  0.00    -0.327 N 
HETATM   18  C14 UNL     1      22.761  24.826  23.368  1.00  0.00     0.063 A 
HETATM   19  C15 UNL     1      22.060  23.858  22.675  1.00  0.00     0.039 A 
HETATM   20  C16 UNL     1      22.348  23.606  21.347  1.00  0.00    -0.054 A 
HETATM   21  C17 UNL     1      21.605  22.570  20.587  1.00  0.00     0.049 C 
ENDROOT
BRANCH  17  22
HETATM   22  C9  UNL     1      21.485  24.393  25.386  1.00  0.00     0.165 C 
BRANCH  22  23
HETATM   23  C10 UNL     1      22.183  23.400  26.326  1.00  0.00     0.167 C 
BRANCH  23  24
HETATM   24  O3  UNL     1      22.945  22.466  25.683  1.00  0.00    -0.391 OA
ATOM     25  H3  UNL     1      22.588  22.183  24.849  1.00  0.00     0.210 HD
ENDBRANCH  23  24
BRANCH  23  26
HETATM   26  C11 UNL     1      21.305  22.821  27.341  1.00  0.00     0.179 C 
BRANCH  26  27
HETATM   27  O4  UNL     1      20.291  22.072  26.737  1.00  0.00    -0.390 OA
ATOM     28  H4  UNL     1      19.960  21.417  27.340  1.00  0.00     0.210 HD
ENDBRANCH  26  27
BRANCH  26  29
HETATM   29  C12 UNL     1      20.765  23.596  28.460  1.00  0.00     0.173 C 
BRANCH  29  30
HETATM   30  O5  UNL     1      21.852  24.465  28.850  1.00  0.00    -0.391 OA
ATOM     31  H5  UNL     1      22.633  24.008  28.562  1.00  0.00     0.210 HD
ENDBRANCH  29  30
BRANCH  29  32
HETATM   32  C13 UNL     1      20.511  22.824  29.750  1.00  0.00     0.217 C 
BRANCH  32  33
HETATM   33  O6  UNL     1      19.322  22.051  29.589  1.00  0.00    -0.280 OA
BRANCH  33  34
HETATM   34  P1  UNL     1      19.627  20.443  29.979  1.00  0.00     0.422 P 
HETATM   35  O7  UNL     1      18.329  19.771  30.282  1.00  0.00    -0.617 OA
HETATM   36  O8  UNL     1      20.643  20.299  31.320  1.00  0.00    -0.617 OA
HETATM   37  O9  UNL     1      20.355  19.617  28.686  1.00  0.00    -0.617 OA
ENDBRANCH  33  34
ENDBRANCH  32  33
ENDBRANCH  29  32
ENDBRANCH  26  29
ENDBRANCH  23  26
ENDBRANCH  22  23
ENDBRANCH  17  22
TORSDOF 10
ENDMDL
