MODEL 1
REMARK VINA RESULT: -10.432762038      0.000      0.000
REMARK  10 active torsions:
REMARK  status: ('A' for Active; 'I' for Inactive)
REMARK    1  A    between atoms: N4_17  and  C9_18 
REMARK    2  A    between atoms: C9_18  and  C10_19 
REMARK    3  A    between atoms: C10_19  and  O3_20 
REMARK    4  A    between atoms: C10_19  and  C11_22 
REMARK    5  A    between atoms: C11_22  and  O4_23 
REMARK    6  A    between atoms: C11_22  and  C12_25 
REMARK    7  A    between atoms: C12_25  and  O5_26 
REMARK    8  A    between atoms: C12_25  and  C13_28 
REMARK    9  A    between atoms: C13_28  and  O6_29 
REMARK   10  A    between atoms: O6_29  and  P1_30 
ROOT
HETATM    1  C1  UNL     1      23.702  23.986  19.243  1.00  0.00     0.049 C 
HETATM    2  C2  UNL     1      23.383  24.293  20.658  1.00  0.00    -0.054 A 
HETATM    3  C3  UNL     1      24.085  25.257  21.349  1.00  0.00     0.039 A 
HETATM    4  C4  UNL     1      23.808  25.563  22.673  1.00  0.00     0.060 A 
HETATM    5  N1  UNL     1      24.523  26.518  23.294  1.00  0.00    -0.347 N 
ATOM      6  H1  UNL     1      25.264  27.003  22.788  1.00  0.00     0.166 HD
HETATM    7  C5  UNL     1      24.274  26.839  24.569  1.00  0.00     0.146 A 
HETATM    8  C6  UNL     1      24.988  27.824  25.261  1.00  0.00     0.280 A 
HETATM    9  O1  UNL     1      25.893  28.420  24.649  1.00  0.00    -0.265 OA
HETATM   10  N2  UNL     1      24.680  28.096  26.554  1.00  0.00    -0.273 N 
ATOM     11  H2  UNL     1      25.199  28.813  27.062  1.00  0.00     0.173 HD
HETATM   12  C7  UNL     1      23.692  27.420  27.167  1.00  0.00     0.328 A 
HETATM   13  O2  UNL     1      23.457  27.722  28.366  1.00  0.00    -0.247 OA
HETATM   14  N3  UNL     1      22.970  26.452  26.530  1.00  0.00    -0.292 N 
ATOM     15  H3  UNL     1      22.230  25.966  27.037  1.00  0.00     0.172 HD
HETATM   16  C8  UNL     1      23.214  26.126  25.252  1.00  0.00     0.145 A 
HETATM   17  N4  UNL     1      22.514  25.161  24.580  1.00  0.00    -0.327 N 
HETATM   18  C14 UNL     1      22.777  24.853  23.299  1.00  0.00     0.063 A 
HETATM   19  C15 UNL     1      22.068  23.886  22.615  1.00  0.00     0.039 A 
HETATM   20  C16 UNL     1      22.369  23.604  21.295  1.00  0.00    -0.054 A 
HETATM   21  C17 UNL     1      21.618  22.567  20.544  1.00  0.00     0.049 C 
ENDROOT
BRANCH  17  22
HETATM   22  C9  UNL     1      21.465  24.481  25.308  1.00  0.00     0.165 C 
BRANCH  22  23
HETATM   23  C10 UNL     1      22.130  23.464  26.245  1.00  0.00     0.167 C 
BRANCH  23  24
HETATM   24  O3  UNL     1      22.363  22.246  25.671  1.00  0.00    -0.391 OA
ATOM     25  H3  UNL     1      23.122  21.792  26.019  1.00  0.00     0.210 HD
ENDBRANCH  23  24
BRANCH  23  26
HETATM   26  C11 UNL     1      21.501  23.365  27.560  1.00  0.00     0.179 C 
BRANCH  26  27
HETATM   27  O4  UNL     1      22.252  24.058  28.513  1.00  0.00    -0.390 OA
ATOM     28  H4  UNL     1      21.873  24.915  28.675  1.00  0.00     0.210 HD
ENDBRANCH  26  27
BRANCH  26  29
HETATM   29  C12 UNL     1      21.020  22.099  28.117  1.00  0.00     0.173 C 
BRANCH  29  30
HETATM   30  O5  UNL     1      19.997  21.668  27.192  1.00  0.00    -0.391 OA
ATOM     31  H5  UNL     1      19.215  21.589  27.727  1.00  0.00     0.210 HD
ENDBRANCH  29  30
BRANCH  29  32
HETATM   32  C13 UNL     1      20.234  22.195  29.421  1.00  0.00     0.217 C 
BRANCH  32  33
HETATM   33  O6  UNL     1      21.160  22.303  30.501  1.00  0.00    -0.280 OA
BRANCH  33  34
HETATM   34  P1  UNL     1      20.908  21.054  31.600  1.00  0.00     0.422 P 
HETATM   35  O7  UNL     1      22.234  20.533  32.045  1.00  0.00    -0.617 OA
HETATM   36  O8  UNL     1      20.021  19.787  30.924  1.00  0.00    -0.617 OA
HETATM   37  O9  UNL     1      20.070  21.596  32.975  1.00  0.00    -0.617 OA
ENDBRANCH  33  34
ENDBRANCH  32  33
ENDBRANCH  29  32
ENDBRANCH  26  29
ENDBRANCH  23  26
ENDBRANCH  22  23
ENDBRANCH  17  22
TORSDOF 10
ENDMDL
