MODEL 6
REMARK VINA RESULT: -7.675646134      2.672      6.436
REMARK  3 active torsions:
REMARK  status: ('A' for Active; 'I' for Inactive)
REMARK    1  A    between atoms: C1_2  and  C2_4 
REMARK    2  A    between atoms: C7_9  and  C8_10 
REMARK    3  A    between atoms: C17_21  and  O5_22 
ROOT
HETATM    1  C8  UNL     1      25.212  25.429  42.641  1.00  0.00     0.001 A 
HETATM    2  C9  UNL     1      25.175  25.439  44.020  1.00  0.00     0.010 A 
HETATM    3  C10 UNL     1      25.108  24.291  44.775  1.00  0.00     0.019 A 
HETATM    4  C11 UNL     1      25.075  24.406  46.158  1.00  0.00     0.056 A 
HETATM    5  C12 UNL     1      25.109  25.654  46.740  1.00  0.00     0.174 A 
HETATM    6  O3  UNL     1      25.078  25.708  47.992  1.00  0.00    -0.288 OA
HETATM    7  C13 UNL     1      25.177  26.825  46.027  1.00  0.00     0.092 A 
HETATM    8  C14 UNL     1      25.211  26.749  44.652  1.00  0.00     0.091 A 
HETATM    9  O4  UNL     1      25.276  27.849  43.913  1.00  0.00    -0.309 OA
HETATM   10  C15 UNL     1      25.311  27.835  42.602  1.00  0.00     0.089 A 
HETATM   11  C16 UNL     1      25.379  29.022  41.874  1.00  0.00     0.074 A 
HETATM   12  C17 UNL     1      25.417  29.041  40.495  1.00  0.00     0.068 A 
HETATM   13  C18 UNL     1      25.386  27.825  39.844  1.00  0.00     0.037 A 
HETATM   14  C19 UNL     1      25.319  26.650  40.564  1.00  0.00     0.018 A 
HETATM   15  C20 UNL     1      25.280  26.623  41.944  1.00  0.00     0.010 A 
ENDROOT
BRANCH   1  16
HETATM   16  C7  UNL     1      25.179  24.145  41.953  1.00  0.00    -0.007 A 
HETATM   17  C2  UNL     1      26.319  23.360  41.909  1.00  0.00     0.051 A 
HETATM   18  C3  UNL     1      26.303  22.138  41.260  1.00  0.00     0.019 A 
HETATM   19  C4  UNL     1      25.116  21.766  40.680  1.00  0.00     0.001 A 
HETATM   20  C5  UNL     1      23.976  22.532  40.713  1.00  0.00     0.001 A 
HETATM   21  C6  UNL     1      24.015  23.738  41.361  1.00  0.00     0.013 A 
BRANCH  17  22
HETATM   22  C1  UNL     1      27.562  23.797  42.542  1.00  0.00     0.210 C 
HETATM   23  O1  UNL     1      28.299  24.610  41.939  1.00  0.00    -0.644 OA
HETATM   24  O2  UNL     1      27.973  23.356  43.788  1.00  0.00    -0.644 OA
ENDBRANCH  17  22
ENDBRANCH   1  16
BRANCH  12  25
HETATM   25  O5  UNL     1      25.485  30.245  39.789  1.00  0.00    -0.361 OA
ATOM     26  H5  UNL     1      26.299  30.728  39.718  1.00  0.00     0.217 HD
ENDBRANCH  12  25
TORSDOF 3
ENDMDL
