MODEL 1
REMARK VINA RESULT: -11.955006112      0.000      0.000
REMARK  3 active torsions:
REMARK  status: ('A' for Active; 'I' for Inactive)
REMARK    1  A    between atoms: C1_2  and  C2_4 
REMARK    2  A    between atoms: C7_9  and  C8_10 
REMARK    3  A    between atoms: C17_21  and  O5_22 
ROOT
HETATM    1  C8  UNL     1      25.306  23.370  40.712  1.00  0.00     0.001 A 
HETATM    2  C9  UNL     1      24.566  22.377  40.104  1.00  0.00     0.010 A 
HETATM    3  C10 UNL     1      23.359  22.614  39.487  1.00  0.00     0.019 A 
HETATM    4  C11 UNL     1      22.691  21.547  38.903  1.00  0.00     0.056 A 
HETATM    5  C12 UNL     1      23.244  20.287  38.950  1.00  0.00     0.174 A 
HETATM    6  O3  UNL     1      22.605  19.355  38.407  1.00  0.00    -0.288 OA
HETATM    7  C13 UNL     1      24.446  20.004  39.552  1.00  0.00     0.092 A 
HETATM    8  C14 UNL     1      25.136  21.039  40.143  1.00  0.00     0.091 A 
HETATM    9  O4  UNL     1      26.301  20.823  40.740  1.00  0.00    -0.309 OA
HETATM   10  C15 UNL     1      27.001  21.771  41.318  1.00  0.00     0.089 A 
HETATM   11  C16 UNL     1      28.221  21.489  41.931  1.00  0.00     0.074 A 
HETATM   12  C17 UNL     1      28.980  22.461  42.548  1.00  0.00     0.068 A 
HETATM   13  C18 UNL     1      28.485  23.749  42.539  1.00  0.00     0.037 A 
HETATM   14  C19 UNL     1      27.279  24.029  41.932  1.00  0.00     0.018 A 
HETATM   15  C20 UNL     1      26.514  23.061  41.313  1.00  0.00     0.010 A 
ENDROOT
BRANCH   1  16
HETATM   16  C7  UNL     1      24.784  24.731  40.704  1.00  0.00    -0.007 A 
HETATM   17  C2  UNL     1      24.281  25.281  41.871  1.00  0.00     0.051 A 
HETATM   18  C3  UNL     1      23.782  26.572  41.878  1.00  0.00     0.019 A 
HETATM   19  C4  UNL     1      23.819  27.251  40.686  1.00  0.00     0.001 A 
HETATM   20  C5  UNL     1      24.314  26.722  39.520  1.00  0.00     0.001 A 
HETATM   21  C6  UNL     1      24.802  25.442  39.535  1.00  0.00     0.013 A 
BRANCH  17  22
HETATM   22  C1  UNL     1      24.262  24.519  43.118  1.00  0.00     0.210 C 
HETATM   23  O1  UNL     1      23.497  23.533  43.218  1.00  0.00    -0.644 OA
HETATM   24  O2  UNL     1      25.056  24.831  44.208  1.00  0.00    -0.644 OA
ENDBRANCH  17  22
ENDBRANCH   1  16
BRANCH  12  25
HETATM   25  O5  UNL     1      30.199  22.152  43.155  1.00  0.00    -0.361 OA
ATOM     26  H5  UNL     1      30.233  21.764  44.021  1.00  0.00     0.217 HD
ENDBRANCH  12  25
TORSDOF 3
ENDMDL
