MODEL 5
REMARK VINA RESULT: -8.093181906      1.897      5.358
REMARK  3 active torsions:
REMARK  status: ('A' for Active; 'I' for Inactive)
REMARK    1  A    between atoms: C1_2  and  C2_4 
REMARK    2  A    between atoms: C7_9  and  C8_10 
REMARK    3  A    between atoms: C17_21  and  O5_22 
ROOT
HETATM    1  C8  UNL     1      25.808  24.443  41.473  1.00  0.00     0.001 A 
HETATM    2  C9  UNL     1      25.343  25.726  41.271  1.00  0.00     0.010 A 
HETATM    3  C10 UNL     1      25.857  26.820  41.928  1.00  0.00     0.019 A 
HETATM    4  C11 UNL     1      25.320  28.072  41.656  1.00  0.00     0.056 A 
HETATM    5  C12 UNL     1      24.297  28.191  40.742  1.00  0.00     0.174 A 
HETATM    6  O3  UNL     1      23.846  29.341  40.528  1.00  0.00    -0.288 OA
HETATM    7  C13 UNL     1      23.755  27.128  40.062  1.00  0.00     0.092 A 
HETATM    8  C14 UNL     1      24.262  25.872  40.309  1.00  0.00     0.091 A 
HETATM    9  O4  UNL     1      23.776  24.809  39.680  1.00  0.00    -0.309 OA
HETATM   10  C15 UNL     1      24.220  23.590  39.876  1.00  0.00     0.089 A 
HETATM   11  C16 UNL     1      23.673  22.508  39.189  1.00  0.00     0.074 A 
HETATM   12  C17 UNL     1      24.117  21.216  39.371  1.00  0.00     0.068 A 
HETATM   13  C18 UNL     1      25.142  21.021  40.274  1.00  0.00     0.037 A 
HETATM   14  C19 UNL     1      25.685  22.091  40.954  1.00  0.00     0.018 A 
HETATM   15  C20 UNL     1      25.245  23.388  40.776  1.00  0.00     0.010 A 
ENDROOT
BRANCH   1  16
HETATM   16  C7  UNL     1      26.891  24.237  42.427  1.00  0.00    -0.007 A 
HETATM   17  C2  UNL     1      26.650  24.391  43.782  1.00  0.00     0.051 A 
HETATM   18  C3  UNL     1      27.669  24.199  44.699  1.00  0.00     0.019 A 
HETATM   19  C4  UNL     1      28.896  23.854  44.192  1.00  0.00     0.001 A 
HETATM   20  C5  UNL     1      29.152  23.698  42.851  1.00  0.00     0.001 A 
HETATM   21  C6  UNL     1      28.130  23.893  41.961  1.00  0.00     0.013 A 
BRANCH  17  22
HETATM   22  C1  UNL     1      25.326  24.758  44.277  1.00  0.00     0.210 C 
HETATM   23  O1  UNL     1      24.363  23.985  44.072  1.00  0.00    -0.644 OA
HETATM   24  O2  UNL     1      25.074  25.931  44.969  1.00  0.00    -0.644 OA
ENDBRANCH  17  22
ENDBRANCH   1  16
BRANCH  12  25
HETATM   25  O5  UNL     1      23.551  20.149  38.669  1.00  0.00    -0.361 OA
ATOM     26  H5  UNL     1      22.786  19.693  39.000  1.00  0.00     0.217 HD
ENDBRANCH  12  25
TORSDOF 3
ENDMDL
