MODEL 2
REMARK VINA RESULT: -11.954465626      0.181      4.447
REMARK  3 active torsions:
REMARK  status: ('A' for Active; 'I' for Inactive)
REMARK    1  A    between atoms: C1_2  and  C2_4 
REMARK    2  A    between atoms: C7_9  and  C8_10 
REMARK    3  A    between atoms: C17_21  and  O5_22 
ROOT
HETATM    1  C8  UNL     1      25.419  23.375  40.813  1.00  0.00     0.001 A 
HETATM    2  C9  UNL     1      26.636  23.106  41.403  1.00  0.00     0.010 A 
HETATM    3  C10 UNL     1      27.393  24.069  42.030  1.00  0.00     0.019 A 
HETATM    4  C11 UNL     1      28.606  23.698  42.594  1.00  0.00     0.056 A 
HETATM    5  C12 UNL     1      29.022  22.387  42.516  1.00  0.00     0.174 A 
HETATM    6  O3  UNL     1      30.123  22.100  43.041  1.00  0.00    -0.288 OA
HETATM    7  C13 UNL     1      28.300  21.394  41.902  1.00  0.00     0.092 A 
HETATM    8  C14 UNL     1      27.092  21.726  41.331  1.00  0.00     0.091 A 
HETATM    9  O4  UNL     1      26.353  20.807  40.724  1.00  0.00    -0.309 OA
HETATM   10  C15 UNL     1      25.195  21.067  40.164  1.00  0.00     0.089 A 
HETATM   11  C16 UNL     1      24.459  20.062  39.539  1.00  0.00     0.074 A 
HETATM   12  C17 UNL     1      23.240  20.303  38.940  1.00  0.00     0.068 A 
HETATM   13  C18 UNL     1      22.760  21.596  38.980  1.00  0.00     0.037 A 
HETATM   14  C19 UNL     1      23.488  22.591  39.599  1.00  0.00     0.018 A 
HETATM   15  C20 UNL     1      24.709  22.357  40.200  1.00  0.00     0.010 A 
ENDROOT
BRANCH   1  16
HETATM   16  C7  UNL     1      24.912  24.741  40.854  1.00  0.00    -0.007 A 
HETATM   17  C2  UNL     1      24.342  25.227  42.020  1.00  0.00     0.051 A 
HETATM   18  C3  UNL     1      23.857  26.522  42.074  1.00  0.00     0.019 A 
HETATM   19  C4  UNL     1      23.974  27.271  40.931  1.00  0.00     0.001 A 
HETATM   20  C5  UNL     1      24.536  26.806  39.767  1.00  0.00     0.001 A 
HETATM   21  C6  UNL     1      25.010  25.521  39.734  1.00  0.00     0.013 A 
BRANCH  17  22
HETATM   22  C1  UNL     1      24.239  24.392  43.214  1.00  0.00     0.210 C 
HETATM   23  O1  UNL     1      23.345  23.517  43.270  1.00  0.00    -0.644 OA
HETATM   24  O2  UNL     1      25.087  24.517  44.301  1.00  0.00    -0.644 OA
ENDBRANCH  17  22
ENDBRANCH   1  16
BRANCH  12  25
HETATM   25  O5  UNL     1      22.522  19.277  38.321  1.00  0.00    -0.361 OA
ATOM     26  H5  UNL     1      22.074  19.419  37.495  1.00  0.00     0.217 HD
ENDBRANCH  12  25
TORSDOF 3
ENDMDL
