MODEL 3
REMARK VINA RESULT: -8.872774893      1.933      4.586
REMARK  3 active torsions:
REMARK  status: ('A' for Active; 'I' for Inactive)
REMARK    1  A    between atoms: C1_2  and  C2_4 
REMARK    2  A    between atoms: C7_9  and  C8_10 
REMARK    3  A    between atoms: C17_21  and  O5_22 
ROOT
HETATM    1  C8  UNL     1      25.797  24.436  41.376  1.00  0.00     0.001 A 
HETATM    2  C9  UNL     1      25.262  23.356  40.705  1.00  0.00     0.010 A 
HETATM    3  C10 UNL     1      25.691  22.064  40.905  1.00  0.00     0.019 A 
HETATM    4  C11 UNL     1      25.088  21.044  40.181  1.00  0.00     0.056 A 
HETATM    5  C12 UNL     1      24.084  21.343  39.288  1.00  0.00     0.174 A 
HETATM    6  O3  UNL     1      23.570  20.389  38.658  1.00  0.00    -0.288 OA
HETATM    7  C13 UNL     1      23.624  22.616  39.057  1.00  0.00     0.092 A 
HETATM    8  C14 UNL     1      24.199  23.653  39.757  1.00  0.00     0.091 A 
HETATM    9  O4  UNL     1      23.794  24.903  39.574  1.00  0.00    -0.309 OA
HETATM   10  C15 UNL     1      24.306  25.927  40.213  1.00  0.00     0.089 A 
HETATM   11  C16 UNL     1      23.842  27.222  39.982  1.00  0.00     0.074 A 
HETATM   12  C17 UNL     1      24.359  28.319  40.637  1.00  0.00     0.068 A 
HETATM   13  C18 UNL     1      25.370  28.094  41.548  1.00  0.00     0.037 A 
HETATM   14  C19 UNL     1      25.829  26.814  41.778  1.00  0.00     0.018 A 
HETATM   15  C20 UNL     1      25.317  25.710  41.126  1.00  0.00     0.010 A 
ENDROOT
BRANCH   1  16
HETATM   16  C7  UNL     1      26.866  24.199  42.338  1.00  0.00    -0.007 A 
HETATM   17  C2  UNL     1      26.610  24.327  43.693  1.00  0.00     0.051 A 
HETATM   18  C3  UNL     1      27.614  24.105  44.619  1.00  0.00     0.019 A 
HETATM   19  C4  UNL     1      28.844  23.758  44.120  1.00  0.00     0.001 A 
HETATM   20  C5  UNL     1      29.116  23.626  42.780  1.00  0.00     0.001 A 
HETATM   21  C6  UNL     1      28.107  23.851  41.880  1.00  0.00     0.013 A 
BRANCH  17  22
HETATM   22  C1  UNL     1      25.283  24.699  44.179  1.00  0.00     0.210 C 
HETATM   23  O1  UNL     1      25.150  25.753  44.841  1.00  0.00    -0.644 OA
HETATM   24  O2  UNL     1      24.150  23.938  43.944  1.00  0.00    -0.644 OA
ENDBRANCH  17  22
ENDBRANCH   1  16
BRANCH  12  25
HETATM   25  O5  UNL     1      23.876  29.606  40.386  1.00  0.00    -0.361 OA
ATOM     26  H5  UNL     1      24.448  30.293  40.064  1.00  0.00     0.217 HD
ENDBRANCH  12  25
TORSDOF 3
ENDMDL
