MODEL 8
REMARK VINA RESULT: -12.192039071      1.711     10.233
REMARK  12 active torsions:
REMARK  status: ('A' for Active; 'I' for Inactive)
REMARK    1  A    between atoms: C3_4  and  C4_5 
REMARK    2  A    between atoms: C10_13  and  C11_14 
REMARK    3  A    between atoms: C11_14  and  C12_15 
REMARK    4  A    between atoms: C12_15  and  O2_16 
REMARK    5  A    between atoms: O2_16  and  C13_17 
REMARK    6  A    between atoms: C16_20  and  C17_21 
REMARK    7  A    between atoms: C17_21  and  C18_22 
REMARK    8  A    between atoms: C18_22  and  N2_23 
REMARK    9  A    between atoms: C18_22  and  C32_39 
REMARK   10  A    between atoms: N2_23  and  C19_25 
REMARK   11  A    between atoms: C24_30  and  C25_31 
REMARK   12  A    between atoms: C25_31  and  C26_33 
ROOT
HETATM    1  C13 UNL     1      12.983  -3.461  11.203  1.00  0.00     0.068 A 
HETATM    2  C14 UNL     1      11.763  -4.028  11.036  1.00  0.00     0.037 A 
HETATM    3  C15 UNL     1      10.926  -3.576  10.011  1.00  0.00     0.010 A 
HETATM    4  C16 UNL     1      11.244  -2.589   9.136  1.00  0.00    -0.056 A 
HETATM    5  C33 UNL     1      12.518  -2.011   9.341  1.00  0.00     0.010 A 
HETATM    6  C34 UNL     1      13.357  -2.461  10.373  1.00  0.00     0.037 A 
ENDROOT
BRANCH   4   7
HETATM    7  C17 UNL     1      10.602  -2.307   7.873  1.00  0.00     0.074 C 
BRANCH   7   8
HETATM    8  C18 UNL     1      10.037  -3.502   7.041  1.00  0.00     0.187 C 
BRANCH   8   9
HETATM    9  N2  UNL     1      10.915  -3.720   5.968  1.00  0.00    -0.375 N 
ATOM     10  H2  UNL     1      11.825  -3.261   5.967  1.00  0.00     0.160 HD
BRANCH   9  11
HETATM   11  C19 UNL     1      10.553  -4.594   4.852  1.00  0.00     0.043 A 
HETATM   12  C20 UNL     1      10.011  -5.842   5.168  1.00  0.00     0.030 A 
HETATM   13  C21 UNL     1       9.666  -6.667   4.065  1.00  0.00     0.002 A 
HETATM   14  C22 UNL     1       9.844  -6.290   2.785  1.00  0.00     0.001 A 
HETATM   15  C23 UNL     1      10.389  -5.033   2.514  1.00  0.00     0.018 A 
HETATM   16  C24 UNL     1      10.752  -4.164   3.553  1.00  0.00     0.041 A 
BRANCH  16  17
HETATM   17  C25 UNL     1      11.424  -2.923   3.242  1.00  0.00     0.194 C 
HETATM   18  O3  UNL     1      11.166  -1.819   3.757  1.00  0.00    -0.287 OA
BRANCH  17  19
HETATM   19  C26 UNL     1      12.528  -2.913   2.257  1.00  0.00     0.015 A 
HETATM   20  C27 UNL     1      13.009  -1.649   1.867  1.00  0.00     0.015 A 
HETATM   21  C28 UNL     1      14.024  -1.448   0.974  1.00  0.00     0.001 A 
HETATM   22  C29 UNL     1      14.618  -2.582   0.406  1.00  0.00     0.000 A 
HETATM   23  C30 UNL     1      14.176  -3.823   0.753  1.00  0.00     0.001 A 
HETATM   24  C31 UNL     1      13.129  -3.985   1.679  1.00  0.00     0.015 A 
ENDBRANCH  17  19
ENDBRANCH  16  17
ENDBRANCH   9  11
ENDBRANCH   8   9
BRANCH   8  25
HETATM   25  C32 UNL     1       8.624  -3.280   7.040  1.00  0.00     0.197 C 
HETATM   26  O4  UNL     1       8.156  -2.075   6.832  1.00  0.00    -0.646 OA
HETATM   27  O5  UNL     1       7.519  -4.133   7.216  1.00  0.00    -0.646 OA
ENDBRANCH   8  25
ENDBRANCH   7   8
ENDBRANCH   4   7
BRANCH   1  28
HETATM   28  O2  UNL     1      13.843  -3.963  12.250  1.00  0.00    -0.351 OA
BRANCH  28  29
HETATM   29  C12 UNL     1      13.550  -5.369  12.522  1.00  0.00     0.181 C 
BRANCH  29  30
HETATM   30  C11 UNL     1      14.820  -6.120  12.026  1.00  0.00     0.086 C 
BRANCH  30  31
HETATM   31  C10 UNL     1      14.372  -7.584  11.969  1.00  0.00     0.043 A 
HETATM   32  C2  UNL     1      15.244  -8.668  12.024  1.00  0.00     0.074 A 
HETATM   33  C1  UNL     1      16.700  -8.511  12.371  1.00  0.00     0.079 C 
HETATM   34  O1  UNL     1      14.562  -9.719  11.744  1.00  0.00    -0.296 OA
HETATM   35  C3  UNL     1      13.309  -9.451  11.507  1.00  0.00     0.158 A 
HETATM   36  N1  UNL     1      13.192  -8.108  11.655  1.00  0.00    -0.337 N 
ATOM     37  H1  UNL     1      12.327  -7.579  11.542  1.00  0.00     0.168 HD
BRANCH  35  38
HETATM   38  C4  UNL     1      12.236 -10.391  11.142  1.00  0.00     0.015 A 
HETATM   39  C5  UNL     1      12.391 -11.759  11.278  1.00  0.00     0.016 A 
HETATM   40  C6  UNL     1      11.344 -12.627  10.940  1.00  0.00     0.001 A 
HETATM   41  C7  UNL     1      10.135 -12.127  10.465  1.00  0.00     0.000 A 
HETATM   42  C8  UNL     1       9.979 -10.776  10.330  1.00  0.00     0.001 A 
HETATM   43  C9  UNL     1      11.014  -9.971  10.666  1.00  0.00     0.016 A 
ENDBRANCH  35  38
ENDBRANCH  30  31
ENDBRANCH  29  30
ENDBRANCH  28  29
ENDBRANCH   1  28
TORSDOF 12
ENDMDL
