MODEL 9
REMARK VINA RESULT: -12.139611287      2.077      2.620
REMARK  12 active torsions:
REMARK  status: ('A' for Active; 'I' for Inactive)
REMARK    1  A    between atoms: C3_4  and  C4_5 
REMARK    2  A    between atoms: C10_13  and  C11_14 
REMARK    3  A    between atoms: C11_14  and  C12_15 
REMARK    4  A    between atoms: C12_15  and  O2_16 
REMARK    5  A    between atoms: O2_16  and  C13_17 
REMARK    6  A    between atoms: C16_20  and  C17_21 
REMARK    7  A    between atoms: C17_21  and  C18_22 
REMARK    8  A    between atoms: C18_22  and  N2_23 
REMARK    9  A    between atoms: C18_22  and  C32_39 
REMARK   10  A    between atoms: N2_23  and  C19_25 
REMARK   11  A    between atoms: C24_30  and  C25_31 
REMARK   12  A    between atoms: C25_31  and  C26_33 
ROOT
HETATM    1  C13 UNL     1      10.337  -2.969   8.573  1.00  0.00     0.068 A 
HETATM    2  C14 UNL     1       9.731  -3.732   9.517  1.00  0.00     0.037 A 
HETATM    3  C15 UNL     1      10.466  -4.183  10.617  1.00  0.00     0.010 A 
HETATM    4  C16 UNL     1      11.778  -3.909  10.831  1.00  0.00    -0.056 A 
HETATM    5  C33 UNL     1      12.385  -3.121   9.827  1.00  0.00     0.010 A 
HETATM    6  C34 UNL     1      11.648  -2.671   8.719  1.00  0.00     0.037 A 
ENDROOT
BRANCH   4   7
HETATM    7  C17 UNL     1      12.501  -4.039  12.075  1.00  0.00     0.074 C 
BRANCH   7   8
HETATM    8  C18 UNL     1      13.700  -5.038  12.140  1.00  0.00     0.187 C 
BRANCH   8   9
HETATM    9  N2  UNL     1      13.193  -6.322  11.888  1.00  0.00    -0.375 N 
ATOM     10  H2  UNL     1      12.191  -6.489  11.977  1.00  0.00     0.160 HD
BRANCH   9  11
HETATM   11  C19 UNL     1      14.071  -7.426  11.501  1.00  0.00     0.043 A 
HETATM   12  C20 UNL     1      15.413  -7.120  11.261  1.00  0.00     0.030 A 
HETATM   13  C21 UNL     1      16.242  -8.212  10.890  1.00  0.00     0.002 A 
HETATM   14  C22 UNL     1      15.783  -9.472  10.770  1.00  0.00     0.001 A 
HETATM   15  C23 UNL     1      14.435  -9.733  11.019  1.00  0.00     0.018 A 
HETATM   16  C24 UNL     1      13.556  -8.705  11.391  1.00  0.00     0.041 A 
BRANCH  16  17
HETATM   17  C25 UNL     1      12.145  -8.986  11.523  1.00  0.00     0.194 C 
HETATM   18  O3  UNL     1      11.289  -8.180  11.934  1.00  0.00    -0.287 OA
BRANCH  17  19
HETATM   19  C26 UNL     1      11.621 -10.314  11.133  1.00  0.00     0.015 A 
HETATM   20  C27 UNL     1      10.415 -10.323  10.408  1.00  0.00     0.015 A 
HETATM   21  C28 UNL     1       9.789 -11.453   9.962  1.00  0.00     0.001 A 
HETATM   22  C29 UNL     1      10.391 -12.684  10.256  1.00  0.00     0.000 A 
HETATM   23  C30 UNL     1      11.555 -12.716  10.962  1.00  0.00     0.001 A 
HETATM   24  C31 UNL     1      12.168 -11.528  11.401  1.00  0.00     0.015 A 
ENDBRANCH  17  19
ENDBRANCH  16  17
ENDBRANCH   9  11
ENDBRANCH   8   9
BRANCH   8  25
HETATM   25  C32 UNL     1      14.485  -4.559  13.235  1.00  0.00     0.197 C 
HETATM   26  O4  UNL     1      14.819  -3.293  13.290  1.00  0.00    -0.646 OA
HETATM   27  O5  UNL     1      15.024  -5.182  14.375  1.00  0.00    -0.646 OA
ENDBRANCH   8  25
ENDBRANCH   7   8
ENDBRANCH   4   7
BRANCH   1  28
HETATM   28  O2  UNL     1       9.551  -2.490   7.460  1.00  0.00    -0.351 OA
BRANCH  28  29
HETATM   29  C12 UNL     1      10.269  -2.691   6.203  1.00  0.00     0.181 C 
BRANCH  29  30
HETATM   30  C11 UNL     1      10.734  -4.176   6.269  1.00  0.00     0.086 C 
BRANCH  30  31
HETATM   31  C10 UNL     1      10.286  -4.753   4.922  1.00  0.00     0.043 A 
HETATM   32  C2  UNL     1       9.161  -5.555   4.754  1.00  0.00     0.074 A 
HETATM   33  C1  UNL     1       8.143  -5.749   5.845  1.00  0.00     0.079 C 
HETATM   34  O1  UNL     1       9.202  -6.024   3.560  1.00  0.00    -0.296 OA
HETATM   35  C3  UNL     1      10.250  -5.615   2.901  1.00  0.00     0.158 A 
HETATM   36  N1  UNL     1      10.926  -4.811   3.759  1.00  0.00    -0.337 N 
ATOM     37  H1  UNL     1      11.796  -4.324   3.543  1.00  0.00     0.168 HD
BRANCH  35  38
HETATM   38  C4  UNL     1      10.640  -5.952   1.522  1.00  0.00     0.015 A 
HETATM   39  C5  UNL     1      11.414  -5.098   0.756  1.00  0.00     0.016 A 
HETATM   40  C6  UNL     1      11.785  -5.455  -0.547  1.00  0.00     0.001 A 
HETATM   41  C7  UNL     1      11.383  -6.673  -1.089  1.00  0.00     0.000 A 
HETATM   42  C8  UNL     1      10.618  -7.518  -0.335  1.00  0.00     0.001 A 
HETATM   43  C9  UNL     1      10.280  -7.136   0.918  1.00  0.00     0.016 A 
ENDBRANCH  35  38
ENDBRANCH  30  31
ENDBRANCH  29  30
ENDBRANCH  28  29
ENDBRANCH   1  28
TORSDOF 12
ENDMDL
