MODEL 11
REMARK VINA RESULT: -12.104168650      1.687     10.308
REMARK  12 active torsions:
REMARK  status: ('A' for Active; 'I' for Inactive)
REMARK    1  A    between atoms: C3_4  and  C4_5 
REMARK    2  A    between atoms: C10_13  and  C11_14 
REMARK    3  A    between atoms: C11_14  and  C12_15 
REMARK    4  A    between atoms: C12_15  and  O2_16 
REMARK    5  A    between atoms: O2_16  and  C13_17 
REMARK    6  A    between atoms: C16_20  and  C17_21 
REMARK    7  A    between atoms: C17_21  and  C18_22 
REMARK    8  A    between atoms: C18_22  and  N2_23 
REMARK    9  A    between atoms: C18_22  and  C32_39 
REMARK   10  A    between atoms: N2_23  and  C19_25 
REMARK   11  A    between atoms: C24_30  and  C25_31 
REMARK   12  A    between atoms: C25_31  and  C26_33 
ROOT
HETATM    1  C13 UNL     1      11.191  -3.419  10.480  1.00  0.00     0.068 A 
HETATM    2  C14 UNL     1      11.872  -2.787   9.493  1.00  0.00     0.037 A 
HETATM    3  C15 UNL     1      11.259  -2.582   8.254  1.00  0.00     0.010 A 
HETATM    4  C16 UNL     1       9.995  -2.968   7.946  1.00  0.00    -0.056 A 
HETATM    5  C33 UNL     1       9.314  -3.633   8.991  1.00  0.00     0.010 A 
HETATM    6  C34 UNL     1       9.931  -3.844  10.235  1.00  0.00     0.037 A 
ENDROOT
BRANCH   4   7
HETATM    7  C17 UNL     1       9.189  -2.502   6.842  1.00  0.00     0.074 C 
BRANCH   7   8
HETATM    8  C18 UNL     1       9.910  -1.978   5.559  1.00  0.00     0.187 C 
BRANCH   8   9
HETATM    9  N2  UNL     1      10.919  -2.899   5.238  1.00  0.00    -0.375 N 
ATOM     10  H2  UNL     1      11.837  -2.805   5.671  1.00  0.00     0.160 HD
BRANCH   9  11
HETATM   11  C19 UNL     1      10.682  -3.992   4.295  1.00  0.00     0.043 A 
HETATM   12  C20 UNL     1       9.950  -5.088   4.758  1.00  0.00     0.030 A 
HETATM   13  C21 UNL     1       9.733  -6.131   3.819  1.00  0.00     0.002 A 
HETATM   14  C22 UNL     1      10.196  -6.088   2.556  1.00  0.00     0.001 A 
HETATM   15  C23 UNL     1      10.923  -4.973   2.134  1.00  0.00     0.018 A 
HETATM   16  C24 UNL     1      11.176  -3.904   3.005  1.00  0.00     0.041 A 
BRANCH  16  17
HETATM   17  C25 UNL     1      12.033  -2.822   2.577  1.00  0.00     0.194 C 
HETATM   18  O3  UNL     1      11.945  -1.642   2.963  1.00  0.00    -0.287 OA
BRANCH  17  19
HETATM   19  C26 UNL     1      13.130  -3.089   1.620  1.00  0.00     0.015 A 
HETATM   20  C27 UNL     1      13.421  -2.066   0.699  1.00  0.00     0.015 A 
HETATM   21  C28 UNL     1      14.401  -2.136  -0.252  1.00  0.00     0.001 A 
HETATM   22  C29 UNL     1      15.160  -3.311  -0.311  1.00  0.00     0.000 A 
HETATM   23  C30 UNL     1      14.904  -4.327   0.559  1.00  0.00     0.001 A 
HETATM   24  C31 UNL     1      13.886  -4.213   1.524  1.00  0.00     0.015 A 
ENDBRANCH  17  19
ENDBRANCH  16  17
ENDBRANCH   9  11
ENDBRANCH   8   9
BRANCH   8  25
HETATM   25  C32 UNL     1       9.988  -0.565   5.763  1.00  0.00     0.197 C 
HETATM   26  O4  UNL     1      10.051   0.237   4.729  1.00  0.00    -0.646 OA
HETATM   27  O5  UNL     1      10.004   0.239   6.917  1.00  0.00    -0.646 OA
ENDBRANCH   8  25
ENDBRANCH   7   8
ENDBRANCH   4   7
BRANCH   1  28
HETATM   28  O2  UNL     1      11.833  -3.596  11.762  1.00  0.00    -0.351 OA
BRANCH  28  29
HETATM   29  C12 UNL     1      11.848  -5.009  12.137  1.00  0.00     0.181 C 
BRANCH  29  30
HETATM   30  C11 UNL     1      13.328  -5.439  11.917  1.00  0.00     0.086 C 
BRANCH  30  31
HETATM   31  C10 UNL     1      13.256  -6.970  11.882  1.00  0.00     0.043 A 
HETATM   32  C2  UNL     1      14.368  -7.804  11.931  1.00  0.00     0.074 A 
HETATM   33  C1  UNL     1      15.745  -7.287  12.253  1.00  0.00     0.079 C 
HETATM   34  O1  UNL     1      13.964  -8.995  11.674  1.00  0.00    -0.296 OA
HETATM   35  C3  UNL     1      12.680  -9.047  11.456  1.00  0.00     0.158 A 
HETATM   36  N1  UNL     1      12.237  -7.773  11.593  1.00  0.00    -0.337 N 
ATOM     37  H1  UNL     1      11.267  -7.476  11.491  1.00  0.00     0.168 HD
BRANCH  35  38
HETATM   38  C4  UNL     1      11.867 -10.228  11.118  1.00  0.00     0.015 A 
HETATM   39  C5  UNL     1      12.346 -11.514  11.293  1.00  0.00     0.016 A 
HETATM   40  C6  UNL     1      11.542 -12.618  10.980  1.00  0.00     0.001 A 
HETATM   41  C7  UNL     1      10.250 -12.437  10.492  1.00  0.00     0.000 A 
HETATM   42  C8  UNL     1       9.775 -11.168  10.318  1.00  0.00     0.001 A 
HETATM   43  C9  UNL     1      10.583 -10.128  10.631  1.00  0.00     0.016 A 
ENDBRANCH  35  38
ENDBRANCH  30  31
ENDBRANCH  29  30
ENDBRANCH  28  29
ENDBRANCH   1  28
TORSDOF 12
ENDMDL
