MODEL 3
REMARK VINA RESULT: -13.080513341      2.582      3.208
REMARK  12 active torsions:
REMARK  status: ('A' for Active; 'I' for Inactive)
REMARK    1  A    between atoms: C3_4  and  C4_5 
REMARK    2  A    between atoms: C10_13  and  C11_14 
REMARK    3  A    between atoms: C11_14  and  C12_15 
REMARK    4  A    between atoms: C12_15  and  O2_16 
REMARK    5  A    between atoms: O2_16  and  C13_17 
REMARK    6  A    between atoms: C16_20  and  C17_21 
REMARK    7  A    between atoms: C17_21  and  C18_22 
REMARK    8  A    between atoms: C18_22  and  N2_23 
REMARK    9  A    between atoms: C18_22  and  C32_39 
REMARK   10  A    between atoms: N2_23  and  C19_25 
REMARK   11  A    between atoms: C24_30  and  C25_31 
REMARK   12  A    between atoms: C25_31  and  C26_33 
ROOT
HETATM    1  C13 UNL     1      11.490  -2.559   9.628  1.00  0.00     0.068 A 
HETATM    2  C14 UNL     1      12.831  -2.386   9.725  1.00  0.00     0.037 A 
HETATM    3  C15 UNL     1      13.507  -2.845  10.859  1.00  0.00     0.010 A 
HETATM    4  C16 UNL     1      12.915  -3.476  11.905  1.00  0.00    -0.056 A 
HETATM    5  C33 UNL     1      11.516  -3.633  11.780  1.00  0.00     0.010 A 
HETATM    6  C34 UNL     1      10.836  -3.168  10.643  1.00  0.00     0.037 A 
ENDROOT
BRANCH   4   7
HETATM    7  C17 UNL     1      13.567  -4.266  12.924  1.00  0.00     0.074 C 
BRANCH   7   8
HETATM    8  C18 UNL     1      14.634  -5.318  12.484  1.00  0.00     0.187 C 
BRANCH   8   9
HETATM    9  N2  UNL     1      13.946  -6.406  11.924  1.00  0.00    -0.375 N 
ATOM     10  H2  UNL     1      12.930  -6.370  11.850  1.00  0.00     0.160 HD
BRANCH   9  11
HETATM   11  C19 UNL     1      14.657  -7.590  11.443  1.00  0.00     0.043 A 
HETATM   12  C20 UNL     1      16.026  -7.458  11.195  1.00  0.00     0.030 A 
HETATM   13  C21 UNL     1      16.689  -8.625  10.733  1.00  0.00     0.002 A 
HETATM   14  C22 UNL     1      16.057  -9.798  10.537  1.00  0.00     0.001 A 
HETATM   15  C23 UNL     1      14.688  -9.886  10.797  1.00  0.00     0.018 A 
HETATM   16  C24 UNL     1      13.967  -8.775  11.257  1.00  0.00     0.041 A 
BRANCH  16  17
HETATM   17  C25 UNL     1      12.532  -8.866  11.401  1.00  0.00     0.194 C 
HETATM   18  O3  UNL     1      11.785  -7.931  11.742  1.00  0.00    -0.287 OA
BRANCH  17  19
HETATM   19  C26 UNL     1      11.845 -10.144  11.110  1.00  0.00     0.015 A 
HETATM   20  C27 UNL     1      10.571 -10.051  10.520  1.00  0.00     0.015 A 
HETATM   21  C28 UNL     1       9.795 -11.123  10.179  1.00  0.00     0.001 A 
HETATM   22  C29 UNL     1      10.307 -12.400  10.444  1.00  0.00     0.000 A 
HETATM   23  C30 UNL     1      11.534 -12.532  11.020  1.00  0.00     0.001 A 
HETATM   24  C31 UNL     1      12.301 -11.400  11.354  1.00  0.00     0.015 A 
ENDBRANCH  17  19
ENDBRANCH  16  17
ENDBRANCH   9  11
ENDBRANCH   8   9
BRANCH   8  25
HETATM   25  C32 UNL     1      15.600  -5.287  13.538  1.00  0.00     0.197 C 
HETATM   26  O4  UNL     1      15.202  -5.332  14.785  1.00  0.00    -0.646 OA
HETATM   27  O5  UNL     1      17.006  -5.222  13.550  1.00  0.00    -0.646 OA
ENDBRANCH   8  25
ENDBRANCH   7   8
ENDBRANCH   4   7
BRANCH   1  28
HETATM   28  O2  UNL     1      10.817  -2.103   8.434  1.00  0.00    -0.351 OA
BRANCH  28  29
HETATM   29  C12 UNL     1      10.630  -3.209   7.497  1.00  0.00     0.181 C 
BRANCH  29  30
HETATM   30  C11 UNL     1       9.085  -3.376   7.417  1.00  0.00     0.086 C 
BRANCH  30  31
HETATM   31  C10 UNL     1       8.892  -4.392   6.286  1.00  0.00     0.043 A 
HETATM   32  C2  UNL     1       8.009  -5.466   6.345  1.00  0.00     0.074 A 
HETATM   33  C1  UNL     1       6.987  -5.605   7.442  1.00  0.00     0.079 C 
HETATM   34  O1  UNL     1       8.252  -6.217   5.333  1.00  0.00    -0.296 OA
HETATM   35  C3  UNL     1       9.217  -5.752   4.590  1.00  0.00     0.158 A 
HETATM   36  N1  UNL     1       9.613  -4.602   5.189  1.00  0.00    -0.337 N 
ATOM     37  H1  UNL     1      10.354  -3.989   4.849  1.00  0.00     0.168 HD
BRANCH  35  38
HETATM   38  C4  UNL     1       9.781  -6.342   3.364  1.00  0.00     0.015 A 
HETATM   39  C5  UNL     1      10.460  -5.575   2.434  1.00  0.00     0.016 A 
HETATM   40  C6  UNL     1      11.001  -6.169   1.286  1.00  0.00     0.001 A 
HETATM   41  C7  UNL     1      10.865  -7.537   1.066  1.00  0.00     0.000 A 
HETATM   42  C8  UNL     1      10.194  -8.296   1.982  1.00  0.00     0.001 A 
HETATM   43  C9  UNL     1       9.685  -7.685   3.077  1.00  0.00     0.016 A 
ENDBRANCH  35  38
ENDBRANCH  30  31
ENDBRANCH  29  30
ENDBRANCH  28  29
ENDBRANCH   1  28
TORSDOF 12
ENDMDL
