MODEL 10
REMARK VINA RESULT: -12.119173299      1.737     10.303
REMARK  12 active torsions:
REMARK  status: ('A' for Active; 'I' for Inactive)
REMARK    1  A    between atoms: C3_4  and  C4_5 
REMARK    2  A    between atoms: C10_13  and  C11_14 
REMARK    3  A    between atoms: C11_14  and  C12_15 
REMARK    4  A    between atoms: C12_15  and  O2_16 
REMARK    5  A    between atoms: O2_16  and  C13_17 
REMARK    6  A    between atoms: C16_20  and  C17_21 
REMARK    7  A    between atoms: C17_21  and  C18_22 
REMARK    8  A    between atoms: C18_22  and  N2_23 
REMARK    9  A    between atoms: C18_22  and  C32_39 
REMARK   10  A    between atoms: N2_23  and  C19_25 
REMARK   11  A    between atoms: C24_30  and  C25_31 
REMARK   12  A    between atoms: C25_31  and  C26_33 
ROOT
HETATM    1  C13 UNL     1      10.923  -3.135  10.164  1.00  0.00     0.068 A 
HETATM    2  C14 UNL     1      11.492  -2.089   9.516  1.00  0.00     0.037 A 
HETATM    3  C15 UNL     1      11.048  -1.746   8.236  1.00  0.00     0.010 A 
HETATM    4  C16 UNL     1      10.058  -2.389   7.566  1.00  0.00    -0.056 A 
HETATM    5  C33 UNL     1       9.491  -3.480   8.263  1.00  0.00     0.010 A 
HETATM    6  C34 UNL     1       9.939  -3.828   9.548  1.00  0.00     0.037 A 
ENDROOT
BRANCH   4   7
HETATM    7  C17 UNL     1       9.324  -1.900   6.422  1.00  0.00     0.074 C 
BRANCH   7   8
HETATM    8  C18 UNL     1      10.095  -1.675   5.082  1.00  0.00     0.187 C 
BRANCH   8   9
HETATM    9  N2  UNL     1      11.035  -2.710   4.957  1.00  0.00    -0.375 N 
ATOM     10  H2  UNL     1      11.912  -2.652   5.474  1.00  0.00     0.160 HD
BRANCH   9  11
HETATM   11  C19 UNL     1      10.784  -3.869   4.102  1.00  0.00     0.043 A 
HETATM   12  C20 UNL     1       9.981  -4.886   4.625  1.00  0.00     0.030 A 
HETATM   13  C21 UNL     1       9.752  -5.998   3.771  1.00  0.00     0.002 A 
HETATM   14  C22 UNL     1      10.268  -6.087   2.530  1.00  0.00     0.001 A 
HETATM   15  C23 UNL     1      11.065  -5.047   2.047  1.00  0.00     0.018 A 
HETATM   16  C24 UNL     1      11.334  -3.917   2.834  1.00  0.00     0.041 A 
BRANCH  16  17
HETATM   17  C25 UNL     1      12.258  -2.917   2.352  1.00  0.00     0.194 C 
HETATM   18  O3  UNL     1      12.238  -1.712   2.665  1.00  0.00    -0.287 OA
BRANCH  17  19
HETATM   19  C26 UNL     1      13.347  -3.307   1.429  1.00  0.00     0.015 A 
HETATM   20  C27 UNL     1      13.519  -2.502   0.287  1.00  0.00     0.015 A 
HETATM   21  C28 UNL     1      14.474  -2.709  -0.668  1.00  0.00     0.001 A 
HETATM   22  C29 UNL     1      15.333  -3.802  -0.497  1.00  0.00     0.000 A 
HETATM   23  C30 UNL     1      15.194  -4.608   0.591  1.00  0.00     0.001 A 
HETATM   24  C31 UNL     1      14.197  -4.359   1.553  1.00  0.00     0.015 A 
ENDBRANCH  17  19
ENDBRANCH  16  17
ENDBRANCH   9  11
ENDBRANCH   8   9
BRANCH   8  25
HETATM   25  C32 UNL     1      10.276  -0.258   5.025  1.00  0.00     0.197 C 
HETATM   26  O4  UNL     1       9.944   0.481   6.055  1.00  0.00    -0.646 OA
HETATM   27  O5  UNL     1      10.782   0.607   4.037  1.00  0.00    -0.646 OA
ENDBRANCH   8  25
ENDBRANCH   7   8
ENDBRANCH   4   7
BRANCH   1  28
HETATM   28  O2  UNL     1      11.377  -3.454  11.498  1.00  0.00    -0.351 OA
BRANCH  28  29
HETATM   29  C12 UNL     1      11.369  -4.900  11.710  1.00  0.00     0.181 C 
BRANCH  29  30
HETATM   30  C11 UNL     1      12.839  -5.231  12.100  1.00  0.00     0.086 C 
BRANCH  30  31
HETATM   31  C10 UNL     1      12.929  -6.749  11.905  1.00  0.00     0.043 A 
HETATM   32  C2  UNL     1      14.108  -7.427  11.613  1.00  0.00     0.074 A 
HETATM   33  C1  UNL     1      15.456  -6.762  11.683  1.00  0.00     0.079 C 
HETATM   34  O1  UNL     1      13.789  -8.634  11.314  1.00  0.00    -0.296 OA
HETATM   35  C3  UNL     1      12.504  -8.838  11.377  1.00  0.00     0.158 A 
HETATM   36  N1  UNL     1      11.967  -7.652  11.755  1.00  0.00    -0.337 N 
ATOM     37  H1  UNL     1      10.972  -7.479  11.902  1.00  0.00     0.168 HD
BRANCH  35  38
HETATM   38  C4  UNL     1      11.770 -10.083  11.091  1.00  0.00     0.015 A 
HETATM   39  C5  UNL     1      10.491 -10.068  10.563  1.00  0.00     0.016 A 
HETATM   40  C6  UNL     1       9.826 -11.269  10.284  1.00  0.00     0.001 A 
HETATM   41  C7  UNL     1      10.441 -12.493  10.532  1.00  0.00     0.000 A 
HETATM   42  C8  UNL     1      11.703 -12.511  11.054  1.00  0.00     0.001 A 
HETATM   43  C9  UNL     1      12.312 -11.330  11.311  1.00  0.00     0.016 A 
ENDBRANCH  35  38
ENDBRANCH  30  31
ENDBRANCH  29  30
ENDBRANCH  28  29
ENDBRANCH   1  28
TORSDOF 12
ENDMDL
