MODEL 7
REMARK VINA RESULT: -12.895857515      2.141      2.598
REMARK  12 active torsions:
REMARK  status: ('A' for Active; 'I' for Inactive)
REMARK    1  A    between atoms: C3_4  and  C4_5 
REMARK    2  A    between atoms: C10_13  and  C11_14 
REMARK    3  A    between atoms: C11_14  and  C12_15 
REMARK    4  A    between atoms: C12_15  and  O2_16 
REMARK    5  A    between atoms: O2_16  and  C13_17 
REMARK    6  A    between atoms: C16_20  and  C17_21 
REMARK    7  A    between atoms: C17_21  and  C18_22 
REMARK    8  A    between atoms: C18_22  and  N2_23 
REMARK    9  A    between atoms: C18_22  and  C32_39 
REMARK   10  A    between atoms: N2_23  and  C19_25 
REMARK   11  A    between atoms: C24_30  and  C25_31 
REMARK   12  A    between atoms: C25_31  and  C26_33 
ROOT
HETATM    1  C13 UNL     1      10.900  -3.113   9.323  1.00  0.00     0.068 A 
HETATM    2  C14 UNL     1      12.219  -2.801   9.299  1.00  0.00     0.037 A 
HETATM    3  C15 UNL     1      13.008  -3.052  10.426  1.00  0.00     0.010 A 
HETATM    4  C16 UNL     1      12.552  -3.606  11.578  1.00  0.00    -0.056 A 
HETATM    5  C33 UNL     1      11.171  -3.911  11.576  1.00  0.00     0.010 A 
HETATM    6  C34 UNL     1      10.377  -3.654  10.446  1.00  0.00     0.037 A 
ENDROOT
BRANCH   4   7
HETATM    7  C17 UNL     1      13.343  -4.200  12.629  1.00  0.00     0.074 C 
BRANCH   7   8
HETATM    8  C18 UNL     1      14.507  -5.164  12.233  1.00  0.00     0.187 C 
BRANCH   8   9
HETATM    9  N2  UNL     1      13.937  -6.261  11.568  1.00  0.00    -0.375 N 
ATOM     10  H2  UNL     1      12.980  -6.194  11.224  1.00  0.00     0.160 HD
BRANCH   9  11
HETATM   11  C19 UNL     1      14.688  -7.498  11.357  1.00  0.00     0.043 A 
HETATM   12  C20 UNL     1      16.062  -7.382  11.131  1.00  0.00     0.030 A 
HETATM   13  C21 UNL     1      16.765  -8.599  10.933  1.00  0.00     0.002 A 
HETATM   14  C22 UNL     1      16.163  -9.804  10.956  1.00  0.00     0.001 A 
HETATM   15  C23 UNL     1      14.788  -9.875  11.185  1.00  0.00     0.018 A 
HETATM   16  C24 UNL     1      14.029  -8.714  11.390  1.00  0.00     0.041 A 
BRANCH  16  17
HETATM   17  C25 UNL     1      12.592  -8.813  11.504  1.00  0.00     0.194 C 
HETATM   18  O3  UNL     1      11.835  -7.889  11.858  1.00  0.00    -0.287 OA
BRANCH  17  19
HETATM   19  C26 UNL     1      11.914 -10.084  11.166  1.00  0.00     0.015 A 
HETATM   20  C27 UNL     1      10.674  -9.978  10.509  1.00  0.00     0.015 A 
HETATM   21  C28 UNL     1       9.912 -11.042  10.117  1.00  0.00     0.001 A 
HETATM   22  C29 UNL     1      10.401 -12.325  10.396  1.00  0.00     0.000 A 
HETATM   23  C30 UNL     1      11.595 -12.469  11.036  1.00  0.00     0.001 A 
HETATM   24  C31 UNL     1      12.349 -11.345  11.421  1.00  0.00     0.015 A 
ENDBRANCH  17  19
ENDBRANCH  16  17
ENDBRANCH   9  11
ENDBRANCH   8   9
BRANCH   8  25
HETATM   25  C32 UNL     1      15.381  -5.129  13.364  1.00  0.00     0.197 C 
HETATM   26  O4  UNL     1      14.877  -5.133  14.574  1.00  0.00    -0.646 OA
HETATM   27  O5  UNL     1      16.781  -5.098  13.496  1.00  0.00    -0.646 OA
ENDBRANCH   8  25
ENDBRANCH   7   8
ENDBRANCH   4   7
BRANCH   1  28
HETATM   28  O2  UNL     1      10.110  -2.871   8.138  1.00  0.00    -0.351 OA
BRANCH  28  29
HETATM   29  C12 UNL     1      10.712  -3.527   6.978  1.00  0.00     0.181 C 
BRANCH  29  30
HETATM   30  C11 UNL     1      10.355  -2.589   5.789  1.00  0.00     0.086 C 
BRANCH  30  31
HETATM   31  C10 UNL     1      10.708  -3.424   4.554  1.00  0.00     0.043 A 
HETATM   32  C2  UNL     1      11.309  -2.909   3.409  1.00  0.00     0.074 A 
HETATM   33  C1  UNL     1      11.880  -1.517   3.360  1.00  0.00     0.079 C 
HETATM   34  O1  UNL     1      11.268  -3.825   2.511  1.00  0.00    -0.296 OA
HETATM   35  C3  UNL     1      10.696  -4.915   2.939  1.00  0.00     0.158 A 
HETATM   36  N1  UNL     1      10.351  -4.662   4.226  1.00  0.00    -0.337 N 
ATOM     37  H1  UNL     1       9.886  -5.322   4.849  1.00  0.00     0.168 HD
BRANCH  35  38
HETATM   38  C4  UNL     1      10.456  -6.163   2.195  1.00  0.00     0.015 A 
HETATM   39  C5  UNL     1      10.717  -6.263   0.840  1.00  0.00     0.016 A 
HETATM   40  C6  UNL     1      10.496  -7.470   0.163  1.00  0.00     0.001 A 
HETATM   41  C7  UNL     1      10.013  -8.585   0.843  1.00  0.00     0.000 A 
HETATM   42  C8  UNL     1       9.754  -8.489   2.181  1.00  0.00     0.001 A 
HETATM   43  C9  UNL     1       9.979  -7.306   2.799  1.00  0.00     0.016 A 
ENDBRANCH  35  38
ENDBRANCH  30  31
ENDBRANCH  29  30
ENDBRANCH  28  29
ENDBRANCH   1  28
TORSDOF 12
ENDMDL
