MODEL 18
REMARK VINA RESULT: -5.848579306      2.029      4.722
REMARK  5 active torsions:
REMARK  status: ('A' for Active; 'I' for Inactive)
REMARK    1  A    between atoms: C3_6  and  O2_7 
REMARK    2  A    between atoms: C4_9  and  O3_10 
REMARK    3  A    between atoms: C5_12  and  O4_13 
REMARK    4  A    between atoms: C6_15  and  C7_16 
REMARK    5  A    between atoms: C7_16  and  O5_17 
ROOT
HETATM    1  O1  UNL     1      34.699  39.489  26.405  1.00  0.00    -0.262 OA
HETATM    2  C1  UNL     1      34.531  40.683  26.770  1.00  0.00     0.311 C 
HETATM    3  N1  UNL     1      33.458  41.259  27.505  1.00  0.00    -0.329 N 
ATOM      4  H1  UNL     1      32.516  40.879  27.597  1.00  0.00     0.165 HD
HETATM    5  C2  UNL     1      33.944  42.463  28.087  1.00  0.00     0.222 C 
HETATM    6  C3  UNL     1      32.906  43.547  28.232  1.00  0.00     0.192 C 
HETATM    7  C4  UNL     1      33.597  44.649  29.013  1.00  0.00     0.181 C 
HETATM    8  C5  UNL     1      34.759  45.137  28.217  1.00  0.00     0.174 C 
HETATM    9  C6  UNL     1      35.018  44.375  26.948  1.00  0.00     0.144 C 
HETATM   10  N2  UNL     1      34.897  42.959  27.082  1.00  0.00    -0.311 N 
HETATM   11  C8  UNL     1      35.451  41.799  26.507  1.00  0.00     0.313 C 
HETATM   12  O6  UNL     1      36.547  41.781  25.887  1.00  0.00    -0.262 OA
ENDROOT
BRANCH   9  13
HETATM   13  C7  UNL     1      36.398  44.794  26.454  1.00  0.00     0.192 C 
BRANCH  13  14
HETATM   14  O5  UNL     1      36.321  45.980  25.726  1.00  0.00    -0.399 OA
ATOM     15  H5  UNL     1      37.138  46.461  25.782  1.00  0.00     0.209 HD
ENDBRANCH  13  14
ENDBRANCH   9  13
BRANCH   8  16
HETATM   16  O4  UNL     1      34.497  46.487  27.889  1.00  0.00    -0.391 OA
ATOM     17  H4  UNL     1      33.761  46.766  28.420  1.00  0.00     0.210 HD
ENDBRANCH   8  16
BRANCH   7  18
HETATM   18  O3  UNL     1      34.056  44.040  30.204  1.00  0.00    -0.390 OA
ATOM     19  H3  UNL     1      33.421  43.362  30.405  1.00  0.00     0.210 HD
ENDBRANCH   7  18
BRANCH   6  20
HETATM   20  O2  UNL     1      31.767  43.100  28.912  1.00  0.00    -0.389 OA
ATOM     21  H2  UNL     1      31.944  42.329  29.441  1.00  0.00     0.210 HD
ENDBRANCH   6  20
TORSDOF 5
ENDMDL
