MODEL 16
REMARK VINA RESULT: -5.955721114      1.486      4.085
REMARK  5 active torsions:
REMARK  status: ('A' for Active; 'I' for Inactive)
REMARK    1  A    between atoms: C3_6  and  O2_7 
REMARK    2  A    between atoms: C4_9  and  O3_10 
REMARK    3  A    between atoms: C5_12  and  O4_13 
REMARK    4  A    between atoms: C6_15  and  C7_16 
REMARK    5  A    between atoms: C7_16  and  O5_17 
ROOT
HETATM    1  O1  UNL     1      33.549  39.450  27.024  1.00  0.00    -0.262 OA
HETATM    2  C1  UNL     1      34.108  40.566  27.201  1.00  0.00     0.311 C 
HETATM    3  N1  UNL     1      33.523  41.835  27.460  1.00  0.00    -0.329 N 
ATOM      4  H1  UNL     1      32.565  42.114  27.251  1.00  0.00     0.165 HD
HETATM    5  C2  UNL     1      34.525  42.645  28.066  1.00  0.00     0.222 C 
HETATM    6  C3  UNL     1      34.418  44.113  27.743  1.00  0.00     0.192 C 
HETATM    7  C4  UNL     1      35.463  44.783  28.616  1.00  0.00     0.181 C 
HETATM    8  C5  UNL     1      36.805  44.259  28.235  1.00  0.00     0.174 C 
HETATM    9  C6  UNL     1      36.785  43.160  27.209  1.00  0.00     0.144 C 
HETATM   10  N2  UNL     1      35.764  42.186  27.417  1.00  0.00    -0.311 N 
HETATM   11  C8  UNL     1      35.557  40.813  27.177  1.00  0.00     0.313 C 
HETATM   12  O6  UNL     1      36.489  39.989  26.983  1.00  0.00    -0.262 OA
ENDROOT
BRANCH   9  13
HETATM   13  C7  UNL     1      38.179  42.544  27.194  1.00  0.00     0.192 C 
BRANCH  13  14
HETATM   14  O5  UNL     1      38.767  42.624  28.455  1.00  0.00    -0.399 OA
ATOM     15  H5  UNL     1      38.529  41.872  28.984  1.00  0.00     0.209 HD
ENDBRANCH  13  14
ENDBRANCH   9  13
BRANCH   8  16
HETATM   16  O4  UNL     1      37.544  45.347  27.718  1.00  0.00    -0.391 OA
ATOM     17  H4  UNL     1      38.227  45.545  28.348  1.00  0.00     0.210 HD
ENDBRANCH   8  16
BRANCH   7  18
HETATM   18  O3  UNL     1      35.157  44.396  29.941  1.00  0.00    -0.390 OA
ATOM     19  H3  UNL     1      35.598  43.565  30.072  1.00  0.00     0.210 HD
ENDBRANCH   7  18
BRANCH   6  20
HETATM   20  O2  UNL     1      33.144  44.624  28.020  1.00  0.00    -0.389 OA
ATOM     21  H2  UNL     1      32.754  44.219  28.787  1.00  0.00     0.210 HD
ENDBRANCH   6  20
TORSDOF 5
ENDMDL
