MODEL 19
REMARK VINA RESULT: -5.839417863      2.046      5.054
REMARK  5 active torsions:
REMARK  status: ('A' for Active; 'I' for Inactive)
REMARK    1  A    between atoms: C3_6  and  O2_7 
REMARK    2  A    between atoms: C4_9  and  O3_10 
REMARK    3  A    between atoms: C5_12  and  O4_13 
REMARK    4  A    between atoms: C6_15  and  C7_16 
REMARK    5  A    between atoms: C7_16  and  O5_17 
ROOT
HETATM    1  O1  UNL     1      36.578  39.261  23.624  1.00  0.00    -0.262 OA
HETATM    2  C1  UNL     1      36.486  40.176  24.487  1.00  0.00     0.311 C 
HETATM    3  N1  UNL     1      37.408  41.211  24.804  1.00  0.00    -0.329 N 
ATOM      4  H1  UNL     1      38.408  41.211  24.606  1.00  0.00     0.165 HD
HETATM    5  C2  UNL     1      36.674  42.245  25.449  1.00  0.00     0.222 C 
HETATM    6  C3  UNL     1      37.457  43.012  26.484  1.00  0.00     0.192 C 
HETATM    7  C4  UNL     1      36.543  44.147  26.906  1.00  0.00     0.181 C 
HETATM    8  C5  UNL     1      35.309  43.564  27.507  1.00  0.00     0.174 C 
HETATM    9  C6  UNL     1      35.226  42.064  27.443  1.00  0.00     0.144 C 
HETATM   10  N2  UNL     1      35.643  41.508  26.197  1.00  0.00    -0.311 N 
HETATM   11  C8  UNL     1      35.352  40.386  25.398  1.00  0.00     0.313 C 
HETATM   12  O6  UNL     1      34.289  39.717  25.492  1.00  0.00    -0.262 OA
ENDROOT
BRANCH   9  13
HETATM   13  C7  UNL     1      33.791  41.686  27.795  1.00  0.00     0.192 C 
BRANCH  13  14
HETATM   14  O5  UNL     1      32.959  42.802  27.733  1.00  0.00    -0.399 OA
ATOM     15  H5  UNL     1      32.313  42.700  27.044  1.00  0.00     0.209 HD
ENDBRANCH  13  14
ENDBRANCH   9  13
BRANCH   8  16
HETATM   16  O4  UNL     1      35.281  43.962  28.863  1.00  0.00    -0.391 OA
ATOM     17  H4  UNL     1      36.010  44.555  28.994  1.00  0.00     0.210 HD
ENDBRANCH   8  16
BRANCH   7  18
HETATM   18  O3  UNL     1      36.216  44.834  25.715  1.00  0.00    -0.390 OA
ATOM     19  H3  UNL     1      36.559  45.713  25.825  1.00  0.00     0.210 HD
ENDBRANCH   7  18
BRANCH   6  20
HETATM   20  O2  UNL     1      38.661  43.512  25.973  1.00  0.00    -0.389 OA
ATOM     21  H2  UNL     1      39.415  43.030  26.294  1.00  0.00     0.210 HD
ENDBRANCH   6  20
TORSDOF 5
ENDMDL
