MODEL 3
REMARK VINA RESULT: -7.401289268      2.679      6.357
REMARK  10 active torsions:
REMARK  status: ('A' for Active; 'I' for Inactive)
REMARK    1  A    between atoms: C2_2  and  C3_3 
REMARK       I    between atoms: N1_6  and  C6_7 
REMARK    2  A    between atoms: C6_7  and  C7_9 
REMARK    3  A    between atoms: C7_9  and  C8_10 
REMARK    4  A    between atoms: C7_9  and  N5_18 
REMARK    5  A    between atoms: C8_10  and  C9_11 
REMARK    6  A    between atoms: C9_11  and  C10_12 
REMARK    7  A    between atoms: C10_12  and  N2_13 
REMARK    8  A    between atoms: N5_18  and  S1_20 
REMARK    9  A    between atoms: S1_20  and  C12_23 
REMARK   10  A    between atoms: C17_28  and  N6_29 
ROOT
HETATM    1  C7  UNL     1      17.217 -16.231  22.546  1.00  0.00     0.185 C 
ENDROOT
BRANCH   1   2
HETATM    2  C6  UNL     1      18.141 -17.055  23.362  1.00  0.00     0.243 C 
HETATM    3  N1  UNL     1      18.848 -16.465  24.442  1.00  0.00    -0.350 N 
HETATM    4  C5  UNL     1      18.807 -15.071  24.803  1.00  0.00     0.126 C 
HETATM    5  C24 UNL     1      19.692 -17.316  25.311  1.00  0.00     0.126 C 
HETATM    6  C4  UNL     1      20.149 -14.473  25.062  1.00  0.00     0.024 C 
HETATM    7  C3  UNL     1      21.250 -15.376  25.461  1.00  0.00    -0.012 C 
HETATM    8  C25 UNL     1      21.101 -16.814  25.071  1.00  0.00     0.024 C 
HETATM    9  O1  UNL     1      18.327 -18.295  23.123  1.00  0.00    -0.271 OA
BRANCH   7  10
HETATM   10  C2  UNL     1      21.593 -15.281  26.940  1.00  0.00     0.000 C 
HETATM   11  C1  UNL     1      21.082 -13.982  27.527  1.00  0.00     0.005 C 
ENDBRANCH   7  10
ENDBRANCH   1   2
BRANCH   1  12
HETATM   12  C8  UNL     1      15.971 -17.129  22.413  1.00  0.00     0.037 C 
BRANCH  12  13
HETATM   13  C9  UNL     1      15.118 -16.822  21.247  1.00  0.00     0.022 C 
BRANCH  13  14
HETATM   14  C10 UNL     1      13.796 -16.176  21.555  1.00  0.00     0.122 C 
BRANCH  14  15
HETATM   15  N2  UNL     1      13.947 -14.882  22.203  1.00  0.00    -0.367 N 
HETATM   16  C11 UNL     1      13.101 -13.917  21.948  1.00  0.00     0.196 C 
HETATM   17  N3  UNL     1      12.057 -14.185  21.037  1.00  0.00    -0.067 NA
HETATM   18  N4  UNL     1      13.259 -12.656  22.582  1.00  0.00    -0.067 NA
ATOM     19  H2  UNL     1      14.714 -14.726  22.857  1.00  0.00     0.161 HD
ENDBRANCH  14  15
ENDBRANCH  13  14
ENDBRANCH  12  13
ENDBRANCH   1  12
BRANCH   1  20
HETATM   20  N5  UNL     1      17.849 -16.126  21.247  1.00  0.00    -0.302 N 
ATOM     21  H5  UNL     1      17.675 -16.821  20.521  1.00  0.00     0.173 HD
BRANCH  20  22
HETATM   22  S1  UNL     1      18.873 -14.828  20.970  1.00  0.00     0.260 S 
HETATM   23  O2  UNL     1      18.401 -13.710  21.911  1.00  0.00    -0.200 OA
HETATM   24  O3  UNL     1      20.320 -15.133  21.310  1.00  0.00    -0.200 OA
BRANCH  22  25
HETATM   25  C12 UNL     1      18.868 -14.162  19.360  1.00  0.00     0.090 A 
HETATM   26  C13 UNL     1      20.000 -13.988  18.602  1.00  0.00     0.026 A 
HETATM   27  C14 UNL     1      19.995 -13.435  17.326  1.00  0.00     0.003 A 
HETATM   28  C15 UNL     1      18.805 -13.037  16.774  1.00  0.00     0.014 A 
HETATM   29  C16 UNL     1      17.651 -13.205  17.523  1.00  0.00     0.002 A 
HETATM   30  C17 UNL     1      16.438 -12.800  16.960  1.00  0.00     0.040 A 
HETATM   31  C23 UNL     1      17.647 -13.757  18.800  1.00  0.00    -0.000 A 
HETATM   32  C20 UNL     1      15.276 -12.961  17.692  1.00  0.00     0.030 A 
HETATM   33  C21 UNL     1      15.276 -13.506  18.951  1.00  0.00     0.003 A 
HETATM   34  C22 UNL     1      16.479 -13.911  19.515  1.00  0.00     0.014 A 
BRANCH  30  35
HETATM   35  N6  UNL     1      16.356 -12.245  15.660  1.00  0.00    -0.389 N 
HETATM   36  C18 UNL     1      16.267 -13.110  14.518  1.00  0.00     0.149 C 
HETATM   37  C19 UNL     1      16.362 -10.818  15.481  1.00  0.00     0.149 C 
ENDBRANCH  30  35
ENDBRANCH  22  25
ENDBRANCH  20  22
ENDBRANCH   1  20
TORSDOF 10
ENDMDL
