MODEL 1
REMARK VINA RESULT: -7.792629137      0.000      0.000
REMARK  10 active torsions:
REMARK  status: ('A' for Active; 'I' for Inactive)
REMARK    1  A    between atoms: C2_2  and  C3_3 
REMARK       I    between atoms: N1_6  and  C6_7 
REMARK    2  A    between atoms: C6_7  and  C7_9 
REMARK    3  A    between atoms: C7_9  and  C8_10 
REMARK    4  A    between atoms: C7_9  and  N5_18 
REMARK    5  A    between atoms: C8_10  and  C9_11 
REMARK    6  A    between atoms: C9_11  and  C10_12 
REMARK    7  A    between atoms: C10_12  and  N2_13 
REMARK    8  A    between atoms: N5_18  and  S1_20 
REMARK    9  A    between atoms: S1_20  and  C12_23 
REMARK   10  A    between atoms: C17_28  and  N6_29 
ROOT
HETATM    1  C7  UNL     1      14.826 -15.068  21.126  1.00  0.00     0.185 C 
ENDROOT
BRANCH   1   2
HETATM    2  C6  UNL     1      15.740 -13.990  21.574  1.00  0.00     0.243 C 
HETATM    3  N1  UNL     1      16.910 -13.698  20.825  1.00  0.00    -0.350 N 
HETATM    4  C5  UNL     1      17.353 -14.416  19.657  1.00  0.00     0.126 C 
HETATM    5  C24 UNL     1      17.764 -12.556  21.224  1.00  0.00     0.126 C 
HETATM    6  C4  UNL     1      18.804 -14.763  19.675  1.00  0.00     0.024 C 
HETATM    7  C3  UNL     1      19.708 -13.940  20.506  1.00  0.00    -0.012 C 
HETATM    8  C25 UNL     1      19.073 -13.196  21.639  1.00  0.00     0.024 C 
HETATM    9  O1  UNL     1      15.510 -13.306  22.626  1.00  0.00    -0.271 OA
BRANCH   7  10
HETATM   10  C2  UNL     1      20.568 -12.988  19.689  1.00  0.00     0.000 C 
HETATM   11  C1  UNL     1      20.241 -13.101  18.214  1.00  0.00     0.005 C 
ENDBRANCH   7  10
ENDBRANCH   1   2
BRANCH   1  12
HETATM   12  C8  UNL     1      13.449 -14.377  21.111  1.00  0.00     0.037 C 
BRANCH  12  13
HETATM   13  C9  UNL     1      13.330 -13.270  20.142  1.00  0.00     0.022 C 
BRANCH  13  14
HETATM   14  C10 UNL     1      12.808 -11.971  20.692  1.00  0.00     0.122 C 
BRANCH  14  15
HETATM   15  N2  UNL     1      11.888 -12.167  21.802  1.00  0.00    -0.367 N 
HETATM   16  C11 UNL     1      11.953 -11.392  22.853  1.00  0.00     0.196 C 
HETATM   17  N3  UNL     1      12.936 -10.379  22.860  1.00  0.00    -0.067 NA
HETATM   18  N4  UNL     1      11.054 -11.594  23.934  1.00  0.00    -0.067 NA
ATOM     19  H2  UNL     1      11.191 -12.910  21.760  1.00  0.00     0.161 HD
ENDBRANCH  14  15
ENDBRANCH  13  14
ENDBRANCH  12  13
ENDBRANCH   1  12
BRANCH   1  20
HETATM   20  N5  UNL     1      14.839 -16.046  22.194  1.00  0.00    -0.302 N 
ATOM     21  H5  UNL     1      14.346 -15.872  23.070  1.00  0.00     0.173 HD
BRANCH  20  22
HETATM   22  S1  UNL     1      15.689 -17.470  21.951  1.00  0.00     0.260 S 
HETATM   23  O2  UNL     1      15.228 -18.430  23.057  1.00  0.00    -0.200 OA
HETATM   24  O3  UNL     1      15.378 -18.125  20.618  1.00  0.00    -0.200 OA
BRANCH  22  25
HETATM   25  C12 UNL     1      17.424 -17.370  22.066  1.00  0.00     0.090 A 
HETATM   26  C13 UNL     1      18.284 -17.986  21.189  1.00  0.00     0.026 A 
HETATM   27  C14 UNL     1      19.670 -17.923  21.298  1.00  0.00     0.003 A 
HETATM   28  C15 UNL     1      20.228 -17.211  22.328  1.00  0.00     0.014 A 
HETATM   29  C16 UNL     1      19.377 -16.583  23.222  1.00  0.00     0.002 A 
HETATM   30  C17 UNL     1      19.947 -15.857  24.271  1.00  0.00     0.040 A 
HETATM   31  C23 UNL     1      17.991 -16.641  23.121  1.00  0.00    -0.000 A 
HETATM   32  C20 UNL     1      19.113 -15.222  25.174  1.00  0.00     0.030 A 
HETATM   33  C21 UNL     1      17.746 -15.281  25.071  1.00  0.00     0.003 A 
HETATM   34  C22 UNL     1      17.175 -16.001  24.029  1.00  0.00     0.014 A 
BRANCH  30  35
HETATM   35  N6  UNL     1      21.349 -15.736  24.434  1.00  0.00    -0.389 N 
HETATM   36  C18 UNL     1      22.033 -14.589  23.908  1.00  0.00     0.149 C 
HETATM   37  C19 UNL     1      22.087 -16.760  25.123  1.00  0.00     0.149 C 
ENDBRANCH  30  35
ENDBRANCH  22  25
ENDBRANCH  20  22
ENDBRANCH   1  20
TORSDOF 10
ENDMDL
