MODEL 5
REMARK VINA RESULT: -7.325151842      2.890      7.014
REMARK  10 active torsions:
REMARK  status: ('A' for Active; 'I' for Inactive)
REMARK    1  A    between atoms: C2_2  and  C3_3 
REMARK       I    between atoms: N1_6  and  C6_7 
REMARK    2  A    between atoms: C6_7  and  C7_9 
REMARK    3  A    between atoms: C7_9  and  C8_10 
REMARK    4  A    between atoms: C7_9  and  N5_18 
REMARK    5  A    between atoms: C8_10  and  C9_11 
REMARK    6  A    between atoms: C9_11  and  C10_12 
REMARK    7  A    between atoms: C10_12  and  N2_13 
REMARK    8  A    between atoms: N5_18  and  S1_20 
REMARK    9  A    between atoms: S1_20  and  C12_23 
REMARK   10  A    between atoms: C17_28  and  N6_29 
ROOT
HETATM    1  C7  UNL     1      18.110 -15.854  21.724  1.00  0.00     0.185 C 
ENDROOT
BRANCH   1   2
HETATM    2  C6  UNL     1      19.473 -16.245  22.157  1.00  0.00     0.243 C 
HETATM    3  N1  UNL     1      19.930 -15.894  23.454  1.00  0.00    -0.350 N 
HETATM    4  C5  UNL     1      19.197 -15.108  24.412  1.00  0.00     0.126 C 
HETATM    5  C24 UNL     1      21.254 -16.374  23.914  1.00  0.00     0.126 C 
HETATM    6  C4  UNL     1      20.005 -14.032  25.057  1.00  0.00     0.024 C 
HETATM    7  C3  UNL     1      21.474 -14.196  25.104  1.00  0.00    -0.012 C 
HETATM    8  C25 UNL     1      22.072 -15.110  24.080  1.00  0.00     0.024 C 
HETATM    9  O1  UNL     1      20.262 -16.894  21.393  1.00  0.00    -0.271 OA
BRANCH   7  10
HETATM   10  C2  UNL     1      21.987 -14.571  26.486  1.00  0.00     0.000 C 
HETATM   11  C1  UNL     1      20.917 -14.350  27.534  1.00  0.00     0.005 C 
ENDBRANCH   7  10
ENDBRANCH   1   2
BRANCH   1  12
HETATM   12  C8  UNL     1      17.672 -17.034  20.833  1.00  0.00     0.037 C 
BRANCH  12  13
HETATM   13  C9  UNL     1      16.223 -17.090  20.562  1.00  0.00     0.022 C 
BRANCH  13  14
HETATM   14  C10 UNL     1      15.327 -17.014  21.767  1.00  0.00     0.122 C 
BRANCH  14  15
HETATM   15  N2  UNL     1      14.441 -15.860  21.729  1.00  0.00    -0.367 N 
HETATM   16  C11 UNL     1      13.144 -16.027  21.745  1.00  0.00     0.196 C 
HETATM   17  N3  UNL     1      12.655 -17.350  21.801  1.00  0.00    -0.067 NA
HETATM   18  N4  UNL     1      12.287 -14.896  21.703  1.00  0.00    -0.067 NA
ATOM     19  H2  UNL     1      14.833 -14.919  21.690  1.00  0.00     0.161 HD
ENDBRANCH  14  15
ENDBRANCH  13  14
ENDBRANCH  12  13
ENDBRANCH   1  12
BRANCH   1  20
HETATM   20  N5  UNL     1      18.298 -14.689  20.884  1.00  0.00    -0.302 N 
ATOM     21  H5  UNL     1      19.037 -14.663  20.181  1.00  0.00     0.173 HD
BRANCH  20  22
HETATM   22  S1  UNL     1      17.267 -13.385  21.101  1.00  0.00     0.260 S 
HETATM   23  O2  UNL     1      16.453 -13.696  22.365  1.00  0.00    -0.200 OA
HETATM   24  O3  UNL     1      18.004 -12.081  21.340  1.00  0.00    -0.200 OA
BRANCH  22  25
HETATM   25  C12 UNL     1      16.116 -13.083  19.827  1.00  0.00     0.090 A 
HETATM   26  C13 UNL     1      14.786 -12.819  20.047  1.00  0.00     0.026 A 
HETATM   27  C14 UNL     1      13.866 -12.601  19.027  1.00  0.00     0.003 A 
HETATM   28  C15 UNL     1      14.288 -12.647  17.724  1.00  0.00     0.014 A 
HETATM   29  C16 UNL     1      15.627 -12.911  17.482  1.00  0.00     0.002 A 
HETATM   30  C17 UNL     1      16.057 -12.956  16.154  1.00  0.00     0.040 A 
HETATM   31  C23 UNL     1      16.554 -13.130  18.496  1.00  0.00    -0.000 A 
HETATM   32  C20 UNL     1      17.390 -13.218  15.892  1.00  0.00     0.030 A 
HETATM   33  C21 UNL     1      18.301 -13.433  16.895  1.00  0.00     0.003 A 
HETATM   34  C22 UNL     1      17.878 -13.389  18.217  1.00  0.00     0.014 A 
BRANCH  30  35
HETATM   35  N6  UNL     1      15.179 -12.728  15.066  1.00  0.00    -0.389 N 
HETATM   36  C18 UNL     1      14.969 -11.392  14.586  1.00  0.00     0.149 C 
HETATM   37  C19 UNL     1      14.498 -13.831  14.443  1.00  0.00     0.149 C 
ENDBRANCH  30  35
ENDBRANCH  22  25
ENDBRANCH  20  22
ENDBRANCH   1  20
TORSDOF 10
ENDMDL
