MODEL 7
REMARK VINA RESULT: -7.308135386      3.886      4.976
REMARK  10 active torsions:
REMARK  status: ('A' for Active; 'I' for Inactive)
REMARK    1  A    between atoms: C2_2  and  C3_3 
REMARK       I    between atoms: N1_6  and  C6_7 
REMARK    2  A    between atoms: C6_7  and  C7_9 
REMARK    3  A    between atoms: C7_9  and  C8_10 
REMARK    4  A    between atoms: C7_9  and  N5_18 
REMARK    5  A    between atoms: C8_10  and  C9_11 
REMARK    6  A    between atoms: C9_11  and  C10_12 
REMARK    7  A    between atoms: C10_12  and  N2_13 
REMARK    8  A    between atoms: N5_18  and  S1_20 
REMARK    9  A    between atoms: S1_20  and  C12_23 
REMARK   10  A    between atoms: C17_28  and  N6_29 
ROOT
HETATM    1  C7  UNL     1      14.788 -13.020  18.092  1.00  0.00     0.185 C 
ENDROOT
BRANCH   1   2
HETATM    2  C6  UNL     1      14.538 -12.225  16.865  1.00  0.00     0.243 C 
HETATM    3  N1  UNL     1      14.729 -12.816  15.589  1.00  0.00    -0.350 N 
HETATM    4  C5  UNL     1      15.223 -14.148  15.352  1.00  0.00     0.126 C 
HETATM    5  C24 UNL     1      14.383 -12.048  14.371  1.00  0.00     0.126 C 
HETATM    6  C4  UNL     1      16.284 -14.223  14.306  1.00  0.00     0.024 C 
HETATM    7  C3  UNL     1      16.337 -13.152  13.288  1.00  0.00    -0.012 C 
HETATM    8  C25 UNL     1      15.709 -11.847  13.667  1.00  0.00     0.024 C 
HETATM    9  O1  UNL     1      14.153 -11.010  16.917  1.00  0.00    -0.271 OA
BRANCH   7  10
HETATM   10  C2  UNL     1      15.815 -13.594  11.929  1.00  0.00     0.000 C 
HETATM   11  C1  UNL     1      15.790 -12.431  10.960  1.00  0.00     0.005 C 
ENDBRANCH   7  10
ENDBRANCH   1   2
BRANCH   1  12
HETATM   12  C8  UNL     1      13.628 -12.607  19.019  1.00  0.00     0.037 C 
BRANCH  12  13
HETATM   13  C9  UNL     1      13.727 -13.135  20.394  1.00  0.00     0.022 C 
BRANCH  13  14
HETATM   14  C10 UNL     1      13.801 -12.106  21.487  1.00  0.00     0.122 C 
BRANCH  14  15
HETATM   15  N2  UNL     1      12.892 -12.396  22.587  1.00  0.00    -0.367 N 
HETATM   16  C11 UNL     1      11.808 -11.684  22.748  1.00  0.00     0.196 C 
HETATM   17  N3  UNL     1      11.564 -10.644  21.825  1.00  0.00    -0.067 NA
HETATM   18  N4  UNL     1      10.930 -11.972  23.827  1.00  0.00    -0.067 NA
ATOM     19  H2  UNL     1      13.103 -13.157  23.233  1.00  0.00     0.161 HD
ENDBRANCH  14  15
ENDBRANCH  13  14
ENDBRANCH  12  13
ENDBRANCH   1  12
BRANCH   1  20
HETATM   20  N5  UNL     1      16.023 -12.497  18.639  1.00  0.00    -0.302 N 
ATOM     21  H5  UNL     1      16.019 -11.690  19.263  1.00  0.00     0.173 HD
BRANCH  20  22
HETATM   22  S1  UNL     1      17.457 -13.254  18.216  1.00  0.00     0.260 S 
HETATM   23  O2  UNL     1      17.071 -14.676  17.782  1.00  0.00    -0.200 OA
HETATM   24  O3  UNL     1      18.153 -12.590  17.043  1.00  0.00    -0.200 OA
BRANCH  22  25
HETATM   25  C12 UNL     1      18.649 -13.422  19.476  1.00  0.00     0.090 A 
HETATM   26  C13 UNL     1      19.909 -12.879  19.411  1.00  0.00     0.026 A 
HETATM   27  C14 UNL     1      20.866 -13.034  20.409  1.00  0.00     0.003 A 
HETATM   28  C15 UNL     1      20.554 -13.764  21.527  1.00  0.00     0.014 A 
HETATM   29  C16 UNL     1      19.287 -14.318  21.610  1.00  0.00     0.002 A 
HETATM   30  C17 UNL     1      18.970 -15.061  22.751  1.00  0.00     0.040 A 
HETATM   31  C23 UNL     1      18.325 -14.168  20.618  1.00  0.00    -0.000 A 
HETATM   32  C20 UNL     1      17.710 -15.622  22.853  1.00  0.00     0.030 A 
HETATM   33  C21 UNL     1      16.763 -15.472  21.871  1.00  0.00     0.003 A 
HETATM   34  C22 UNL     1      17.073 -14.734  20.736  1.00  0.00     0.014 A 
BRANCH  30  35
HETATM   35  N6  UNL     1      19.888 -15.247  23.813  1.00  0.00    -0.389 N 
HETATM   36  C18 UNL     1      20.907 -16.252  23.709  1.00  0.00     0.149 C 
HETATM   37  C19 UNL     1      19.801 -14.432  24.994  1.00  0.00     0.149 C 
ENDBRANCH  30  35
ENDBRANCH  22  25
ENDBRANCH  20  22
ENDBRANCH   1  20
TORSDOF 10
ENDMDL
