MODEL 13
REMARK VINA RESULT: -10.648833790      2.765      3.734
REMARK  5 active torsions:
REMARK  status: ('A' for Active; 'I' for Inactive)
REMARK    1  A    between atoms: C1_2  and  C2_4 
REMARK    2  A    between atoms: C2_4  and  C3_5 
REMARK    3  A    between atoms: N2_8  and  C4_9 
REMARK    4  A    between atoms: C4_9  and  C5_10 
REMARK    5  A    between atoms: C8_15  and  C9_16 
ROOT
HETATM    1  C3  UNL     1      77.098  -4.891  26.637  1.00  0.00     0.047 A 
HETATM    2  N1  UNL     1      77.466  -3.690  26.168  1.00  0.00    -0.298 N 
ATOM      3  H1  UNL     1      78.000  -3.071  26.778  1.00  0.00     0.187 HD
HETATM    4  N2  UNL     1      77.162  -3.267  24.928  1.00  0.00    -0.251 N 
HETATM    5  C13 UNL     1      76.470  -3.995  24.057  1.00  0.00     0.273 A 
HETATM    6  O3  UNL     1      76.169  -3.641  22.908  1.00  0.00    -0.266 OA
HETATM    7  C14 UNL     1      76.058  -5.265  24.498  1.00  0.00     0.046 A 
HETATM    8  C15 UNL     1      75.334  -6.107  23.674  1.00  0.00     0.018 A 
HETATM    9  C16 UNL     1      74.943  -7.346  24.133  1.00  0.00     0.001 A 
HETATM   10  C17 UNL     1      75.274  -7.753  25.420  1.00  0.00     0.001 A 
HETATM   11  C18 UNL     1      75.993  -6.927  26.251  1.00  0.00     0.014 A 
HETATM   12  C19 UNL     1      76.374  -5.694  25.773  1.00  0.00     0.004 A 
ENDROOT
BRANCH   4  13
HETATM   13  C4  UNL     1      77.643  -1.968  24.595  1.00  0.00     0.217 C 
BRANCH  13  14
HETATM   14  C5  UNL     1      76.902  -0.926  25.362  1.00  0.00     0.072 A 
HETATM   15  N3  UNL     1      77.203   0.339  25.518  1.00  0.00    -0.351 N 
HETATM   16  C6  UNL     1      76.458   1.126  26.237  1.00  0.00     0.051 A 
ATOM     17  H3  UNL     1      78.037   0.714  25.067  1.00  0.00     0.166 HD
HETATM   18  C7  UNL     1      76.682   2.501  26.464  1.00  0.00     0.047 A 
HETATM   19  C12 UNL     1      75.348   0.574  26.823  1.00  0.00     0.033 A 
HETATM   20  C8  UNL     1      75.796   3.206  27.245  1.00  0.00     0.050 A 
HETATM   21  C10 UNL     1      74.684   2.660  27.838  1.00  0.00     0.017 A 
HETATM   22  C11 UNL     1      74.465   1.317  27.616  1.00  0.00     0.022 A 
HETATM   23  S1  UNL     1      75.454  -1.059  26.291  1.00  0.00    -0.073 SA
BRANCH  20  24
HETATM   24  C9  UNL     1      76.077   4.673  27.438  1.00  0.00     0.417 C 
HETATM   25  F1  UNL     1      77.233   4.966  26.748  1.00  0.00    -0.166 F 
HETATM   26  F2  UNL     1      76.250   4.929  28.772  1.00  0.00    -0.166 F 
HETATM   27  F3  UNL     1      75.006   5.403  26.900  1.00  0.00    -0.166 F 
ENDBRANCH  20  24
ENDBRANCH  13  14
ENDBRANCH   4  13
BRANCH   1  28
HETATM   28  C2  UNL     1      77.451  -5.338  28.000  1.00  0.00     0.172 C 
BRANCH  28  29
HETATM   29  C1  UNL     1      78.889  -5.699  28.109  1.00  0.00     0.178 C 
HETATM   30  O1  UNL     1      79.575  -5.683  27.052  1.00  0.00    -0.648 OA
HETATM   31  O2  UNL     1      79.402  -6.029  29.342  1.00  0.00    -0.648 OA
ENDBRANCH  28  29
ENDBRANCH   1  28
TORSDOF 5
ENDMDL
