MODEL 17
REMARK VINA RESULT: -10.065219220      2.489      3.455
REMARK  5 active torsions:
REMARK  status: ('A' for Active; 'I' for Inactive)
REMARK    1  A    between atoms: C1_2  and  C2_4 
REMARK    2  A    between atoms: C2_4  and  C3_5 
REMARK    3  A    between atoms: N2_8  and  C4_9 
REMARK    4  A    between atoms: C4_9  and  C5_10 
REMARK    5  A    between atoms: C8_15  and  C9_16 
ROOT
HETATM    1  C3  UNL     1      77.728  -5.102  26.828  1.00  0.00     0.047 A 
HETATM    2  N1  UNL     1      77.949  -3.924  26.225  1.00  0.00    -0.298 N 
ATOM      3  H1  UNL     1      78.636  -3.289  26.631  1.00  0.00     0.187 HD
HETATM    4  N2  UNL     1      77.302  -3.544  25.109  1.00  0.00    -0.251 N 
HETATM    5  C13 UNL     1      76.388  -4.296  24.502  1.00  0.00     0.273 A 
HETATM    6  O3  UNL     1      75.771  -3.982  23.474  1.00  0.00    -0.266 OA
HETATM    7  C14 UNL     1      76.118  -5.543  25.093  1.00  0.00     0.046 A 
HETATM    8  C15 UNL     1      75.186  -6.406  24.547  1.00  0.00     0.018 A 
HETATM    9  C16 UNL     1      74.942  -7.622  25.148  1.00  0.00     0.001 A 
HETATM   10  C17 UNL     1      75.628  -7.984  26.301  1.00  0.00     0.001 A 
HETATM   11  C18 UNL     1      76.556  -7.136  26.857  1.00  0.00     0.014 A 
HETATM   12  C19 UNL     1      76.786  -5.927  26.241  1.00  0.00     0.004 A 
ENDROOT
BRANCH   4  13
HETATM   13  C4  UNL     1      77.669  -2.266  24.599  1.00  0.00     0.217 C 
BRANCH  13  14
HETATM   14  C5  UNL     1      76.950  -1.187  25.336  1.00  0.00     0.072 A 
HETATM   15  N3  UNL     1      77.281   0.074  25.460  1.00  0.00    -0.351 N 
HETATM   16  C6  UNL     1      76.553   0.897  26.154  1.00  0.00     0.051 A 
ATOM     17  H3  UNL     1      78.126   0.417  25.004  1.00  0.00     0.166 HD
HETATM   18  C7  UNL     1      76.809   2.272  26.348  1.00  0.00     0.047 A 
HETATM   19  C12 UNL     1      75.427   0.388  26.749  1.00  0.00     0.033 A 
HETATM   20  C8  UNL     1      75.937   3.018  27.105  1.00  0.00     0.050 A 
HETATM   21  C10 UNL     1      74.809   2.514  27.706  1.00  0.00     0.017 A 
HETATM   22  C11 UNL     1      74.558   1.172  27.518  1.00  0.00     0.022 A 
HETATM   23  S1  UNL     1      75.495  -1.260  26.260  1.00  0.00    -0.073 SA
BRANCH  20  24
HETATM   24  C9  UNL     1      76.252   4.483  27.262  1.00  0.00     0.417 C 
HETATM   25  F1  UNL     1      75.117   5.188  26.926  1.00  0.00    -0.166 F 
HETATM   26  F2  UNL     1      77.279   4.818  26.419  1.00  0.00    -0.166 F 
HETATM   27  F3  UNL     1      76.579   4.723  28.606  1.00  0.00    -0.166 F 
ENDBRANCH  20  24
ENDBRANCH  13  14
ENDBRANCH   4  13
BRANCH   1  28
HETATM   28  C2  UNL     1      78.457  -5.501  28.049  1.00  0.00     0.172 C 
BRANCH  28  29
HETATM   29  C1  UNL     1      79.840  -4.956  28.072  1.00  0.00     0.178 C 
HETATM   30  O1  UNL     1      80.177  -4.269  29.073  1.00  0.00    -0.648 OA
HETATM   31  O2  UNL     1      80.679  -5.221  27.015  1.00  0.00    -0.648 OA
ENDBRANCH  28  29
ENDBRANCH   1  28
TORSDOF 5
ENDMDL
