MODEL 8
REMARK VINA RESULT: -11.067432280      3.963      7.906
REMARK  5 active torsions:
REMARK  status: ('A' for Active; 'I' for Inactive)
REMARK    1  A    between atoms: C1_2  and  C2_4 
REMARK    2  A    between atoms: C2_4  and  C3_5 
REMARK    3  A    between atoms: N2_8  and  C4_9 
REMARK    4  A    between atoms: C4_9  and  C5_10 
REMARK    5  A    between atoms: C8_15  and  C9_16 
ROOT
HETATM    1  C3  UNL     1      76.031   0.816  25.803  1.00  0.00     0.047 A 
HETATM    2  N1  UNL     1      76.704  -0.079  25.064  1.00  0.00    -0.298 N 
ATOM      3  H1  UNL     1      76.245  -0.959  24.826  1.00  0.00     0.187 HD
HETATM    4  N2  UNL     1      77.956   0.133  24.624  1.00  0.00    -0.251 N 
HETATM    5  C13 UNL     1      78.643   1.243  24.880  1.00  0.00     0.273 A 
HETATM    6  O3  UNL     1      79.797   1.476  24.494  1.00  0.00    -0.266 OA
HETATM    7  C14 UNL     1      77.983   2.216  25.653  1.00  0.00     0.046 A 
HETATM    8  C15 UNL     1      78.602   3.409  25.978  1.00  0.00     0.018 A 
HETATM    9  C16 UNL     1      77.932   4.344  26.737  1.00  0.00     0.001 A 
HETATM   10  C17 UNL     1      76.637   4.093  27.176  1.00  0.00     0.001 A 
HETATM   11  C18 UNL     1      76.010   2.912  26.861  1.00  0.00     0.014 A 
HETATM   12  C19 UNL     1      76.696   1.991  26.102  1.00  0.00     0.004 A 
ENDROOT
BRANCH   4  13
HETATM   13  C4  UNL     1      78.513  -0.921  23.844  1.00  0.00     0.217 C 
BRANCH  13  14
HETATM   14  C5  UNL     1      78.518  -2.195  24.619  1.00  0.00     0.072 A 
HETATM   15  N3  UNL     1      77.496  -2.919  25.002  1.00  0.00    -0.351 N 
HETATM   16  C6  UNL     1      77.663  -4.008  25.692  1.00  0.00     0.051 A 
ATOM     17  H3  UNL     1      76.552  -2.623  24.754  1.00  0.00     0.166 HD
HETATM   18  C7  UNL     1      76.638  -4.866  26.149  1.00  0.00     0.047 A 
HETATM   19  C12 UNL     1      78.951  -4.363  26.001  1.00  0.00     0.033 A 
HETATM   20  C8  UNL     1      76.974  -5.991  26.865  1.00  0.00     0.050 A 
HETATM   21  C10 UNL     1      78.261  -6.351  27.180  1.00  0.00     0.017 A 
HETATM   22  C11 UNL     1      79.261  -5.514  26.735  1.00  0.00     0.022 A 
HETATM   23  S1  UNL     1      79.844  -3.089  25.266  1.00  0.00    -0.073 SA
BRANCH  20  24
HETATM   24  C9  UNL     1      75.840  -6.878  27.310  1.00  0.00     0.417 C 
HETATM   25  F1  UNL     1      75.791  -6.825  28.686  1.00  0.00    -0.166 F 
HETATM   26  F2  UNL     1      76.081  -8.162  26.899  1.00  0.00    -0.166 F 
HETATM   27  F3  UNL     1      74.647  -6.372  26.773  1.00  0.00    -0.166 F 
ENDBRANCH  20  24
ENDBRANCH  13  14
ENDBRANCH   4  13
BRANCH   1  28
HETATM   28  C2  UNL     1      74.652   0.564  26.268  1.00  0.00     0.172 C 
BRANCH  28  29
HETATM   29  C1  UNL     1      74.582  -0.595  27.196  1.00  0.00     0.178 C 
HETATM   30  O1  UNL     1      75.277  -1.608  26.914  1.00  0.00    -0.648 OA
HETATM   31  O2  UNL     1      73.775  -0.513  28.307  1.00  0.00    -0.648 OA
ENDBRANCH  28  29
ENDBRANCH   1  28
TORSDOF 5
ENDMDL
