MODEL 7
REMARK VINA RESULT: -11.230560469      4.255      8.268
REMARK  5 active torsions:
REMARK  status: ('A' for Active; 'I' for Inactive)
REMARK    1  A    between atoms: C1_2  and  C2_4 
REMARK    2  A    between atoms: C2_4  and  C3_5 
REMARK    3  A    between atoms: N2_8  and  C4_9 
REMARK    4  A    between atoms: C4_9  and  C5_10 
REMARK    5  A    between atoms: C8_15  and  C9_16 
ROOT
HETATM    1  C3  UNL     1      76.087   0.711  25.741  1.00  0.00     0.047 A 
HETATM    2  N1  UNL     1      76.727  -0.230  25.031  1.00  0.00    -0.298 N 
ATOM      3  H1  UNL     1      76.235  -1.096  24.813  1.00  0.00     0.187 HD
HETATM    4  N2  UNL     1      77.990  -0.080  24.593  1.00  0.00    -0.251 N 
HETATM    5  C13 UNL     1      78.719   1.009  24.824  1.00  0.00     0.273 A 
HETATM    6  O3  UNL     1      79.883   1.185  24.439  1.00  0.00    -0.266 OA
HETATM    7  C14 UNL     1      78.094   2.028  25.565  1.00  0.00     0.046 A 
HETATM    8  C15 UNL     1      78.758   3.204  25.863  1.00  0.00     0.018 A 
HETATM    9  C16 UNL     1      78.122   4.185  26.591  1.00  0.00     0.001 A 
HETATM   10  C17 UNL     1      76.816   3.998  27.028  1.00  0.00     0.001 A 
HETATM   11  C18 UNL     1      76.143   2.834  26.742  1.00  0.00     0.014 A 
HETATM   12  C19 UNL     1      76.796   1.867  26.012  1.00  0.00     0.004 A 
ENDROOT
BRANCH   4  13
HETATM   13  C4  UNL     1      78.508  -1.175  23.845  1.00  0.00     0.217 C 
BRANCH  13  14
HETATM   14  C5  UNL     1      78.649  -2.378  24.715  1.00  0.00     0.072 A 
HETATM   15  N3  UNL     1      79.721  -2.822  25.323  1.00  0.00    -0.351 N 
HETATM   16  C6  UNL     1      79.689  -3.905  26.041  1.00  0.00     0.051 A 
ATOM     17  H3  UNL     1      80.597  -2.308  25.232  1.00  0.00     0.166 HD
HETATM   18  C7  UNL     1      80.777  -4.467  26.744  1.00  0.00     0.047 A 
HETATM   19  C12 UNL     1      78.488  -4.560  26.133  1.00  0.00     0.033 A 
HETATM   20  C8  UNL     1      80.584  -5.619  27.471  1.00  0.00     0.050 A 
HETATM   21  C10 UNL     1      79.385  -6.282  27.565  1.00  0.00     0.017 A 
HETATM   22  C11 UNL     1      78.323  -5.734  26.879  1.00  0.00     0.022 A 
HETATM   23  S1  UNL     1      77.475  -3.559  25.168  1.00  0.00    -0.073 SA
BRANCH  20  24
HETATM   24  C9  UNL     1      81.777  -6.162  28.214  1.00  0.00     0.417 C 
HETATM   25  F1  UNL     1      82.853  -6.121  27.354  1.00  0.00    -0.166 F 
HETATM   26  F2  UNL     1      81.526  -7.455  28.590  1.00  0.00    -0.166 F 
HETATM   27  F3  UNL     1      82.023  -5.334  29.321  1.00  0.00    -0.166 F 
ENDBRANCH  20  24
ENDBRANCH  13  14
ENDBRANCH   4  13
BRANCH   1  28
HETATM   28  C2  UNL     1      74.696   0.527  26.203  1.00  0.00     0.172 C 
BRANCH  28  29
HETATM   29  C1  UNL     1      74.581  -0.581  27.187  1.00  0.00     0.178 C 
HETATM   30  O1  UNL     1      75.274  -1.614  26.983  1.00  0.00    -0.648 OA
HETATM   31  O2  UNL     1      73.736  -0.434  28.262  1.00  0.00    -0.648 OA
ENDBRANCH  28  29
ENDBRANCH   1  28
TORSDOF 5
ENDMDL
