MODEL 20
REMARK VINA RESULT: -9.844472129      3.172      4.539
REMARK  5 active torsions:
REMARK  status: ('A' for Active; 'I' for Inactive)
REMARK    1  A    between atoms: C1_2  and  C2_4 
REMARK    2  A    between atoms: C2_4  and  C3_5 
REMARK    3  A    between atoms: N2_8  and  C4_9 
REMARK    4  A    between atoms: C4_9  and  C5_10 
REMARK    5  A    between atoms: C8_15  and  C9_16 
ROOT
HETATM    1  C3  UNL     1      76.895  -6.215  26.058  1.00  0.00     0.047 A 
HETATM    2  N1  UNL     1      77.545  -5.174  25.516  1.00  0.00    -0.298 N 
ATOM      3  H1  UNL     1      78.328  -4.768  26.028  1.00  0.00     0.187 HD
HETATM    4  N2  UNL     1      77.209  -4.644  24.326  1.00  0.00    -0.251 N 
HETATM    5  C13 UNL     1      76.205  -5.098  23.581  1.00  0.00     0.273 A 
HETATM    6  O3  UNL     1      75.865  -4.637  22.482  1.00  0.00    -0.266 OA
HETATM    7  C14 UNL     1      75.489  -6.190  24.103  1.00  0.00     0.046 A 
HETATM    8  C15 UNL     1      74.427  -6.743  23.412  1.00  0.00     0.018 A 
HETATM    9  C16 UNL     1      73.743  -7.812  23.949  1.00  0.00     0.001 A 
HETATM   10  C17 UNL     1      74.115  -8.336  25.180  1.00  0.00     0.001 A 
HETATM   11  C18 UNL     1      75.168  -7.797  25.879  1.00  0.00     0.014 A 
HETATM   12  C19 UNL     1      75.839  -6.729  25.326  1.00  0.00     0.004 A 
ENDROOT
BRANCH   4  13
HETATM   13  C4  UNL     1      78.015  -3.549  23.900  1.00  0.00     0.217 C 
BRANCH  13  14
HETATM   14  C5  UNL     1      77.557  -2.285  24.543  1.00  0.00     0.072 A 
HETATM   15  N3  UNL     1      78.133  -1.109  24.527  1.00  0.00    -0.351 N 
HETATM   16  C6  UNL     1      77.614  -0.096  25.156  1.00  0.00     0.051 A 
ATOM     17  H3  UNL     1      79.004  -0.985  24.012  1.00  0.00     0.166 HD
HETATM   18  C7  UNL     1      78.142   1.213  25.199  1.00  0.00     0.047 A 
HETATM   19  C12 UNL     1      76.442  -0.313  25.834  1.00  0.00     0.033 A 
HETATM   20  C8  UNL     1      77.470   2.186  25.903  1.00  0.00     0.050 A 
HETATM   21  C10 UNL     1      76.299   1.975  26.587  1.00  0.00     0.017 A 
HETATM   22  C11 UNL     1      75.783   0.697  26.546  1.00  0.00     0.022 A 
HETATM   23  S1  UNL     1      76.164  -1.981  25.516  1.00  0.00    -0.073 SA
BRANCH  20  24
HETATM   24  C9  UNL     1      78.072   3.567  25.898  1.00  0.00     0.417 C 
HETATM   25  F1  UNL     1      79.060   3.590  26.859  1.00  0.00    -0.166 F 
HETATM   26  F2  UNL     1      77.101   4.485  26.202  1.00  0.00    -0.166 F 
HETATM   27  F3  UNL     1      78.634   3.800  24.634  1.00  0.00    -0.166 F 
ENDBRANCH  20  24
ENDBRANCH  13  14
ENDBRANCH   4  13
BRANCH   1  28
HETATM   28  C2  UNL     1      77.287  -6.786  27.362  1.00  0.00     0.172 C 
BRANCH  28  29
HETATM   29  C1  UNL     1      77.905  -5.767  28.250  1.00  0.00     0.178 C 
HETATM   30  O1  UNL     1      77.338  -4.644  28.328  1.00  0.00    -0.648 OA
HETATM   31  O2  UNL     1      79.050  -6.089  28.939  1.00  0.00    -0.648 OA
ENDBRANCH  28  29
ENDBRANCH   1  28
TORSDOF 5
ENDMDL
