MODEL 10
REMARK VINA RESULT: -10.992349746      4.537      7.865
REMARK  5 active torsions:
REMARK  status: ('A' for Active; 'I' for Inactive)
REMARK    1  A    between atoms: C1_2  and  C2_4 
REMARK    2  A    between atoms: C2_4  and  C3_5 
REMARK    3  A    between atoms: N2_8  and  C4_9 
REMARK    4  A    between atoms: C4_9  and  C5_10 
REMARK    5  A    between atoms: C8_15  and  C9_16 
ROOT
HETATM    1  C3  UNL     1      77.346   1.098  25.444  1.00  0.00     0.047 A 
HETATM    2  N1  UNL     1      77.772  -0.006  24.812  1.00  0.00    -0.298 N 
ATOM      3  H1  UNL     1      78.583   0.065  24.198  1.00  0.00     0.187 HD
HETATM    4  N2  UNL     1      77.176  -1.203  24.953  1.00  0.00    -0.251 N 
HETATM    5  C13 UNL     1      76.112  -1.403  25.728  1.00  0.00     0.273 A 
HETATM    6  O3  UNL     1      75.535  -2.488  25.883  1.00  0.00    -0.266 OA
HETATM    7  C14 UNL     1      75.624  -0.277  26.414  1.00  0.00     0.046 A 
HETATM    8  C15 UNL     1      74.525  -0.370  27.247  1.00  0.00     0.018 A 
HETATM    9  C16 UNL     1      74.068   0.750  27.907  1.00  0.00     0.001 A 
HETATM   10  C17 UNL     1      74.708   1.973  27.739  1.00  0.00     0.001 A 
HETATM   11  C18 UNL     1      75.801   2.081  26.914  1.00  0.00     0.014 A 
HETATM   12  C19 UNL     1      76.242   0.950  26.264  1.00  0.00     0.004 A 
ENDROOT
BRANCH   4  13
HETATM   13  C4  UNL     1      77.768  -2.268  24.216  1.00  0.00     0.217 C 
BRANCH  13  14
HETATM   14  C5  UNL     1      78.166  -3.376  25.130  1.00  0.00     0.072 A 
HETATM   15  N3  UNL     1      79.337  -3.607  25.668  1.00  0.00    -0.351 N 
HETATM   16  C6  UNL     1      79.534  -4.635  26.440  1.00  0.00     0.051 A 
ATOM     17  H3  UNL     1      80.110  -2.969  25.479  1.00  0.00     0.166 HD
HETATM   18  C7  UNL     1      80.747  -4.974  27.078  1.00  0.00     0.047 A 
HETATM   19  C12 UNL     1      78.465  -5.463  26.665  1.00  0.00     0.033 A 
HETATM   20  C8  UNL     1      80.797  -6.093  27.875  1.00  0.00     0.050 A 
HETATM   21  C10 UNL     1      79.732  -6.929  28.102  1.00  0.00     0.017 A 
HETATM   22  C11 UNL     1      78.547  -6.599  27.480  1.00  0.00     0.022 A 
HETATM   23  S1  UNL     1      77.234  -4.696  25.738  1.00  0.00    -0.073 SA
BRANCH  20  24
HETATM   24  C9  UNL     1      82.114  -6.395  28.543  1.00  0.00     0.417 C 
HETATM   25  F1  UNL     1      82.091  -7.720  28.920  1.00  0.00    -0.166 F 
HETATM   26  F2  UNL     1      82.255  -5.596  29.646  1.00  0.00    -0.166 F 
HETATM   27  F3  UNL     1      83.140  -6.185  27.610  1.00  0.00    -0.166 F 
ENDBRANCH  20  24
ENDBRANCH  13  14
ENDBRANCH   4  13
BRANCH   1  28
HETATM   28  C2  UNL     1      78.024   2.400  25.280  1.00  0.00     0.172 C 
BRANCH  28  29
HETATM   29  C1  UNL     1      78.995   2.382  24.155  1.00  0.00     0.178 C 
HETATM   30  O1  UNL     1      78.801   3.188  23.206  1.00  0.00    -0.648 OA
HETATM   31  O2  UNL     1      80.049   1.499  24.198  1.00  0.00    -0.648 OA
ENDBRANCH  28  29
ENDBRANCH   1  28
TORSDOF 5
ENDMDL
