MODEL 7
REMARK VINA RESULT: -6.979506292      1.729      4.659
REMARK  4 active torsions:
REMARK  status: ('A' for Active; 'I' for Inactive)
REMARK    1  A    between atoms: C4_8  and  C5_9 
REMARK    2  A    between atoms: C5_9  and  C6_10 
REMARK    3  A    between atoms: C6_10  and  N2_11 
REMARK    4  A    between atoms: C6_10  and  C7_15 
ROOT
HETATM    1  C5  UNL     1      78.321  26.247  40.399  1.00  0.00     0.091 C 
ENDROOT
BRANCH   1   2
HETATM    2  C4  UNL     1      77.341  26.365  41.490  1.00  0.00     0.045 A 
HETATM    3  C2  UNL     1      76.656  27.498  41.875  1.00  0.00     0.084 A 
HETATM    4  C1  UNL     1      76.753  28.869  41.266  1.00  0.00     0.079 C 
HETATM    5  O1  UNL     1      75.902  27.133  42.882  1.00  0.00    -0.239 OA
HETATM    6  N1  UNL     1      76.043  25.875  43.173  1.00  0.00    -0.225 N 
HETATM    7  C3  UNL     1      76.937  25.352  42.325  1.00  0.00     0.274 A 
ATOM      8  H1  UNL     1      75.557  25.374  43.917  1.00  0.00     0.198 HD
HETATM    9  O2  UNL     1      77.304  24.138  42.341  1.00  0.00    -0.266 OA
ENDBRANCH   1   2
BRANCH   1  10
HETATM   10  C6  UNL     1      77.718  25.890  39.069  1.00  0.00     0.287 C 
BRANCH  10  11
HETATM   11  N2  UNL     1      78.420  24.816  38.405  1.00  0.00    -0.065 N 
ATOM     12  H23 UNL     1      78.985  25.172  37.634  1.00  0.00     0.275 HD
ATOM     13  H22 UNL     1      79.162  24.443  38.997  1.00  0.00     0.275 HD
ATOM     14  H21 UNL     1      77.797  24.072  38.088  1.00  0.00     0.275 HD
ENDBRANCH  10  11
BRANCH  10  15
HETATM   15  C7  UNL     1      77.779  27.117  38.227  1.00  0.00     0.204 C 
HETATM   16  O3  UNL     1      76.704  27.666  37.875  1.00  0.00    -0.646 OA
HETATM   17  O4  UNL     1      78.956  27.705  37.797  1.00  0.00    -0.646 OA
ENDBRANCH  10  15
ENDBRANCH   1  10
TORSDOF 4
ENDMDL
