MODEL 1
REMARK VINA RESULT: -7.883586831      0.000      0.000
REMARK  4 active torsions:
REMARK  status: ('A' for Active; 'I' for Inactive)
REMARK    1  A    between atoms: C4_8  and  C5_9 
REMARK    2  A    between atoms: C5_9  and  C6_10 
REMARK    3  A    between atoms: C6_10  and  N2_11 
REMARK    4  A    between atoms: C6_10  and  C7_15 
ROOT
HETATM    1  C5  UNL     1      77.405  27.017  42.431  1.00  0.00     0.091 C 
ENDROOT
BRANCH   1   2
HETATM    2  C4  UNL     1      77.436  26.967  40.961  1.00  0.00     0.045 A 
HETATM    3  C2  UNL     1      77.107  27.980  40.087  1.00  0.00     0.084 A 
HETATM    4  C1  UNL     1      76.644  29.368  40.436  1.00  0.00     0.079 C 
HETATM    5  O1  UNL     1      77.282  27.486  38.886  1.00  0.00    -0.239 OA
HETATM    6  N1  UNL     1      77.691  26.254  38.916  1.00  0.00    -0.225 N 
HETATM    7  C3  UNL     1      77.802  25.885  40.198  1.00  0.00     0.274 A 
ATOM      8  H1  UNL     1      77.893  25.669  38.105  1.00  0.00     0.198 HD
HETATM    9  O2  UNL     1      78.179  24.735  40.576  1.00  0.00    -0.266 OA
ENDBRANCH   1   2
BRANCH   1  10
HETATM   10  C6  UNL     1      76.138  26.483  43.037  1.00  0.00     0.287 C 
BRANCH  10  11
HETATM   11  N2  UNL     1      75.063  27.448  43.033  1.00  0.00    -0.065 N 
ATOM     12  H23 UNL     1      75.340  28.301  42.548  1.00  0.00     0.275 HD
ATOM     13  H22 UNL     1      74.305  27.147  42.420  1.00  0.00     0.275 HD
ATOM     14  H21 UNL     1      74.714  27.657  43.969  1.00  0.00     0.275 HD
ENDBRANCH  10  11
BRANCH  10  15
HETATM   15  C7  UNL     1      76.459  26.106  44.442  1.00  0.00     0.204 C 
HETATM   16  O3  UNL     1      77.303  25.196  44.649  1.00  0.00    -0.646 OA
HETATM   17  O4  UNL     1      75.885  26.697  45.555  1.00  0.00    -0.646 OA
ENDBRANCH  10  15
ENDBRANCH   1  10
TORSDOF 4
ENDMDL
