MODEL 2
REMARK VINA RESULT: -7.288393001      1.931      6.492
REMARK  4 active torsions:
REMARK  status: ('A' for Active; 'I' for Inactive)
REMARK    1  A    between atoms: O1_2  and  C2_3 
REMARK    2  A    between atoms: C3_4  and  O2_5 
REMARK    3  A    between atoms: C9_12  and  N1_13 
REMARK    4  A    between atoms: C11_17  and  C12_18 
ROOT
HETATM    1  C2  UNL     1      16.373  22.901  39.288  1.00  0.00     0.112 A 
HETATM    2  C3  UNL     1      17.689  22.787  38.946  1.00  0.00     0.099 A 
HETATM    3  C4  UNL     1      18.639  22.605  39.926  1.00  0.00     0.040 A 
HETATM    4  C5  UNL     1      18.283  22.534  41.256  1.00  0.00     0.016 A 
HETATM    5  C6  UNL     1      16.960  22.647  41.606  1.00  0.00    -0.009 A 
HETATM    6  C7  UNL     1      15.991  22.832  40.623  1.00  0.00     0.014 A 
HETATM    7  C8  UNL     1      14.689  22.945  40.936  1.00  0.00     0.052 A 
HETATM    8  C9  UNL     1      14.265  22.882  42.275  1.00  0.00     0.116 A 
HETATM    9  C10 UNL     1      15.179  22.721  43.262  1.00  0.00     0.028 A 
HETATM   10  C11 UNL     1      14.778  22.712  44.552  1.00  0.00     0.057 A 
HETATM   11  C13 UNL     1      15.748  22.543  45.568  1.00  0.00     0.059 A 
HETATM   12  C14 UNL     1      17.064  22.407  45.252  1.00  0.00     0.107 A 
HETATM   13  C15 UNL     1      17.492  22.432  43.934  1.00  0.00     0.117 A 
HETATM   14  C16 UNL     1      16.555  22.593  42.931  1.00  0.00     0.025 A 
HETATM   15  O7  UNL     1      18.865  22.279  43.925  1.00  0.00    -0.322 OA
HETATM   16  C17 UNL     1      19.282  21.838  45.183  1.00  0.00     0.352 C 
HETATM   17  O8  UNL     1      18.229  22.227  46.021  1.00  0.00    -0.323 OA
ENDROOT
BRANCH   8  18
HETATM   18  N1  UNL     1      12.858  22.838  42.389  1.00  0.00    -0.115 N 
HETATM   19  O3  UNL     1      12.311  21.694  42.513  1.00  0.00    -0.532 OA
HETATM   20  O4  UNL     1      12.022  23.880  42.378  1.00  0.00    -0.532 OA
ENDBRANCH   8  18
BRANCH  10  21
HETATM   21  C12 UNL     1      13.488  23.204  45.056  1.00  0.00     0.210 C 
HETATM   22  O5  UNL     1      12.510  22.461  45.291  1.00  0.00    -0.644 OA
HETATM   23  O6  UNL     1      13.393  24.582  45.295  1.00  0.00    -0.644 OA
ENDBRANCH  10  21
BRANCH   1  24
HETATM   24  O1  UNL     1      15.398  23.089  38.288  1.00  0.00    -0.352 OA
HETATM   25  C1  UNL     1      15.224  24.460  37.911  1.00  0.00     0.210 C 
ENDBRANCH   1  24
BRANCH   2  26
HETATM   26  O2  UNL     1      18.017  22.866  37.588  1.00  0.00    -0.358 OA
ATOM     27  H2  UNL     1      18.387  23.681  37.271  1.00  0.00     0.217 HD
ENDBRANCH   2  26
TORSDOF 4
ENDMDL
