MODEL 4
REMARK VINA RESULT: -7.135185249      1.488      5.228
REMARK  4 active torsions:
REMARK  status: ('A' for Active; 'I' for Inactive)
REMARK    1  A    between atoms: O1_2  and  C2_3 
REMARK    2  A    between atoms: C3_4  and  O2_5 
REMARK    3  A    between atoms: C9_12  and  N1_13 
REMARK    4  A    between atoms: C11_17  and  C12_18 
ROOT
HETATM    1  C2  UNL     1      13.665  22.952  41.185  1.00  0.00     0.112 A 
HETATM    2  C3  UNL     1      12.357  22.958  41.575  1.00  0.00     0.099 A 
HETATM    3  C4  UNL     1      12.041  22.949  42.915  1.00  0.00     0.040 A 
HETATM    4  C5  UNL     1      13.028  22.935  43.878  1.00  0.00     0.016 A 
HETATM    5  C6  UNL     1      14.345  22.930  43.492  1.00  0.00    -0.009 A 
HETATM    6  C7  UNL     1      14.677  22.937  42.139  1.00  0.00     0.014 A 
HETATM    7  C8  UNL     1      15.957  22.933  41.732  1.00  0.00     0.052 A 
HETATM    8  C9  UNL     1      17.007  22.917  42.667  1.00  0.00     0.116 A 
HETATM    9  C10 UNL     1      16.726  22.891  43.993  1.00  0.00     0.028 A 
HETATM   10  C11 UNL     1      17.734  22.823  44.890  1.00  0.00     0.057 A 
HETATM   11  C13 UNL     1      17.419  22.795  46.269  1.00  0.00     0.059 A 
HETATM   12  C14 UNL     1      16.123  22.821  46.684  1.00  0.00     0.107 A 
HETATM   13  C15 UNL     1      15.079  22.873  45.774  1.00  0.00     0.117 A 
HETATM   14  C16 UNL     1      15.372  22.904  44.423  1.00  0.00     0.025 A 
HETATM   15  O7  UNL     1      13.892  22.881  46.481  1.00  0.00    -0.322 OA
HETATM   16  C17 UNL     1      14.165  23.159  47.823  1.00  0.00     0.352 C 
HETATM   17  O8  UNL     1      15.514  22.807  47.953  1.00  0.00    -0.323 OA
ENDROOT
BRANCH   8  18
HETATM   18  N1  UNL     1      18.268  23.097  42.059  1.00  0.00    -0.115 N 
HETATM   19  O3  UNL     1      18.831  22.073  41.549  1.00  0.00    -0.532 OA
HETATM   20  O4  UNL     1      18.952  24.241  41.957  1.00  0.00    -0.532 OA
ENDBRANCH   8  18
BRANCH  10  21
HETATM   21  C12 UNL     1      19.119  22.424  44.602  1.00  0.00     0.210 C 
HETATM   22  O5  UNL     1      20.054  23.240  44.451  1.00  0.00    -0.644 OA
HETATM   23  O6  UNL     1      19.370  21.048  44.520  1.00  0.00    -0.644 OA
ENDBRANCH  10  21
BRANCH   1  24
HETATM   24  O1  UNL     1      13.993  22.960  39.815  1.00  0.00    -0.352 OA
HETATM   25  C1  UNL     1      14.103  21.650  39.248  1.00  0.00     0.210 C 
ENDBRANCH   1  24
BRANCH   2  26
HETATM   26  O2  UNL     1      11.381  22.971  40.574  1.00  0.00    -0.358 OA
ATOM     27  H2  UNL     1      11.658  23.182  39.690  1.00  0.00     0.217 HD
ENDBRANCH   2  26
TORSDOF 4
ENDMDL
