MODEL 1
REMARK VINA RESULT: -8.672468651      0.000      0.000
REMARK  4 active torsions:
REMARK  status: ('A' for Active; 'I' for Inactive)
REMARK    1  A    between atoms: O1_2  and  C2_3 
REMARK    2  A    between atoms: C3_4  and  O2_5 
REMARK    3  A    between atoms: C9_12  and  N1_13 
REMARK    4  A    between atoms: C11_17  and  C12_18 
ROOT
HETATM    1  C2  UNL     1      17.083  23.074  45.893  1.00  0.00     0.112 A 
HETATM    2  C3  UNL     1      16.146  23.120  46.884  1.00  0.00     0.099 A 
HETATM    3  C4  UNL     1      14.809  23.169  46.562  1.00  0.00     0.040 A 
HETATM    4  C5  UNL     1      14.394  23.171  45.247  1.00  0.00     0.016 A 
HETATM    5  C6  UNL     1      15.331  23.123  44.246  1.00  0.00    -0.009 A 
HETATM    6  C7  UNL     1      16.687  23.075  44.560  1.00  0.00     0.014 A 
HETATM    7  C8  UNL     1      17.627  23.027  43.601  1.00  0.00     0.052 A 
HETATM    8  C9  UNL     1      17.266  23.028  42.242  1.00  0.00     0.116 A 
HETATM    9  C10 UNL     1      15.957  23.093  41.895  1.00  0.00     0.028 A 
HETATM   10  C11 UNL     1      15.612  23.146  40.590  1.00  0.00     0.057 A 
HETATM   11  C13 UNL     1      14.241  23.215  40.248  1.00  0.00     0.059 A 
HETATM   12  C14 UNL     1      13.287  23.241  41.218  1.00  0.00     0.107 A 
HETATM   13  C15 UNL     1      13.627  23.205  42.561  1.00  0.00     0.117 A 
HETATM   14  C16 UNL     1      14.963  23.135  42.909  1.00  0.00     0.025 A 
HETATM   15  O7  UNL     1      12.462  23.252  43.301  1.00  0.00    -0.322 OA
HETATM   16  C17 UNL     1      11.378  22.994  42.459  1.00  0.00     0.352 C 
HETATM   17  O8  UNL     1      11.881  23.304  41.189  1.00  0.00    -0.323 OA
ENDROOT
BRANCH   8  18
HETATM   18  N1  UNL     1      18.370  22.792  41.395  1.00  0.00    -0.115 N 
HETATM   19  O3  UNL     1      19.229  23.726  41.270  1.00  0.00    -0.532 OA
HETATM   20  O4  UNL     1      18.619  21.681  40.695  1.00  0.00    -0.532 OA
ENDBRANCH   8  18
BRANCH  10  21
HETATM   21  C12 UNL     1      16.507  23.492  39.476  1.00  0.00     0.210 C 
HETATM   22  O5  UNL     1      16.851  22.678  38.590  1.00  0.00    -0.644 OA
HETATM   23  O6  UNL     1      16.961  24.817  39.425  1.00  0.00    -0.644 OA
ENDBRANCH  10  21
BRANCH   1  24
HETATM   24  O1  UNL     1      18.452  23.025  46.219  1.00  0.00    -0.352 OA
HETATM   25  C1  UNL     1      18.999  21.701  46.191  1.00  0.00     0.210 C 
ENDBRANCH   1  24
BRANCH   2  26
HETATM   26  O2  UNL     1      16.600  23.119  48.208  1.00  0.00    -0.358 OA
ATOM     27  H2  UNL     1      15.952  23.208  48.896  1.00  0.00     0.217 HD
ENDBRANCH   2  26
TORSDOF 4
ENDMDL
