MODEL 18
REMARK VINA RESULT: -6.087636965      1.246      1.748
REMARK  4 active torsions:
REMARK  status: ('A' for Active; 'I' for Inactive)
REMARK    1  A    between atoms: O1_2  and  C2_3 
REMARK    2  A    between atoms: C3_4  and  O2_5 
REMARK    3  A    between atoms: C9_12  and  N1_13 
REMARK    4  A    between atoms: C11_17  and  C12_18 
ROOT
HETATM    1  C2  UNL     1      15.456  22.739  46.380  1.00  0.00     0.112 A 
HETATM    2  C3  UNL     1      14.206  22.754  46.926  1.00  0.00     0.099 A 
HETATM    3  C4  UNL     1      13.102  22.867  46.111  1.00  0.00     0.040 A 
HETATM    4  C5  UNL     1      13.237  22.964  44.742  1.00  0.00     0.016 A 
HETATM    5  C6  UNL     1      14.492  22.949  44.187  1.00  0.00    -0.009 A 
HETATM    6  C7  UNL     1      15.615  22.837  45.002  1.00  0.00     0.014 A 
HETATM    7  C8  UNL     1      16.856  22.818  44.486  1.00  0.00     0.052 A 
HETATM    8  C9  UNL     1      17.057  22.916  43.098  1.00  0.00     0.116 A 
HETATM    9  C10 UNL     1      15.990  23.045  42.272  1.00  0.00     0.028 A 
HETATM   10  C11 UNL     1      16.185  23.191  40.943  1.00  0.00     0.057 A 
HETATM   11  C13 UNL     1      15.059  23.326  40.098  1.00  0.00     0.059 A 
HETATM   12  C14 UNL     1      13.801  23.323  40.617  1.00  0.00     0.107 A 
HETATM   13  C15 UNL     1      13.586  23.192  41.980  1.00  0.00     0.117 A 
HETATM   14  C16 UNL     1      14.678  23.056  42.817  1.00  0.00     0.025 A 
HETATM   15  O7  UNL     1      12.224  23.230  42.207  1.00  0.00    -0.322 OA
HETATM   16  C17 UNL     1      11.556  23.061  40.992  1.00  0.00     0.352 C 
HETATM   17  O8  UNL     1      12.519  23.433  40.045  1.00  0.00    -0.323 OA
ENDROOT
BRANCH   8  18
HETATM   18  N1  UNL     1      18.404  22.698  42.736  1.00  0.00    -0.115 N 
HETATM   19  O3  UNL     1      18.740  21.516  42.396  1.00  0.00    -0.532 OA
HETATM   20  O4  UNL     1      19.384  23.606  42.712  1.00  0.00    -0.532 OA
ENDBRANCH   8  18
BRANCH  10  21
HETATM   21  C12 UNL     1      17.447  23.576  40.295  1.00  0.00     0.210 C 
HETATM   22  O5  UNL     1      17.925  24.730  40.347  1.00  0.00    -0.644 OA
HETATM   23  O6  UNL     1      18.133  22.564  39.609  1.00  0.00    -0.644 OA
ENDBRANCH  10  21
BRANCH   1  24
HETATM   24  O1  UNL     1      16.588  22.625  47.211  1.00  0.00    -0.352 OA
HETATM   25  C1  UNL     1      16.933  23.847  47.875  1.00  0.00     0.210 C 
ENDBRANCH   1  24
BRANCH   2  26
HETATM   26  O2  UNL     1      14.104  22.655  48.318  1.00  0.00    -0.358 OA
ATOM     27  H2  UNL     1      13.275  22.368  48.680  1.00  0.00     0.217 HD
ENDBRANCH   2  26
TORSDOF 4
ENDMDL
