MODEL 3
REMARK VINA RESULT: -7.216289383      1.568      2.076
REMARK  4 active torsions:
REMARK  status: ('A' for Active; 'I' for Inactive)
REMARK    1  A    between atoms: O1_2  and  C2_3 
REMARK    2  A    between atoms: C3_4  and  O2_5 
REMARK    3  A    between atoms: C9_12  and  N1_13 
REMARK    4  A    between atoms: C11_17  and  C12_18 
ROOT
HETATM    1  C2  UNL     1      18.918  22.617  44.017  1.00  0.00     0.112 A 
HETATM    2  C3  UNL     1      18.620  22.554  45.347  1.00  0.00     0.099 A 
HETATM    3  C4  UNL     1      17.309  22.615  45.761  1.00  0.00     0.040 A 
HETATM    4  C5  UNL     1      16.281  22.739  44.849  1.00  0.00     0.016 A 
HETATM    5  C6  UNL     1      16.574  22.802  43.510  1.00  0.00    -0.009 A 
HETATM    6  C7  UNL     1      17.898  22.742  43.080  1.00  0.00     0.014 A 
HETATM    7  C8  UNL     1      18.214  22.800  41.776  1.00  0.00     0.052 A 
HETATM    8  C9  UNL     1      17.210  22.929  40.800  1.00  0.00     0.116 A 
HETATM    9  C10 UNL     1      15.911  23.008  41.178  1.00  0.00     0.028 A 
HETATM   10  C11 UNL     1      14.951  23.183  40.244  1.00  0.00     0.057 A 
HETATM   11  C13 UNL     1      13.601  23.266  40.660  1.00  0.00     0.059 A 
HETATM   12  C14 UNL     1      13.277  23.185  41.979  1.00  0.00     0.107 A 
HETATM   13  C15 UNL     1      14.253  23.023  42.949  1.00  0.00     0.117 A 
HETATM   14  C16 UNL     1      15.576  22.938  42.557  1.00  0.00     0.025 A 
HETATM   15  O7  UNL     1      13.632  22.982  44.182  1.00  0.00    -0.322 OA
HETATM   16  C17 UNL     1      12.261  22.792  43.994  1.00  0.00     0.352 C 
HETATM   17  O8  UNL     1      12.057  23.230  42.679  1.00  0.00    -0.323 OA
ENDROOT
BRANCH   8  18
HETATM   18  N1  UNL     1      17.718  22.791  39.489  1.00  0.00    -0.115 N 
HETATM   19  O3  UNL     1      18.068  23.853  38.877  1.00  0.00    -0.532 OA
HETATM   20  O4  UNL     1      17.872  21.653  38.806  1.00  0.00    -0.532 OA
ENDBRANCH   8  18
BRANCH  10  21
HETATM   21  C12 UNL     1      15.163  23.648  38.866  1.00  0.00     0.210 C 
HETATM   22  O5  UNL     1      15.157  22.887  37.873  1.00  0.00    -0.644 OA
HETATM   23  O6  UNL     1      15.361  25.025  38.692  1.00  0.00    -0.644 OA
ENDBRANCH  10  21
BRANCH   1  24
HETATM   24  O1  UNL     1      20.259  22.556  43.590  1.00  0.00    -0.352 OA
HETATM   25  C1  UNL     1      20.980  23.776  43.798  1.00  0.00     0.210 C 
ENDBRANCH   1  24
BRANCH   2  26
HETATM   26  O2  UNL     1      19.686  22.430  46.246  1.00  0.00    -0.358 OA
ATOM     27  H2  UNL     1      20.015  21.557  46.422  1.00  0.00     0.217 HD
ENDBRANCH   2  26
TORSDOF 4
ENDMDL
