MODEL 7
REMARK VINA RESULT: -6.903199630      1.716      5.187
REMARK  4 active torsions:
REMARK  status: ('A' for Active; 'I' for Inactive)
REMARK    1  A    between atoms: O1_2  and  C2_3 
REMARK    2  A    between atoms: C3_4  and  O2_5 
REMARK    3  A    between atoms: C9_12  and  N1_13 
REMARK    4  A    between atoms: C11_17  and  C12_18 
ROOT
HETATM    1  C2  UNL     1      12.903  22.845  43.540  1.00  0.00     0.112 A 
HETATM    2  C3  UNL     1      12.099  23.124  42.473  1.00  0.00     0.099 A 
HETATM    3  C4  UNL     1      12.654  23.316  41.228  1.00  0.00     0.040 A 
HETATM    4  C5  UNL     1      14.017  23.231  41.036  1.00  0.00     0.016 A 
HETATM    5  C6  UNL     1      14.830  22.951  42.105  1.00  0.00    -0.009 A 
HETATM    6  C7  UNL     1      14.280  22.755  43.370  1.00  0.00     0.014 A 
HETATM    7  C8  UNL     1      15.053  22.478  44.434  1.00  0.00     0.052 A 
HETATM    8  C9  UNL     1      16.449  22.381  44.301  1.00  0.00     0.116 A 
HETATM    9  C10 UNL     1      17.025  22.582  43.091  1.00  0.00     0.028 A 
HETATM   10  C11 UNL     1      18.370  22.540  42.973  1.00  0.00     0.057 A 
HETATM   11  C13 UNL     1      18.951  22.754  41.701  1.00  0.00     0.059 A 
HETATM   12  C14 UNL     1      18.169  23.013  40.618  1.00  0.00     0.107 A 
HETATM   13  C15 UNL     1      16.789  23.077  40.727  1.00  0.00     0.117 A 
HETATM   14  C16 UNL     1      16.207  22.866  41.964  1.00  0.00     0.025 A 
HETATM   15  O7  UNL     1      16.271  23.360  39.479  1.00  0.00    -0.322 OA
HETATM   16  C17 UNL     1      17.265  23.160  38.518  1.00  0.00     0.352 C 
HETATM   17  O8  UNL     1      18.449  23.260  39.261  1.00  0.00    -0.323 OA
ENDROOT
BRANCH   8  18
HETATM   18  N1  UNL     1      17.067  21.908  45.479  1.00  0.00    -0.115 N 
HETATM   19  O3  UNL     1      17.354  20.668  45.540  1.00  0.00    -0.532 OA
HETATM   20  O4  UNL     1      17.387  22.628  46.559  1.00  0.00    -0.532 OA
ENDBRANCH   8  18
BRANCH  10  21
HETATM   21  C12 UNL     1      19.335  22.639  44.077  1.00  0.00     0.210 C 
HETATM   22  O5  UNL     1      19.689  23.724  44.588  1.00  0.00    -0.644 OA
HETATM   23  O6  UNL     1      19.849  21.432  44.570  1.00  0.00    -0.644 OA
ENDBRANCH  10  21
BRANCH   1  24
HETATM   24  O1  UNL     1      12.340  22.648  44.816  1.00  0.00    -0.352 OA
HETATM   25  C1  UNL     1      12.645  23.698  45.742  1.00  0.00     0.210 C 
ENDBRANCH   1  24
BRANCH   2  26
HETATM   26  O2  UNL     1      10.722  23.205  42.703  1.00  0.00    -0.358 OA
ATOM     27  H2  UNL     1      10.321  22.521  43.225  1.00  0.00     0.217 HD
ENDBRANCH   2  26
TORSDOF 4
ENDMDL
