MODEL 2
REMARK VINA RESULT: -4.733394377      6.890      8.618
REMARK  4 active torsions:
REMARK  status: ('A' for Active; 'I' for Inactive)
REMARK    1  A    between atoms: N1_1  and  S1_4 
REMARK    2  A    between atoms: S1_4  and  C1_7 
REMARK    3  A    between atoms: C4_10  and  N2_11 
REMARK    4  A    between atoms: N2_11  and  N3_13 
ROOT
HETATM    1  N2  UNL     1      40.996  12.999 -19.181  1.00  0.00    -0.300 N 
ATOM      2  H2  UNL     1      40.394  12.476 -19.817  1.00  0.00     0.187 HD
ENDROOT
BRANCH   1   3
HETATM    3  C4  UNL     1      42.284  13.398 -19.625  1.00  0.00     0.048 A 
HETATM    4  C3  UNL     1      43.404  13.196 -18.853  1.00  0.00     0.032 A 
HETATM    5  C2  UNL     1      44.667  13.588 -19.293  1.00  0.00     0.027 A 
HETATM    6  C1  UNL     1      44.812  14.195 -20.530  1.00  0.00     0.079 A 
HETATM    7  C14 UNL     1      43.684  14.395 -21.300  1.00  0.00     0.027 A 
HETATM    8  C13 UNL     1      42.440  14.002 -20.854  1.00  0.00     0.032 A 
BRANCH   6   9
HETATM    9  S1  UNL     1      46.400  14.698 -21.102  1.00  0.00     0.256 S 
HETATM   10  O1  UNL     1      47.414  14.669 -20.000  1.00  0.00    -0.201 OA
HETATM   11  O2  UNL     1      46.811  13.770 -22.218  1.00  0.00    -0.201 OA
BRANCH   9  12
HETATM   12  N1  UNL     1      46.316  16.339 -21.689  1.00  0.00    -0.324 N 
ATOM     13  H12 UNL     1      46.660  16.664 -22.593  1.00  0.00     0.169 HD
ATOM     14  H11 UNL     1      45.865  16.898 -20.964  1.00  0.00     0.169 HD
ENDBRANCH   9  12
ENDBRANCH   6   9
ENDBRANCH   1   3
BRANCH   1  15
HETATM   15  N3  UNL     1      40.527  13.300 -17.904  1.00  0.00    -0.294 N 
HETATM   16  C5  UNL     1      39.542  14.154 -17.801  1.00  0.00     0.129 A 
HETATM   17  C6  UNL     1      38.858  14.848 -18.879  1.00  0.00     0.275 A 
HETATM   18  C12 UNL     1      38.897  14.614 -16.574  1.00  0.00     0.026 A 
HETATM   19  O3  UNL     1      39.088  14.753 -20.103  1.00  0.00    -0.266 OA
HETATM   20  N4  UNL     1      37.864  15.668 -18.291  1.00  0.00    -0.321 N 
HETATM   21  C7  UNL     1      37.897  15.518 -16.877  1.00  0.00     0.048 A 
ATOM     22  H4  UNL     1      37.223  16.274 -18.804  1.00  0.00     0.169 HD
HETATM   23  C8  UNL     1      37.137  16.099 -15.884  1.00  0.00     0.032 A 
HETATM   24  C9  UNL     1      37.389  15.763 -14.576  1.00  0.00     0.021 A 
HETATM   25  C10 UNL     1      38.382  14.863 -14.247  1.00  0.00     0.011 A 
HETATM   26 BR1  UNL     1      38.740  14.392 -12.440  1.00  0.00    -0.051 Br
HETATM   27  C11 UNL     1      39.119  14.304 -15.250  1.00  0.00     0.035 A 
ATOM     28  H3  UNL     1      40.938  12.867 -17.076  1.00  0.00     0.187 HD
ENDBRANCH   1  15
TORSDOF 4
ENDMDL
