MODEL 4
REMARK VINA RESULT: -4.643236280      2.996      3.445
REMARK  4 active torsions:
REMARK  status: ('A' for Active; 'I' for Inactive)
REMARK    1  A    between atoms: N1_1  and  S1_4 
REMARK    2  A    between atoms: S1_4  and  C1_7 
REMARK    3  A    between atoms: C4_10  and  N2_11 
REMARK    4  A    between atoms: N2_11  and  N3_13 
ROOT
HETATM    1  N2  UNL     1      39.869  10.541 -12.655  1.00  0.00    -0.300 N 
ATOM      2  H2  UNL     1      40.117  10.473 -13.642  1.00  0.00     0.187 HD
ENDROOT
BRANCH   1   3
HETATM    3  C4  UNL     1      40.377   9.571 -11.751  1.00  0.00     0.048 A 
HETATM    4  C3  UNL     1      41.254   8.596 -12.164  1.00  0.00     0.032 A 
HETATM    5  C2  UNL     1      41.752   7.645 -11.273  1.00  0.00     0.027 A 
HETATM    6  C1  UNL     1      41.362   7.671  -9.944  1.00  0.00     0.079 A 
HETATM    7  C14 UNL     1      40.481   8.652  -9.537  1.00  0.00     0.027 A 
HETATM    8  C13 UNL     1      39.996   9.587 -10.427  1.00  0.00     0.032 A 
BRANCH   6   9
HETATM    9  S1  UNL     1      41.979   6.478  -8.804  1.00  0.00     0.256 S 
HETATM   10  O1  UNL     1      43.171   5.757  -9.357  1.00  0.00    -0.201 OA
HETATM   11  O2  UNL     1      42.345   7.195  -7.528  1.00  0.00    -0.201 OA
BRANCH   9  12
HETATM   12  N1  UNL     1      40.749   5.283  -8.487  1.00  0.00    -0.324 N 
ATOM     13  H12 UNL     1      40.919   4.308  -8.237  1.00  0.00     0.169 HD
ATOM     14  H11 UNL     1      39.843   5.741  -8.598  1.00  0.00     0.169 HD
ENDBRANCH   9  12
ENDBRANCH   6   9
ENDBRANCH   1   3
BRANCH   1  15
HETATM   15  N3  UNL     1      39.043  11.582 -12.237  1.00  0.00    -0.294 N 
HETATM   16  C5  UNL     1      38.500  12.337 -13.157  1.00  0.00     0.129 A 
HETATM   17  C6  UNL     1      38.654  12.224 -14.597  1.00  0.00     0.275 A 
HETATM   18  C12 UNL     1      37.609  13.475 -12.951  1.00  0.00     0.026 A 
HETATM   19  O3  UNL     1      39.335  11.380 -15.219  1.00  0.00    -0.266 OA
HETATM   20  N4  UNL     1      37.883  13.254 -15.188  1.00  0.00    -0.321 N 
HETATM   21  C7  UNL     1      37.246  14.017 -14.170  1.00  0.00     0.048 A 
ATOM     22  H4  UNL     1      37.796  13.422 -16.190  1.00  0.00     0.169 HD
HETATM   23  C8  UNL     1      36.405  15.107 -14.243  1.00  0.00     0.032 A 
HETATM   24  C9  UNL     1      35.928  15.654 -13.077  1.00  0.00     0.021 A 
HETATM   25  C10 UNL     1      36.275  15.132 -11.848  1.00  0.00     0.011 A 
HETATM   26 BR1  UNL     1      35.621  15.882 -10.227  1.00  0.00    -0.051 Br
HETATM   27  C11 UNL     1      37.109  14.054 -11.805  1.00  0.00     0.035 A 
ATOM     28  H3  UNL     1      38.868  11.751 -11.246  1.00  0.00     0.187 HD
ENDBRANCH   1  15
TORSDOF 4
ENDMDL
