MODEL 1
REMARK VINA RESULT: -4.850319400      0.000      0.000
REMARK  4 active torsions:
REMARK  status: ('A' for Active; 'I' for Inactive)
REMARK    1  A    between atoms: N1_1  and  S1_4 
REMARK    2  A    between atoms: S1_4  and  C1_7 
REMARK    3  A    between atoms: C4_10  and  N2_11 
REMARK    4  A    between atoms: N2_11  and  N3_13 
ROOT
HETATM    1  N2  UNL     1      39.346  11.374 -12.263  1.00  0.00    -0.300 N 
ATOM      2  H2  UNL     1      39.104  11.977 -11.477  1.00  0.00     0.187 HD
ENDROOT
BRANCH   1   3
HETATM    3  C4  UNL     1      40.136  10.219 -12.026  1.00  0.00     0.048 A 
HETATM    4  C3  UNL     1      40.885   9.645 -13.026  1.00  0.00     0.032 A 
HETATM    5  C2  UNL     1      41.661   8.511 -12.789  1.00  0.00     0.027 A 
HETATM    6  C1  UNL     1      41.686   7.940 -11.527  1.00  0.00     0.079 A 
HETATM    7  C14 UNL     1      40.931   8.521 -10.528  1.00  0.00     0.027 A 
HETATM    8  C13 UNL     1      40.169   9.643 -10.775  1.00  0.00     0.032 A 
BRANCH   6   9
HETATM    9  S1  UNL     1      42.659   6.507 -11.209  1.00  0.00     0.256 S 
HETATM   10  O1  UNL     1      42.081   5.294 -11.873  1.00  0.00    -0.201 OA
HETATM   11  O2  UNL     1      44.056   6.766 -11.716  1.00  0.00    -0.201 OA
BRANCH   9  12
HETATM   12  N1  UNL     1      42.693   6.193  -9.493  1.00  0.00    -0.324 N 
ATOM     13  H12 UNL     1      42.288   5.379  -9.031  1.00  0.00     0.169 HD
ATOM     14  H11 UNL     1      43.189   6.969  -9.052  1.00  0.00     0.169 HD
ENDBRANCH   9  12
ENDBRANCH   6   9
ENDBRANCH   1   3
BRANCH   1  15
HETATM   15  N3  UNL     1      38.889  11.711 -13.536  1.00  0.00    -0.294 N 
HETATM   16  C5  UNL     1      39.006  12.957 -13.916  1.00  0.00     0.129 A 
HETATM   17  C6  UNL     1      39.567  14.063 -13.159  1.00  0.00     0.275 A 
HETATM   18  C12 UNL     1      38.598  13.531 -15.195  1.00  0.00     0.026 A 
HETATM   19  O3  UNL     1      40.041  14.022 -12.003  1.00  0.00    -0.266 OA
HETATM   20  N4  UNL     1      39.484  15.219 -13.972  1.00  0.00    -0.321 N 
HETATM   21  C7  UNL     1      38.887  14.883 -15.220  1.00  0.00     0.048 A 
ATOM     22  H4  UNL     1      39.803  16.150 -13.705  1.00  0.00     0.169 HD
HETATM   23  C8  UNL     1      38.596  15.654 -16.325  1.00  0.00     0.032 A 
HETATM   24  C9  UNL     1      38.009  15.055 -17.412  1.00  0.00     0.021 A 
HETATM   25  C10 UNL     1      37.711  13.709 -17.414  1.00  0.00     0.011 A 
HETATM   26 BR1  UNL     1      36.897  12.870 -18.914  1.00  0.00    -0.051 Br
HETATM   27  C11 UNL     1      38.009  12.969 -16.307  1.00  0.00     0.035 A 
ATOM     28  H3  UNL     1      38.476  11.009 -14.150  1.00  0.00     0.187 HD
ENDBRANCH   1  15
TORSDOF 4
ENDMDL
