MODEL 7
REMARK VINA RESULT: -8.073131434      1.147      1.868
REMARK  8 active torsions:
REMARK  status: ('A' for Active; 'I' for Inactive)
REMARK    1  A    between atoms: N4_10  and  C5_11 
REMARK    2  A    between atoms: C6_13  and  C7_14 
REMARK    3  A    between atoms: C7_14  and  O2_15 
REMARK    4  A    between atoms: O2_15  and  P1_16 
REMARK    5  A    between atoms: P1_16  and  O5_19 
REMARK    6  A    between atoms: O5_19  and  P2_20 
REMARK    7  A    between atoms: C8_24  and  O9_25 
REMARK    8  A    between atoms: C9_27  and  O10_28 
ROOT
HETATM    1  C5  UNL     1      15.755   4.703  16.330  1.00  0.00     0.262 C 
HETATM    2  O1  UNL     1      16.067   5.703  17.244  1.00  0.00    -0.353 OA
HETATM    3  C6  UNL     1      17.460   5.759  17.294  1.00  0.00     0.180 C 
HETATM    4  C8  UNL     1      17.819   5.708  15.850  1.00  0.00     0.182 C 
HETATM    5  C9  UNL     1      16.911   4.588  15.377  1.00  0.00     0.198 C 
ENDROOT
BRANCH   1   6
HETATM    6  N4  UNL     1      14.526   4.913  15.631  1.00  0.00    -0.297 N 
HETATM    7  C2  UNL     1      13.535   4.002  15.393  1.00  0.00     0.146 A 
HETATM    8  N2  UNL     1      13.473   2.709  15.750  1.00  0.00    -0.314 N 
HETATM    9  C3  UNL     1      12.520   4.627  14.680  1.00  0.00     0.146 A 
HETATM   10  C1  UNL     1      12.388   1.971  15.411  1.00  0.00     0.196 A 
ATOM     11  H2  UNL     1      14.238   2.285  16.274  1.00  0.00     0.170 HD
HETATM   12  N1  UNL     1      12.272   0.605  15.763  1.00  0.00    -0.063 NA
HETATM   13  N5  UNL     1      11.406   2.594  14.716  1.00  0.00    -0.295 N 
HETATM   14  C10 UNL     1      11.420   3.862  14.341  1.00  0.00     0.278 A 
ATOM     15  H5  UNL     1      10.589   2.040  14.461  1.00  0.00     0.171 HD
HETATM   16  O11 UNL     1      10.506   4.432  13.697  1.00  0.00    -0.265 OA
HETATM   17  N3  UNL     1      12.897   5.888  14.496  1.00  0.00    -0.345 N 
HETATM   18  C4  UNL     1      14.104   6.058  15.068  1.00  0.00     0.188 A 
ATOM     19  H3  UNL     1      12.363   6.604  14.004  1.00  0.00     0.167 HD
ENDBRANCH   1   6
BRANCH   5  20
HETATM   20  O10 UNL     1      17.608   3.381  15.516  1.00  0.00    -0.388 OA
ATOM     21  H10 UNL     1      17.725   3.128  16.425  1.00  0.00     0.210 HD
ENDBRANCH   5  20
BRANCH   3  22
HETATM   22  C7  UNL     1      17.958   6.947  18.034  1.00  0.00     0.216 C 
BRANCH  22  23
HETATM   23  O2  UNL     1      17.441   8.142  17.669  1.00  0.00    -0.287 OA
BRANCH  23  24
HETATM   24  P1  UNL     1      18.193   9.508  18.051  1.00  0.00     0.418 P 
HETATM   25  O3  UNL     1      18.076  10.850  17.018  1.00  0.00    -0.624 OA
HETATM   26  O4  UNL     1      17.077  10.084  18.916  1.00  0.00    -0.624 OA
BRANCH  24  27
HETATM   27  O5  UNL     1      19.250   9.596  19.321  1.00  0.00    -0.173 OA
BRANCH  27  28
HETATM   28  P2  UNL     1      20.749  10.118  18.948  1.00  0.00     0.431 P 
HETATM   29  O6  UNL     1      21.242  10.438  17.427  1.00  0.00    -0.616 OA
HETATM   30  O7  UNL     1      20.397  11.581  19.256  1.00  0.00    -0.616 OA
HETATM   31  O8  UNL     1      21.925  10.219  20.163  1.00  0.00    -0.616 OA
ENDBRANCH  27  28
ENDBRANCH  24  27
ENDBRANCH  23  24
ENDBRANCH  22  23
ENDBRANCH   3  22
BRANCH   4  32
HETATM   32  O9  UNL     1      19.122   5.298  15.610  1.00  0.00    -0.390 OA
ATOM     33  H9  UNL     1      19.420   4.609  16.193  1.00  0.00     0.210 HD
ENDBRANCH   4  32
TORSDOF 8
ENDMDL
