MODEL 2
REMARK VINA RESULT: -9.040196865      0.608      1.132
REMARK  8 active torsions:
REMARK  status: ('A' for Active; 'I' for Inactive)
REMARK    1  A    between atoms: N4_10  and  C5_11 
REMARK    2  A    between atoms: C6_13  and  C7_14 
REMARK    3  A    between atoms: C7_14  and  O2_15 
REMARK    4  A    between atoms: O2_15  and  P1_16 
REMARK    5  A    between atoms: P1_16  and  O5_19 
REMARK    6  A    between atoms: O5_19  and  P2_20 
REMARK    7  A    between atoms: C8_24  and  O9_25 
REMARK    8  A    between atoms: C9_27  and  O10_28 
ROOT
HETATM    1  C5  UNL     1      15.962   4.034  15.940  1.00  0.00     0.262 C 
HETATM    2  O1  UNL     1      16.495   4.910  16.879  1.00  0.00    -0.353 OA
HETATM    3  C6  UNL     1      17.881   4.795  16.771  1.00  0.00     0.180 C 
HETATM    4  C8  UNL     1      18.074   4.824  15.295  1.00  0.00     0.182 C 
HETATM    5  C9  UNL     1      16.986   3.863  14.853  1.00  0.00     0.198 C 
ENDROOT
BRANCH   1   6
HETATM    6  N4  UNL     1      14.702   4.448  15.405  1.00  0.00    -0.297 N 
HETATM    7  C2  UNL     1      13.601   3.673  15.172  1.00  0.00     0.146 A 
HETATM    8  N2  UNL     1      13.433   2.358  15.384  1.00  0.00    -0.314 N 
HETATM    9  C3  UNL     1      12.597   4.477  14.647  1.00  0.00     0.146 A 
HETATM   10  C1  UNL     1      12.246   1.775  15.081  1.00  0.00     0.196 A 
ATOM     11  H2  UNL     1      14.193   1.800  15.772  1.00  0.00     0.170 HD
HETATM   12  N1  UNL     1      12.017   0.394  15.286  1.00  0.00    -0.063 NA
HETATM   13  N5  UNL     1      11.277   2.573  14.571  1.00  0.00    -0.295 N 
HETATM   14  C10 UNL     1      11.393   3.870  14.343  1.00  0.00     0.278 A 
ATOM     15  H5  UNL     1      10.383   2.136  14.343  1.00  0.00     0.171 HD
HETATM   16  O11 UNL     1      10.489   4.601  13.870  1.00  0.00    -0.265 OA
HETATM   17  N3  UNL     1      13.089   5.709  14.569  1.00  0.00    -0.345 N 
HETATM   18  C4  UNL     1      14.356   5.689  15.025  1.00  0.00     0.188 A 
ATOM     19  H3  UNL     1      12.591   6.529  14.222  1.00  0.00     0.167 HD
ENDBRANCH   1   6
BRANCH   5  20
HETATM   20  O10 UNL     1      17.534   2.575  14.826  1.00  0.00    -0.388 OA
ATOM     21  H10 UNL     1      18.325   2.524  14.302  1.00  0.00     0.210 HD
ENDBRANCH   5  20
BRANCH   3  22
HETATM   22  C7  UNL     1      18.603   5.849  17.530  1.00  0.00     0.216 C 
BRANCH  22  23
HETATM   23  O2  UNL     1      19.138   6.855  16.801  1.00  0.00    -0.287 OA
BRANCH  23  24
HETATM   24  P1  UNL     1      18.572   8.351  16.935  1.00  0.00     0.418 P 
HETATM   25  O3  UNL     1      17.638   9.013  15.683  1.00  0.00    -0.624 OA
HETATM   26  O4  UNL     1      17.297   7.987  17.687  1.00  0.00    -0.624 OA
BRANCH  24  27
HETATM   27  O5  UNL     1      19.037   9.352  18.169  1.00  0.00    -0.173 OA
BRANCH  27  28
HETATM   28  P2  UNL     1      18.119  10.684  18.372  1.00  0.00     0.431 P 
HETATM   29  O6  UNL     1      16.675  10.679  19.129  1.00  0.00    -0.616 OA
HETATM   30  O7  UNL     1      18.895  11.119  19.624  1.00  0.00    -0.616 OA
HETATM   31  O8  UNL     1      18.595  12.144  17.656  1.00  0.00    -0.616 OA
ENDBRANCH  27  28
ENDBRANCH  24  27
ENDBRANCH  23  24
ENDBRANCH  22  23
ENDBRANCH   3  22
BRANCH   4  32
HETATM   32  O9  UNL     1      19.281   4.283  14.877  1.00  0.00    -0.390 OA
ATOM     33  H9  UNL     1      19.294   4.035  13.960  1.00  0.00     0.210 HD
ENDBRANCH   4  32
TORSDOF 8
ENDMDL
