MODEL 5
REMARK VINA RESULT: -8.166567952      1.118      1.785
REMARK  8 active torsions:
REMARK  status: ('A' for Active; 'I' for Inactive)
REMARK    1  A    between atoms: N4_10  and  C5_11 
REMARK    2  A    between atoms: C6_13  and  C7_14 
REMARK    3  A    between atoms: C7_14  and  O2_15 
REMARK    4  A    between atoms: O2_15  and  P1_16 
REMARK    5  A    between atoms: P1_16  and  O5_19 
REMARK    6  A    between atoms: O5_19  and  P2_20 
REMARK    7  A    between atoms: C8_24  and  O9_25 
REMARK    8  A    between atoms: C9_27  and  O10_28 
ROOT
HETATM    1  C5  UNL     1      15.746   4.771  16.314  1.00  0.00     0.262 C 
HETATM    2  O1  UNL     1      16.084   5.828  17.152  1.00  0.00    -0.353 OA
HETATM    3  C6  UNL     1      17.479   5.859  17.188  1.00  0.00     0.180 C 
HETATM    4  C8  UNL     1      17.824   5.699  15.749  1.00  0.00     0.182 C 
HETATM    5  C9  UNL     1      16.892   4.566  15.364  1.00  0.00     0.198 C 
ENDROOT
BRANCH   1   6
HETATM    6  N4  UNL     1      14.515   4.955  15.610  1.00  0.00    -0.297 N 
HETATM    7  C2  UNL     1      13.536   4.028  15.386  1.00  0.00     0.146 A 
HETATM    8  N2  UNL     1      13.489   2.740  15.765  1.00  0.00    -0.314 N 
HETATM    9  C3  UNL     1      12.515   4.628  14.661  1.00  0.00     0.146 A 
HETATM   10  C1  UNL     1      12.413   1.983  15.437  1.00  0.00     0.196 A 
ATOM     11  H2  UNL     1      14.258   2.334  16.297  1.00  0.00     0.170 HD
HETATM   12  N1  UNL     1      12.314   0.622  15.811  1.00  0.00    -0.063 NA
HETATM   13  N5  UNL     1      11.425   2.583  14.730  1.00  0.00    -0.295 N 
HETATM   14  C10 UNL     1      11.424   3.845  14.334  1.00  0.00     0.278 A 
ATOM     15  H5  UNL     1      10.614   2.015  14.483  1.00  0.00     0.171 HD
HETATM   16  O11 UNL     1      10.504   4.392  13.680  1.00  0.00    -0.265 OA
HETATM   17  N3  UNL     1      12.876   5.891  14.457  1.00  0.00    -0.345 N 
HETATM   18  C4  UNL     1      14.080   6.085  15.028  1.00  0.00     0.188 A 
ATOM     19  H3  UNL     1      12.334   6.592  13.953  1.00  0.00     0.167 HD
ENDBRANCH   1   6
BRANCH   5  20
HETATM   20  O10 UNL     1      17.567   3.359  15.584  1.00  0.00    -0.388 OA
ATOM     21  H10 UNL     1      17.208   2.866  16.312  1.00  0.00     0.210 HD
ENDBRANCH   5  20
BRANCH   3  22
HETATM   22  C7  UNL     1      18.004   7.088  17.839  1.00  0.00     0.216 C 
BRANCH  22  23
HETATM   23  O2  UNL     1      17.631   8.266  17.289  1.00  0.00    -0.287 OA
BRANCH  23  24
HETATM   24  P1  UNL     1      18.098   9.656  17.941  1.00  0.00     0.418 P 
HETATM   25  O3  UNL     1      17.062  10.477  19.004  1.00  0.00    -0.624 OA
HETATM   26  O4  UNL     1      18.831   9.050  19.133  1.00  0.00    -0.624 OA
BRANCH  24  27
HETATM   27  O5  UNL     1      19.481  10.425  17.457  1.00  0.00    -0.173 OA
BRANCH  27  28
HETATM   28  P2  UNL     1      19.994  11.623  18.435  1.00  0.00     0.431 P 
HETATM   29  O6  UNL     1      20.741  11.368  19.862  1.00  0.00    -0.616 OA
HETATM   30  O7  UNL     1      21.307  11.798  17.657  1.00  0.00    -0.616 OA
HETATM   31  O8  UNL     1      19.632  13.233  18.047  1.00  0.00    -0.616 OA
ENDBRANCH  27  28
ENDBRANCH  24  27
ENDBRANCH  23  24
ENDBRANCH  22  23
ENDBRANCH   3  22
BRANCH   4  32
HETATM   32  O9  UNL     1      19.117   5.248  15.531  1.00  0.00    -0.390 OA
ATOM     33  H9  UNL     1      19.694   5.358  16.278  1.00  0.00     0.210 HD
ENDBRANCH   4  32
TORSDOF 8
ENDMDL
