MODEL 4
REMARK VINA RESULT: -8.427809633      1.075      1.610
REMARK  8 active torsions:
REMARK  status: ('A' for Active; 'I' for Inactive)
REMARK    1  A    between atoms: N4_10  and  C5_11 
REMARK    2  A    between atoms: C6_13  and  C7_14 
REMARK    3  A    between atoms: C7_14  and  O2_15 
REMARK    4  A    between atoms: O2_15  and  P1_16 
REMARK    5  A    between atoms: P1_16  and  O5_19 
REMARK    6  A    between atoms: O5_19  and  P2_20 
REMARK    7  A    between atoms: C8_24  and  O9_25 
REMARK    8  A    between atoms: C9_27  and  O10_28 
ROOT
HETATM    1  C5  UNL     1      15.792   4.515  16.226  1.00  0.00     0.262 C 
HETATM    2  O1  UNL     1      16.116   5.441  17.211  1.00  0.00    -0.353 OA
HETATM    3  C6  UNL     1      17.510   5.498  17.243  1.00  0.00     0.180 C 
HETATM    4  C8  UNL     1      17.845   5.563  15.794  1.00  0.00     0.182 C 
HETATM    5  C9  UNL     1      16.933   4.480  15.249  1.00  0.00     0.198 C 
ENDROOT
BRANCH   1   6
HETATM    6  N4  UNL     1      14.551   4.775  15.566  1.00  0.00    -0.297 N 
HETATM    7  C2  UNL     1      13.531   3.897  15.333  1.00  0.00     0.146 A 
HETATM    8  N2  UNL     1      13.443   2.597  15.660  1.00  0.00    -0.314 N 
HETATM    9  C3  UNL     1      12.515   4.566  14.662  1.00  0.00     0.146 A 
HETATM   10  C1  UNL     1      12.330   1.896  15.332  1.00  0.00     0.196 A 
ATOM     11  H2  UNL     1      14.210   2.140  16.152  1.00  0.00     0.170 HD
HETATM   12  N1  UNL     1      12.187   0.525  15.653  1.00  0.00    -0.063 NA
HETATM   13  N5  UNL     1      11.347   2.563  14.678  1.00  0.00    -0.295 N 
HETATM   14  C10 UNL     1      11.385   3.839  14.335  1.00  0.00     0.278 A 
ATOM     15  H5  UNL     1      10.509   2.037  14.432  1.00  0.00     0.171 HD
HETATM   16  O11 UNL     1      10.470   4.448  13.729  1.00  0.00    -0.265 OA
HETATM   17  N3  UNL     1      12.920   5.820  14.499  1.00  0.00    -0.345 N 
HETATM   18  C4  UNL     1      14.146   5.945  15.043  1.00  0.00     0.188 A 
ATOM     19  H3  UNL     1      12.392   6.562  14.039  1.00  0.00     0.167 HD
ENDBRANCH   1   6
BRANCH   5  20
HETATM   20  O10 UNL     1      17.635   3.269  15.281  1.00  0.00    -0.388 OA
ATOM     21  H10 UNL     1      18.042   3.058  14.449  1.00  0.00     0.210 HD
ENDBRANCH   5  20
BRANCH   3  22
HETATM   22  C7  UNL     1      18.017   6.627  18.067  1.00  0.00     0.216 C 
BRANCH  22  23
HETATM   23  O2  UNL     1      19.211   7.146  17.704  1.00  0.00    -0.287 OA
BRANCH  23  24
HETATM   24  P1  UNL     1      19.944   8.234  18.630  1.00  0.00     0.418 P 
HETATM   25  O3  UNL     1      21.484   7.902  19.261  1.00  0.00    -0.624 OA
HETATM   26  O4  UNL     1      20.584   9.024  17.495  1.00  0.00    -0.624 OA
BRANCH  24  27
HETATM   27  O5  UNL     1      19.164   9.592  19.164  1.00  0.00    -0.173 OA
BRANCH  27  28
HETATM   28  P2  UNL     1      18.377  10.442  18.017  1.00  0.00     0.431 P 
HETATM   29  O6  UNL     1      17.616   9.758  16.748  1.00  0.00    -0.616 OA
HETATM   30  O7  UNL     1      17.100  10.546  18.864  1.00  0.00    -0.616 OA
HETATM   31  O8  UNL     1      18.443  12.136  18.038  1.00  0.00    -0.616 OA
ENDBRANCH  27  28
ENDBRANCH  24  27
ENDBRANCH  23  24
ENDBRANCH  22  23
ENDBRANCH   3  22
BRANCH   4  32
HETATM   32  O9  UNL     1      19.145   5.177  15.502  1.00  0.00    -0.390 OA
ATOM     33  H9  UNL     1      19.600   5.773  14.918  1.00  0.00     0.210 HD
ENDBRANCH   4  32
TORSDOF 8
ENDMDL
