MODEL 12
REMARK VINA RESULT: -7.740498866      4.934      8.047
REMARK  8 active torsions:
REMARK  status: ('A' for Active; 'I' for Inactive)
REMARK    1  A    between atoms: N4_10  and  C5_11 
REMARK    2  A    between atoms: C6_13  and  C7_14 
REMARK    3  A    between atoms: C7_14  and  O2_15 
REMARK    4  A    between atoms: O2_15  and  P1_16 
REMARK    5  A    between atoms: P1_16  and  O5_19 
REMARK    6  A    between atoms: O5_19  and  P2_20 
REMARK    7  A    between atoms: C8_24  and  O9_25 
REMARK    8  A    between atoms: C9_27  and  O10_28 
ROOT
HETATM    1  C5  UNL     1      18.959   7.410  15.800  1.00  0.00     0.262 C 
HETATM    2  O1  UNL     1      17.669   7.316  16.309  1.00  0.00    -0.353 OA
HETATM    3  C6  UNL     1      17.303   5.975  16.188  1.00  0.00     0.180 C 
HETATM    4  C8  UNL     1      18.524   5.282  16.684  1.00  0.00     0.182 C 
HETATM    5  C9  UNL     1      19.602   6.060  15.954  1.00  0.00     0.198 C 
ENDROOT
BRANCH   1   6
HETATM    6  N4  UNL     1      19.752   8.434  16.406  1.00  0.00    -0.297 N 
HETATM    7  C2  UNL     1      19.346   9.381  17.304  1.00  0.00     0.146 A 
HETATM    8  N2  UNL     1      18.126   9.580  17.828  1.00  0.00    -0.314 N 
HETATM    9  C3  UNL     1      20.437  10.176  17.632  1.00  0.00     0.146 A 
HETATM   10  C1  UNL     1      17.933  10.589  18.714  1.00  0.00     0.196 A 
ATOM     11  H2  UNL     1      17.349   8.975  17.563  1.00  0.00     0.170 HD
HETATM   12  N1  UNL     1      16.668  10.841  19.296  1.00  0.00    -0.063 NA
HETATM   13  N5  UNL     1      19.007  11.355  19.024  1.00  0.00    -0.295 N 
HETATM   14  C10 UNL     1      20.225  11.200  18.536  1.00  0.00     0.278 A 
ATOM     15  H5  UNL     1      18.863  12.114  19.691  1.00  0.00     0.171 HD
HETATM   16  O11 UNL     1      21.214  11.915  18.830  1.00  0.00    -0.265 OA
HETATM   17  N3  UNL     1      21.475   9.712  16.945  1.00  0.00    -0.345 N 
HETATM   18  C4  UNL     1      21.061   8.664  16.207  1.00  0.00     0.188 A 
ATOM     19  H3  UNL     1      22.423  10.086  16.971  1.00  0.00     0.167 HD
ENDBRANCH   1   6
BRANCH   5  20
HETATM   20  O10 UNL     1      19.832   5.428  14.726  1.00  0.00    -0.388 OA
ATOM     21  H10 UNL     1      19.036   5.304  14.223  1.00  0.00     0.210 HD
ENDBRANCH   5  20
BRANCH   3  22
HETATM   22  C7  UNL     1      16.047   5.658  16.917  1.00  0.00     0.216 C 
BRANCH  22  23
HETATM   23  O2  UNL     1      15.679   4.357  16.942  1.00  0.00    -0.287 OA
BRANCH  23  24
HETATM   24  P1  UNL     1      15.048   3.662  15.640  1.00  0.00     0.418 P 
HETATM   25  O3  UNL     1      16.070   3.076  14.419  1.00  0.00    -0.624 OA
HETATM   26  O4  UNL     1      14.949   2.257  16.224  1.00  0.00    -0.624 OA
BRANCH  24  27
HETATM   27  O5  UNL     1      13.419   3.676  15.347  1.00  0.00    -0.173 OA
BRANCH  27  28
HETATM   28  P2  UNL     1      12.831   5.066  14.732  1.00  0.00     0.431 P 
HETATM   29  O6  UNL     1      13.581   6.507  14.876  1.00  0.00    -0.616 OA
HETATM   30  O7  UNL     1      13.410   4.783  13.338  1.00  0.00    -0.616 OA
HETATM   31  O8  UNL     1      11.296   5.080  14.014  1.00  0.00    -0.616 OA
ENDBRANCH  27  28
ENDBRANCH  24  27
ENDBRANCH  23  24
ENDBRANCH  22  23
ENDBRANCH   3  22
BRANCH   4  32
HETATM   32  O9  UNL     1      18.628   3.963  16.267  1.00  0.00    -0.390 OA
ATOM     33  H9  UNL     1      19.046   3.392  16.901  1.00  0.00     0.210 HD
ENDBRANCH   4  32
TORSDOF 8
ENDMDL
