MODEL 11
REMARK VINA RESULT: -7.783140448      7.024     10.205
REMARK  8 active torsions:
REMARK  status: ('A' for Active; 'I' for Inactive)
REMARK    1  A    between atoms: N4_10  and  C5_11 
REMARK    2  A    between atoms: C6_13  and  C7_14 
REMARK    3  A    between atoms: C7_14  and  O2_15 
REMARK    4  A    between atoms: O2_15  and  P1_16 
REMARK    5  A    between atoms: P1_16  and  O5_19 
REMARK    6  A    between atoms: O5_19  and  P2_20 
REMARK    7  A    between atoms: C8_24  and  O9_25 
REMARK    8  A    between atoms: C9_27  and  O10_28 
ROOT
HETATM    1  C5  UNL     1      19.443  11.290  18.841  1.00  0.00     0.262 C 
HETATM    2  O1  UNL     1      20.344  10.302  18.461  1.00  0.00    -0.353 OA
HETATM    3  C6  UNL     1      19.577   9.179  18.150  1.00  0.00     0.180 C 
HETATM    4  C8  UNL     1      18.486   9.773  17.330  1.00  0.00     0.182 C 
HETATM    5  C9  UNL     1      18.132  10.984  18.173  1.00  0.00     0.198 C 
ENDROOT
BRANCH   1   6
HETATM    6  N4  UNL     1      19.877  12.621  18.548  1.00  0.00    -0.297 N 
HETATM    7  C2  UNL     1      21.068  13.201  18.880  1.00  0.00     0.146 A 
HETATM    8  N2  UNL     1      22.106  12.676  19.551  1.00  0.00    -0.314 N 
HETATM    9  C3  UNL     1      21.074  14.505  18.401  1.00  0.00     0.146 A 
HETATM   10  C1  UNL     1      23.209  13.431  19.779  1.00  0.00     0.196 A 
ATOM     11  H2  UNL     1      22.065  11.714  19.888  1.00  0.00     0.170 HD
HETATM   12  N1  UNL     1      24.330  12.926  20.480  1.00  0.00    -0.063 NA
HETATM   13  N5  UNL     1      23.200  14.700  19.304  1.00  0.00    -0.295 N 
HETATM   14  C10 UNL     1      22.205  15.263  18.639  1.00  0.00     0.278 A 
ATOM     15  H5  UNL     1      24.030  15.269  19.474  1.00  0.00     0.171 HD
HETATM   16  O11 UNL     1      22.206  16.440  18.204  1.00  0.00    -0.265 OA
HETATM   17  N3  UNL     1      19.909  14.699  17.792  1.00  0.00    -0.345 N 
HETATM   18  C4  UNL     1      19.189  13.564  17.882  1.00  0.00     0.188 A 
ATOM     19  H3  UNL     1      19.611  15.561  17.336  1.00  0.00     0.167 HD
ENDBRANCH   1   6
BRANCH   5  20
HETATM   20  O10 UNL     1      17.139  10.600  19.083  1.00  0.00    -0.388 OA
ATOM     21  H10 UNL     1      16.289  10.492  18.673  1.00  0.00     0.210 HD
ENDBRANCH   5  20
BRANCH   3  22
HETATM   22  C7  UNL     1      20.369   8.113  17.484  1.00  0.00     0.216 C 
BRANCH  22  23
HETATM   23  O2  UNL     1      20.060   7.853  16.193  1.00  0.00    -0.287 OA
BRANCH  23  24
HETATM   24  P1  UNL     1      19.527   6.403  15.758  1.00  0.00     0.418 P 
HETATM   25  O3  UNL     1      19.319   6.042  14.113  1.00  0.00    -0.624 OA
HETATM   26  O4  UNL     1      20.889   5.719  15.730  1.00  0.00    -0.624 OA
BRANCH  24  27
HETATM   27  O5  UNL     1      18.976   5.306  16.868  1.00  0.00    -0.173 OA
BRANCH  27  28
HETATM   28  P2  UNL     1      17.359   5.257  17.060  1.00  0.00     0.431 P 
HETATM   29  O6  UNL     1      16.595   4.186  18.024  1.00  0.00    -0.616 OA
HETATM   30  O7  UNL     1      17.376   6.365  18.124  1.00  0.00    -0.616 OA
HETATM   31  O8  UNL     1      16.374   6.269  16.123  1.00  0.00    -0.616 OA
ENDBRANCH  27  28
ENDBRANCH  24  27
ENDBRANCH  23  24
ENDBRANCH  22  23
ENDBRANCH   3  22
BRANCH   4  32
HETATM   32  O9  UNL     1      17.346   8.986  17.260  1.00  0.00    -0.390 OA
ATOM     33  H9  UNL     1      17.188   8.616  16.399  1.00  0.00     0.210 HD
ENDBRANCH   4  32
TORSDOF 8
ENDMDL
