MODEL 13
REMARK VINA RESULT: -7.688524479      5.134      8.677
REMARK  8 active torsions:
REMARK  status: ('A' for Active; 'I' for Inactive)
REMARK    1  A    between atoms: N4_10  and  C5_11 
REMARK    2  A    between atoms: C6_13  and  C7_14 
REMARK    3  A    between atoms: C7_14  and  O2_15 
REMARK    4  A    between atoms: O2_15  and  P1_16 
REMARK    5  A    between atoms: P1_16  and  O5_19 
REMARK    6  A    between atoms: O5_19  and  P2_20 
REMARK    7  A    between atoms: C8_24  and  O9_25 
REMARK    8  A    between atoms: C9_27  and  O10_28 
ROOT
HETATM    1  C5  UNL     1      18.277   7.818  17.642  1.00  0.00     0.262 C 
HETATM    2  O1  UNL     1      17.722   6.632  18.110  1.00  0.00    -0.353 OA
HETATM    3  C6  UNL     1      17.320   5.922  16.978  1.00  0.00     0.180 C 
HETATM    4  C8  UNL     1      18.501   6.079  16.086  1.00  0.00     0.182 C 
HETATM    5  C9  UNL     1      18.779   7.561  16.249  1.00  0.00     0.198 C 
ENDROOT
BRANCH   1   6
HETATM    6  N4  UNL     1      19.310   8.349  18.477  1.00  0.00    -0.297 N 
HETATM    7  C2  UNL     1      19.625   9.663  18.678  1.00  0.00     0.146 A 
HETATM    8  N2  UNL     1      19.055  10.759  18.153  1.00  0.00    -0.314 N 
HETATM    9  C3  UNL     1      20.694   9.730  19.563  1.00  0.00     0.146 A 
HETATM   10  C1  UNL     1      19.526  11.986  18.488  1.00  0.00     0.196 A 
ATOM     11  H2  UNL     1      18.272  10.670  17.507  1.00  0.00     0.170 HD
HETATM   12  N1  UNL     1      18.961  13.173  17.963  1.00  0.00    -0.063 NA
HETATM   13  N5  UNL     1      20.568  12.036  19.352  1.00  0.00    -0.295 N 
HETATM   14  C10 UNL     1      21.163  10.987  19.896  1.00  0.00     0.278 A 
ATOM     15  H5  UNL     1      20.923  12.958  19.605  1.00  0.00     0.171 HD
HETATM   16  O11 UNL     1      22.128  11.043  20.695  1.00  0.00    -0.265 OA
HETATM   17  N3  UNL     1      21.010   8.480  19.885  1.00  0.00    -0.345 N 
HETATM   18  C4  UNL     1      20.176   7.650  19.230  1.00  0.00     0.188 A 
ATOM     19  H3  UNL     1      21.757   8.198  20.519  1.00  0.00     0.167 HD
ENDBRANCH   1   6
BRANCH   5  20
HETATM   20  O10 UNL     1      18.044   8.248  15.275  1.00  0.00    -0.388 OA
ATOM     21  H10 UNL     1      18.482   8.268  14.432  1.00  0.00     0.210 HD
ENDBRANCH   5  20
BRANCH   3  22
HETATM   22  C7  UNL     1      16.937   4.520  17.290  1.00  0.00     0.216 C 
BRANCH  22  23
HETATM   23  O2  UNL     1      15.647   4.185  17.061  1.00  0.00    -0.287 OA
BRANCH  23  24
HETATM   24  P1  UNL     1      15.162   3.761  15.591  1.00  0.00     0.418 P 
HETATM   25  O3  UNL     1      16.303   3.583  14.347  1.00  0.00    -0.624 OA
HETATM   26  O4  UNL     1      15.193   2.255  15.827  1.00  0.00    -0.624 OA
BRANCH  24  27
HETATM   27  O5  UNL     1      13.558   3.685  15.189  1.00  0.00    -0.173 OA
BRANCH  27  28
HETATM   28  P2  UNL     1      12.886   5.095  14.726  1.00  0.00     0.431 P 
HETATM   29  O6  UNL     1      13.580   6.551  14.970  1.00  0.00    -0.616 OA
HETATM   30  O7  UNL     1      13.417   4.964  13.291  1.00  0.00    -0.616 OA
HETATM   31  O8  UNL     1      11.323   5.102  14.072  1.00  0.00    -0.616 OA
ENDBRANCH  27  28
ENDBRANCH  24  27
ENDBRANCH  23  24
ENDBRANCH  22  23
ENDBRANCH   3  22
BRANCH   4  32
HETATM   32  O9  UNL     1      18.221   5.869  14.743  1.00  0.00    -0.390 OA
ATOM     33  H9  UNL     1      18.743   5.182  14.345  1.00  0.00     0.210 HD
ENDBRANCH   4  32
TORSDOF 8
ENDMDL
