MODEL 9
REMARK VINA RESULT: -7.470345930      1.577      1.889
REMARK  5 active torsions:
REMARK  status: ('A' for Active; 'I' for Inactive)
REMARK    1  A    between atoms: N1_1  and  S1_4 
REMARK    2  A    between atoms: S1_4  and  C1_7 
REMARK    3  A    between atoms: C4_10  and  C5_11 
REMARK       I    between atoms: C5_11  and  N2_13 
REMARK    4  A    between atoms: N2_13  and  C6_15 
REMARK    5  A    between atoms: C6_15  and  C7_16 
ROOT
HETATM    1  C1  UNL     1      -5.117   2.365  15.186  1.00  0.00     0.079 A 
HETATM    2  C2  UNL     1      -4.439   2.733  14.018  1.00  0.00     0.026 A 
HETATM    3  C3  UNL     1      -4.697   3.927  13.391  1.00  0.00     0.018 A 
HETATM    4  C4  UNL     1      -5.635   4.796  13.893  1.00  0.00     0.032 A 
HETATM    5  C13 UNL     1      -6.306   4.459  15.032  1.00  0.00     0.018 A 
HETATM    6  C14 UNL     1      -6.049   3.234  15.687  1.00  0.00     0.026 A 
ENDROOT
BRANCH   4   7
HETATM    7  C5  UNL     1      -5.845   6.038  13.182  1.00  0.00     0.251 C 
HETATM    8  O3  UNL     1      -6.953   6.669  13.405  1.00  0.00    -0.268 OA
HETATM    9  N2  UNL     1      -4.917   6.591  12.277  1.00  0.00    -0.353 N 
ATOM     10  H2  UNL     1      -4.043   6.096  12.092  1.00  0.00     0.163 HD
BRANCH   9  11
HETATM   11  C6  UNL     1      -5.174   7.830  11.613  1.00  0.00     0.164 C 
BRANCH  11  12
HETATM   12  C7  UNL     1      -6.142   7.633  10.480  1.00  0.00    -0.002 A 
HETATM   13  C8  UNL     1      -5.844   6.821   9.395  1.00  0.00     0.012 A 
HETATM   14  C9  UNL     1      -6.726   6.703   8.324  1.00  0.00     0.001 A 
HETATM   15  C10 UNL     1      -7.916   7.405   8.336  1.00  0.00     0.003 A 
HETATM   16  C11 UNL     1      -8.233   8.209   9.388  1.00  0.00     0.043 A 
HETATM   17  C12 UNL     1      -7.342   8.309  10.437  1.00  0.00     0.124 A 
HETATM   18  F1  UNL     1      -7.631   9.083  11.531  1.00  0.00    -0.205 F 
ENDBRANCH  11  12
ENDBRANCH   9  11
ENDBRANCH   4   7
BRANCH   1  19
HETATM   19  S1  UNL     1      -4.768   0.857  15.977  1.00  0.00     0.256 S 
HETATM   20  O1  UNL     1      -3.364   0.841  16.528  1.00  0.00    -0.201 OA
HETATM   21  O2  UNL     1      -4.836  -0.257  14.944  1.00  0.00    -0.201 OA
BRANCH  19  22
HETATM   22  N1  UNL     1      -5.865   0.499  17.228  1.00  0.00    -0.324 N 
ATOM     23  H12 UNL     1      -5.762  -0.276  17.884  1.00  0.00     0.169 HD
ATOM     24  H11 UNL     1      -6.628   1.175  17.211  1.00  0.00     0.169 HD
ENDBRANCH  19  22
ENDBRANCH   1  19
TORSDOF 5
ENDMDL
