MODEL 1
REMARK VINA RESULT: -7.791823921      0.000      0.000
REMARK  5 active torsions:
REMARK  status: ('A' for Active; 'I' for Inactive)
REMARK    1  A    between atoms: N1_1  and  S1_4 
REMARK    2  A    between atoms: S1_4  and  C1_7 
REMARK    3  A    between atoms: C4_10  and  C5_11 
REMARK       I    between atoms: C5_11  and  N2_13 
REMARK    4  A    between atoms: N2_13  and  C6_15 
REMARK    5  A    between atoms: C6_15  and  C7_16 
ROOT
HETATM    1  C1  UNL     1      -5.752   2.611  16.321  1.00  0.00     0.079 A 
HETATM    2  C2  UNL     1      -6.499   3.765  16.060  1.00  0.00     0.026 A 
HETATM    3  C3  UNL     1      -6.115   4.657  15.089  1.00  0.00     0.018 A 
HETATM    4  C4  UNL     1      -4.979   4.441  14.347  1.00  0.00     0.032 A 
HETATM    5  C13 UNL     1      -4.236   3.322  14.583  1.00  0.00     0.018 A 
HETATM    6  C14 UNL     1      -4.622   2.396  15.579  1.00  0.00     0.026 A 
ENDROOT
BRANCH   4   7
HETATM    7  C5  UNL     1      -4.644   5.421  13.337  1.00  0.00     0.251 C 
HETATM    8  O3  UNL     1      -3.445   5.384  12.849  1.00  0.00    -0.268 OA
HETATM    9  N2  UNL     1      -5.544   6.395  12.859  1.00  0.00    -0.353 N 
ATOM     10  H2  UNL     1      -6.489   6.434  13.243  1.00  0.00     0.163 HD
BRANCH   9  11
HETATM   11  C6  UNL     1      -5.159   7.329  11.849  1.00  0.00     0.164 C 
BRANCH  11  12
HETATM   12  C7  UNL     1      -6.153   7.328  10.720  1.00  0.00    -0.002 A 
HETATM   13  C8  UNL     1      -5.934   6.610   9.554  1.00  0.00     0.012 A 
HETATM   14  C9  UNL     1      -6.835   6.673   8.493  1.00  0.00     0.001 A 
HETATM   15  C10 UNL     1      -7.964   7.463   8.599  1.00  0.00     0.003 A 
HETATM   16  C11 UNL     1      -8.202   8.178   9.733  1.00  0.00     0.043 A 
HETATM   17  C12 UNL     1      -7.295   8.099  10.769  1.00  0.00     0.124 A 
HETATM   18  F1  UNL     1      -7.507   8.777  11.941  1.00  0.00    -0.205 F 
ENDBRANCH  11  12
ENDBRANCH   9  11
ENDBRANCH   4   7
BRANCH   1  19
HETATM   19  S1  UNL     1      -6.260   1.482  17.543  1.00  0.00     0.256 S 
HETATM   20  O1  UNL     1      -5.313   0.314  17.635  1.00  0.00    -0.201 OA
HETATM   21  O2  UNL     1      -7.610   0.910  17.139  1.00  0.00    -0.201 OA
BRANCH  19  22
HETATM   22  N1  UNL     1      -6.418   2.199  19.079  1.00  0.00    -0.324 N 
ATOM     23  H12 UNL     1      -6.719   1.705  19.920  1.00  0.00     0.169 HD
ATOM     24  H11 UNL     1      -6.167   3.186  19.017  1.00  0.00     0.169 HD
ENDBRANCH  19  22
ENDBRANCH   1  19
TORSDOF 5
ENDMDL
