MODEL 6
REMARK VINA RESULT: -7.554766852      3.779      5.177
REMARK  5 active torsions:
REMARK  status: ('A' for Active; 'I' for Inactive)
REMARK    1  A    between atoms: N1_1  and  S1_4 
REMARK    2  A    between atoms: S1_4  and  C1_7 
REMARK    3  A    between atoms: C4_10  and  C5_11 
REMARK       I    between atoms: C5_11  and  N2_13 
REMARK    4  A    between atoms: N2_13  and  C6_15 
REMARK    5  A    between atoms: C6_15  and  C7_16 
ROOT
HETATM    1  C1  UNL     1      -5.490   2.390  16.218  1.00  0.00     0.079 A 
HETATM    2  C2  UNL     1      -4.128   2.527  15.929  1.00  0.00     0.026 A 
HETATM    3  C3  UNL     1      -3.657   3.591  15.200  1.00  0.00     0.018 A 
HETATM    4  C4  UNL     1      -4.517   4.554  14.729  1.00  0.00     0.032 A 
HETATM    5  C13 UNL     1      -5.849   4.443  15.001  1.00  0.00     0.018 A 
HETATM    6  C14 UNL     1      -6.344   3.352  15.751  1.00  0.00     0.026 A 
ENDROOT
BRANCH   4   7
HETATM    7  C5  UNL     1      -3.946   5.650  13.977  1.00  0.00     0.251 C 
HETATM    8  O3  UNL     1      -4.769   6.467  13.401  1.00  0.00    -0.268 OA
HETATM    9  N2  UNL     1      -2.561   5.874  13.845  1.00  0.00    -0.353 N 
ATOM     10  H2  UNL     1      -1.905   5.231  14.291  1.00  0.00     0.163 HD
BRANCH   9  11
HETATM   11  C6  UNL     1      -2.056   6.983  13.099  1.00  0.00     0.164 C 
BRANCH  11  12
HETATM   12  C7  UNL     1      -1.472   8.019  14.020  1.00  0.00    -0.002 A 
HETATM   13  C8  UNL     1      -2.054   8.324  15.241  1.00  0.00     0.012 A 
HETATM   14  C9  UNL     1      -1.537   9.332  16.050  1.00  0.00     0.001 A 
HETATM   15  C10 UNL     1      -0.427  10.044  15.634  1.00  0.00     0.003 A 
HETATM   16  C11 UNL     1       0.163   9.763  14.439  1.00  0.00     0.043 A 
HETATM   17  C12 UNL     1      -0.369   8.761  13.656  1.00  0.00     0.124 A 
HETATM   18  F1  UNL     1       0.210   8.424  12.459  1.00  0.00    -0.205 F 
ENDBRANCH  11  12
ENDBRANCH   9  11
ENDBRANCH   4   7
BRANCH   1  19
HETATM   19  S1  UNL     1      -6.068   1.045  17.156  1.00  0.00     0.256 S 
HETATM   20  O1  UNL     1      -5.485   1.057  18.546  1.00  0.00    -0.201 OA
HETATM   21  O2  UNL     1      -5.588  -0.242  16.501  1.00  0.00    -0.201 OA
BRANCH  19  22
HETATM   22  N1  UNL     1      -7.766   0.994  17.260  1.00  0.00    -0.324 N 
ATOM     23  H12 UNL     1      -8.306   1.292  18.073  1.00  0.00     0.169 HD
ATOM     24  H11 UNL     1      -8.146   0.622  16.389  1.00  0.00     0.169 HD
ENDBRANCH  19  22
ENDBRANCH   1  19
TORSDOF 5
ENDMDL
