MODEL 5
REMARK VINA RESULT: -7.566735952      3.416      4.556
REMARK  5 active torsions:
REMARK  status: ('A' for Active; 'I' for Inactive)
REMARK    1  A    between atoms: N1_1  and  S1_4 
REMARK    2  A    between atoms: S1_4  and  C1_7 
REMARK    3  A    between atoms: C4_10  and  C5_11 
REMARK       I    between atoms: C5_11  and  N2_13 
REMARK    4  A    between atoms: N2_13  and  C6_15 
REMARK    5  A    between atoms: C6_15  and  C7_16 
ROOT
HETATM    1  C1  UNL     1      -5.505   2.385  16.220  1.00  0.00     0.079 A 
HETATM    2  C2  UNL     1      -6.403   3.366  15.782  1.00  0.00     0.026 A 
HETATM    3  C3  UNL     1      -5.979   4.434  15.030  1.00  0.00     0.018 A 
HETATM    4  C4  UNL     1      -4.655   4.572  14.689  1.00  0.00     0.032 A 
HETATM    5  C13 UNL     1      -3.763   3.627  15.103  1.00  0.00     0.018 A 
HETATM    6  C14 UNL     1      -4.187   2.522  15.876  1.00  0.00     0.026 A 
ENDROOT
BRANCH   4   7
HETATM    7  C5  UNL     1      -4.287   5.719  13.888  1.00  0.00     0.251 C 
HETATM    8  O3  UNL     1      -5.248   6.399  13.349  1.00  0.00    -0.268 OA
HETATM    9  N2  UNL     1      -2.957   6.131  13.672  1.00  0.00    -0.353 N 
ATOM     10  H2  UNL     1      -2.194   5.598  14.090  1.00  0.00     0.163 HD
BRANCH   9  11
HETATM   11  C6  UNL     1      -2.655   7.282  12.881  1.00  0.00     0.164 C 
BRANCH  11  12
HETATM   12  C7  UNL     1      -2.115   8.390  13.742  1.00  0.00    -0.002 A 
HETATM   13  C8  UNL     1      -1.714   8.171  15.051  1.00  0.00     0.012 A 
HETATM   14  C9  UNL     1      -1.277   9.223  15.854  1.00  0.00     0.001 A 
HETATM   15  C10 UNL     1      -1.243  10.506  15.342  1.00  0.00     0.003 A 
HETATM   16  C11 UNL     1      -1.631  10.748  14.059  1.00  0.00     0.043 A 
HETATM   17  C12 UNL     1      -2.060   9.690  13.286  1.00  0.00     0.124 A 
HETATM   18  F1  UNL     1      -2.432   9.881  11.980  1.00  0.00    -0.205 F 
ENDBRANCH  11  12
ENDBRANCH   9  11
ENDBRANCH   4   7
BRANCH   1  19
HETATM   19  S1  UNL     1      -6.059   1.030  17.158  1.00  0.00     0.256 S 
HETATM   20  O1  UNL     1      -5.458   1.039  18.540  1.00  0.00    -0.201 OA
HETATM   21  O2  UNL     1      -5.577  -0.249  16.489  1.00  0.00    -0.201 OA
BRANCH  19  22
HETATM   22  N1  UNL     1      -7.756   0.964  17.284  1.00  0.00    -0.324 N 
ATOM     23  H12 UNL     1      -8.266   0.322  17.891  1.00  0.00     0.169 HD
ATOM     24  H11 UNL     1      -8.167   1.660  16.662  1.00  0.00     0.169 HD
ENDBRANCH  19  22
ENDBRANCH   1  19
TORSDOF 5
ENDMDL
