MODEL 2
REMARK VINA RESULT: -7.768658630      0.281      1.053
REMARK  5 active torsions:
REMARK  status: ('A' for Active; 'I' for Inactive)
REMARK    1  A    between atoms: N1_1  and  S1_4 
REMARK    2  A    between atoms: S1_4  and  C1_7 
REMARK    3  A    between atoms: C4_10  and  C5_11 
REMARK       I    between atoms: C5_11  and  N2_13 
REMARK    4  A    between atoms: N2_13  and  C6_15 
REMARK    5  A    between atoms: C6_15  and  C7_16 
ROOT
HETATM    1  C1  UNL     1      -5.887   2.560  16.198  1.00  0.00     0.079 A 
HETATM    2  C2  UNL     1      -4.959   2.245  15.199  1.00  0.00     0.026 A 
HETATM    3  C3  UNL     1      -4.644   3.144  14.210  1.00  0.00     0.018 A 
HETATM    4  C4  UNL     1      -5.238   4.382  14.172  1.00  0.00     0.032 A 
HETATM    5  C13 UNL     1      -6.144   4.712  15.137  1.00  0.00     0.018 A 
HETATM    6  C14 UNL     1      -6.475   3.796  16.161  1.00  0.00     0.026 A 
ENDROOT
BRANCH   4   7
HETATM    7  C5  UNL     1      -4.849   5.278  13.105  1.00  0.00     0.251 C 
HETATM    8  O3  UNL     1      -3.852   4.918  12.362  1.00  0.00    -0.268 OA
HETATM    9  N2  UNL     1      -5.494   6.501  12.832  1.00  0.00    -0.353 N 
ATOM     10  H2  UNL     1      -6.278   6.795  13.416  1.00  0.00     0.163 HD
BRANCH   9  11
HETATM   11  C6  UNL     1      -5.072   7.339  11.754  1.00  0.00     0.164 C 
BRANCH  11  12
HETATM   12  C7  UNL     1      -6.093   7.336  10.650  1.00  0.00    -0.002 A 
HETATM   13  C8  UNL     1      -5.902   6.620   9.478  1.00  0.00     0.012 A 
HETATM   14  C9  UNL     1      -6.829   6.681   8.440  1.00  0.00     0.001 A 
HETATM   15  C10 UNL     1      -7.957   7.470   8.575  1.00  0.00     0.003 A 
HETATM   16  C11 UNL     1      -8.168   8.182   9.715  1.00  0.00     0.043 A 
HETATM   17  C12 UNL     1      -7.235   8.104  10.728  1.00  0.00     0.124 A 
HETATM   18  F1  UNL     1      -7.420   8.781  11.906  1.00  0.00    -0.205 F 
ENDBRANCH  11  12
ENDBRANCH   9  11
ENDBRANCH   4   7
BRANCH   1  19
HETATM   19  S1  UNL     1      -6.262   1.417  17.453  1.00  0.00     0.256 S 
HETATM   20  O1  UNL     1      -5.219   0.333  17.536  1.00  0.00    -0.201 OA
HETATM   21  O2  UNL     1      -7.571   0.727  17.101  1.00  0.00    -0.201 OA
BRANCH  19  22
HETATM   22  N1  UNL     1      -6.434   2.147  18.982  1.00  0.00    -0.324 N 
ATOM     23  H12 UNL     1      -7.326   2.412  19.400  1.00  0.00     0.169 HD
ATOM     24  H11 UNL     1      -5.513   2.273  19.400  1.00  0.00     0.169 HD
ENDBRANCH  19  22
ENDBRANCH   1  19
TORSDOF 5
ENDMDL
