MODEL 8
REMARK VINA RESULT: -7.484896983      3.336      4.754
REMARK  5 active torsions:
REMARK  status: ('A' for Active; 'I' for Inactive)
REMARK    1  A    between atoms: N1_1  and  S1_4 
REMARK    2  A    between atoms: S1_4  and  C1_7 
REMARK    3  A    between atoms: C4_10  and  C5_11 
REMARK       I    between atoms: C5_11  and  N2_13 
REMARK    4  A    between atoms: N2_13  and  C6_15 
REMARK    5  A    between atoms: C6_15  and  C7_16 
ROOT
HETATM    1  C1  UNL     1      -5.427   2.306  16.210  1.00  0.00     0.079 A 
HETATM    2  C2  UNL     1      -4.044   2.368  16.004  1.00  0.00     0.026 A 
HETATM    3  C3  UNL     1      -3.482   3.359  15.238  1.00  0.00     0.018 A 
HETATM    4  C4  UNL     1      -4.266   4.319  14.647  1.00  0.00     0.032 A 
HETATM    5  C13 UNL     1      -5.616   4.280  14.836  1.00  0.00     0.018 A 
HETATM    6  C14 UNL     1      -6.206   3.266  15.623  1.00  0.00     0.026 A 
ENDROOT
BRANCH   4   7
HETATM    7  C5  UNL     1      -3.601   5.336  13.862  1.00  0.00     0.251 C 
HETATM    8  O3  UNL     1      -2.696   4.942  13.024  1.00  0.00    -0.268 OA
HETATM    9  N2  UNL     1      -3.886   6.713  13.957  1.00  0.00    -0.353 N 
ATOM     10  H2  UNL     1      -4.595   7.033  14.618  1.00  0.00     0.163 HD
BRANCH   9  11
HETATM   11  C6  UNL     1      -3.204   7.671  13.145  1.00  0.00     0.164 C 
BRANCH  11  12
HETATM   12  C7  UNL     1      -2.351   8.573  13.993  1.00  0.00    -0.002 A 
HETATM   13  C8  UNL     1      -2.045   8.265  15.310  1.00  0.00     0.012 A 
HETATM   14  C9  UNL     1      -1.307   9.144  16.099  1.00  0.00     0.001 A 
HETATM   15  C10 UNL     1      -0.874  10.344  15.567  1.00  0.00     0.003 A 
HETATM   16  C11 UNL     1      -1.161  10.670  14.277  1.00  0.00     0.043 A 
HETATM   17  C12 UNL     1      -1.893   9.782  13.516  1.00  0.00     0.124 A 
HETATM   18  F1  UNL     1      -2.181  10.055  12.203  1.00  0.00    -0.205 F 
ENDBRANCH  11  12
ENDBRANCH   9  11
ENDBRANCH   4   7
BRANCH   1  19
HETATM   19  S1  UNL     1      -6.122   1.054  17.196  1.00  0.00     0.256 S 
HETATM   20  O1  UNL     1      -5.589   1.108  18.605  1.00  0.00    -0.201 OA
HETATM   21  O2  UNL     1      -5.703  -0.295  16.631  1.00  0.00    -0.201 OA
BRANCH  19  22
HETATM   22  N1  UNL     1      -7.823   1.114  17.237  1.00  0.00    -0.324 N 
ATOM     23  H12 UNL     1      -8.390   1.798  16.736  1.00  0.00     0.169 HD
ATOM     24  H11 UNL     1      -8.172   0.365  17.835  1.00  0.00     0.169 HD
ENDBRANCH  19  22
ENDBRANCH   1  19
TORSDOF 5
ENDMDL
