MODEL 10
REMARK VINA RESULT: -7.443862022      3.489      4.861
REMARK  5 active torsions:
REMARK  status: ('A' for Active; 'I' for Inactive)
REMARK    1  A    between atoms: N1_1  and  S1_4 
REMARK    2  A    between atoms: S1_4  and  C1_7 
REMARK    3  A    between atoms: C4_10  and  C5_11 
REMARK       I    between atoms: C5_11  and  N2_13 
REMARK    4  A    between atoms: N2_13  and  C6_15 
REMARK    5  A    between atoms: C6_15  and  C7_16 
ROOT
HETATM    1  C1  UNL     1      -5.517   2.412  16.245  1.00  0.00     0.079 A 
HETATM    2  C2  UNL     1      -6.412   3.427  15.887  1.00  0.00     0.026 A 
HETATM    3  C3  UNL     1      -5.998   4.521  15.168  1.00  0.00     0.018 A 
HETATM    4  C4  UNL     1      -4.686   4.653  14.782  1.00  0.00     0.032 A 
HETATM    5  C13 UNL     1      -3.796   3.675  15.117  1.00  0.00     0.018 A 
HETATM    6  C14 UNL     1      -4.210   2.543  15.856  1.00  0.00     0.026 A 
ENDROOT
BRANCH   4   7
HETATM    7  C5  UNL     1      -4.328   5.828  14.019  1.00  0.00     0.251 C 
HETATM    8  O3  UNL     1      -5.266   6.398  13.333  1.00  0.00    -0.268 OA
HETATM    9  N2  UNL     1      -3.032   6.381  13.990  1.00  0.00    -0.353 N 
ATOM     10  H2  UNL     1      -2.286   5.934  14.525  1.00  0.00     0.163 HD
BRANCH   9  11
HETATM   11  C6  UNL     1      -2.741   7.554  13.228  1.00  0.00     0.164 C 
BRANCH  11  12
HETATM   12  C7  UNL     1      -1.820   8.466  13.989  1.00  0.00    -0.002 A 
HETATM   13  C8  UNL     1      -0.649   8.957  13.430  1.00  0.00     0.012 A 
HETATM   14  C9  UNL     1       0.224   9.749  14.173  1.00  0.00     0.001 A 
HETATM   15  C10 UNL     1      -0.075  10.049  15.488  1.00  0.00     0.003 A 
HETATM   16  C11 UNL     1      -1.218   9.580  16.061  1.00  0.00     0.043 A 
HETATM   17  C12 UNL     1      -2.066   8.798  15.304  1.00  0.00     0.124 A 
HETATM   18  F1  UNL     1      -3.241   8.327  15.829  1.00  0.00    -0.205 F 
ENDBRANCH  11  12
ENDBRANCH   9  11
ENDBRANCH   4   7
BRANCH   1  19
HETATM   19  S1  UNL     1      -6.059   1.025  17.141  1.00  0.00     0.256 S 
HETATM   20  O1  UNL     1      -5.451   0.994  18.520  1.00  0.00    -0.201 OA
HETATM   21  O2  UNL     1      -5.574  -0.229  16.430  1.00  0.00    -0.201 OA
BRANCH  19  22
HETATM   22  N1  UNL     1      -7.754   0.946  17.273  1.00  0.00    -0.324 N 
ATOM     23  H12 UNL     1      -8.274   1.085  18.140  1.00  0.00     0.169 HD
ATOM     24  H11 UNL     1      -8.154   0.739  16.358  1.00  0.00     0.169 HD
ENDBRANCH  19  22
ENDBRANCH   1  19
TORSDOF 5
ENDMDL
