MODEL 7
REMARK VINA RESULT: -6.131825665      1.396      2.399
REMARK  11 active torsions:
REMARK  status: ('A' for Active; 'I' for Inactive)
REMARK    1  A    between atoms: C2_2  and  C3_3 
REMARK    2  A    between atoms: C3_3  and  C4_4 
REMARK    3  A    between atoms: C4_4  and  C5_5 
REMARK    4  A    between atoms: C5_5  and  C6_6 
REMARK    5  A    between atoms: C5_5  and  C8_12 
REMARK    6  A    between atoms: C6_6  and  N1_7 
REMARK    7  A    between atoms: N1_7  and  O1_8 
REMARK    8  A    between atoms: N1_7  and  C7_10 
REMARK       I    between atoms: C8_12  and  N2_14 
REMARK    9  A    between atoms: N2_14  and  C9_16 
REMARK   10  A    between atoms: C9_16  and  C10_17 
REMARK   11  A    between atoms: C9_16  and  C13_22 
REMARK       I    between atoms: C10_17  and  N3_19 
ROOT
HETATM    1  C8  UNL     1      45.831   9.114  13.175  1.00  0.00     0.224 C 
HETATM    2  O3  UNL     1      45.992  10.322  12.900  1.00  0.00    -0.273 OA
HETATM    3  N2  UNL     1      44.669   8.414  12.757  1.00  0.00    -0.347 N 
ATOM      4  H2  UNL     1      44.533   7.427  12.979  1.00  0.00     0.163 HD
ENDROOT
BRANCH   1   5
HETATM    5  C5  UNL     1      46.885   8.405  13.952  1.00  0.00     0.098 C 
BRANCH   5   6
HETATM    6  C4  UNL     1      48.220   8.979  13.592  1.00  0.00     0.016 C 
BRANCH   6   7
HETATM    7  C3  UNL     1      48.788   8.309  12.364  1.00  0.00     0.001 C 
BRANCH   7   8
HETATM    8  C2  UNL     1      48.979   9.336  11.254  1.00  0.00    -0.005 C 
HETATM    9  C1  UNL     1      48.303   8.873   9.987  1.00  0.00     0.005 C 
ENDBRANCH   7   8
ENDBRANCH   6   7
ENDBRANCH   5   6
BRANCH   5  10
HETATM   10  C6  UNL     1      46.800   6.956  13.475  1.00  0.00     0.172 C 
BRANCH  10  11
HETATM   11  N1  UNL     1      46.816   6.017  14.566  1.00  0.00    -0.235 N 
BRANCH  11  12
HETATM   12  O1  UNL     1      45.668   5.629  15.161  1.00  0.00    -0.285 OA
ATOM     13  H1  UNL     1      45.230   6.193  15.787  1.00  0.00     0.245 HD
ENDBRANCH  11  12
BRANCH  11  14
HETATM   14  C7  UNL     1      48.057   5.500  15.009  1.00  0.00     0.376 C 
HETATM   15  O2  UNL     1      48.763   6.154  15.804  1.00  0.00    -0.281 OA
ENDBRANCH  11  14
ENDBRANCH  10  11
ENDBRANCH   5  10
ENDBRANCH   1   5
BRANCH   3  16
HETATM   16  C9  UNL     1      43.673   9.172  11.995  1.00  0.00     0.184 C 
BRANCH  16  17
HETATM   17  C10 UNL     1      42.367   8.852  12.617  1.00  0.00     0.242 C 
HETATM   18  O4  UNL     1      42.150   7.659  13.041  1.00  0.00    -0.271 OA
HETATM   19  N3  UNL     1      41.300   9.761  12.797  1.00  0.00    -0.359 N 
HETATM   20  C11 UNL     1      40.031   9.322  13.401  1.00  0.00     0.152 C 
HETATM   21  C12 UNL     1      41.339  11.164  12.451  1.00  0.00     0.152 C 
ENDBRANCH  16  17
BRANCH  16  22
HETATM   22  C13 UNL     1      43.686   8.696  10.552  1.00  0.00    -0.022 C 
HETATM   23  C14 UNL     1      44.306   7.316  10.444  1.00  0.00     0.017 C 
HETATM   24  C15 UNL     1      42.291   8.676   9.975  1.00  0.00     0.017 C 
HETATM   25  C16 UNL     1      44.534   9.627   9.727  1.00  0.00     0.017 C 
ENDBRANCH  16  22
ENDBRANCH   3  16
TORSDOF 11
ENDMDL
