MODEL 3
REMARK VINA RESULT: -6.235333002      2.043      3.389
REMARK  11 active torsions:
REMARK  status: ('A' for Active; 'I' for Inactive)
REMARK    1  A    between atoms: C2_2  and  C3_3 
REMARK    2  A    between atoms: C3_3  and  C4_4 
REMARK    3  A    between atoms: C4_4  and  C5_5 
REMARK    4  A    between atoms: C5_5  and  C6_6 
REMARK    5  A    between atoms: C5_5  and  C8_12 
REMARK    6  A    between atoms: C6_6  and  N1_7 
REMARK    7  A    between atoms: N1_7  and  O1_8 
REMARK    8  A    between atoms: N1_7  and  C7_10 
REMARK       I    between atoms: C8_12  and  N2_14 
REMARK    9  A    between atoms: N2_14  and  C9_16 
REMARK   10  A    between atoms: C9_16  and  C10_17 
REMARK   11  A    between atoms: C9_16  and  C13_22 
REMARK       I    between atoms: C10_17  and  N3_19 
ROOT
HETATM    1  C8  UNL     1      44.724   6.479  12.864  1.00  0.00     0.224 C 
HETATM    2  O3  UNL     1      44.796   5.830  11.799  1.00  0.00    -0.273 OA
HETATM    3  N2  UNL     1      44.046   7.725  12.921  1.00  0.00    -0.347 N 
ATOM      4  H2  UNL     1      43.984   8.258  13.789  1.00  0.00     0.163 HD
ENDROOT
BRANCH   1   5
HETATM    5  C5  UNL     1      45.363   5.926  14.090  1.00  0.00     0.098 C 
BRANCH   5   6
HETATM    6  C4  UNL     1      46.772   6.426  14.169  1.00  0.00     0.016 C 
BRANCH   6   7
HETATM    7  C3  UNL     1      47.681   5.396  14.794  1.00  0.00     0.001 C 
BRANCH   7   8
HETATM    8  C2  UNL     1      48.898   6.081  15.406  1.00  0.00    -0.005 C 
HETATM    9  C1  UNL     1      49.778   6.657  14.323  1.00  0.00     0.005 C 
ENDBRANCH   7   8
ENDBRANCH   6   7
ENDBRANCH   5   6
BRANCH   5  10
HETATM   10  C6  UNL     1      45.362   4.415  13.872  1.00  0.00     0.172 C 
BRANCH  10  11
HETATM   11  N1  UNL     1      44.046   3.843  13.985  1.00  0.00    -0.235 N 
BRANCH  11  12
HETATM   12  O1  UNL     1      43.319   3.557  12.884  1.00  0.00    -0.285 OA
ATOM     13  H1  UNL     1      42.373   3.643  12.890  1.00  0.00     0.245 HD
ENDBRANCH  11  12
BRANCH  11  14
HETATM   14  C7  UNL     1      43.520   3.582  15.273  1.00  0.00     0.376 C 
HETATM   15  O2  UNL     1      42.332   3.861  15.537  1.00  0.00    -0.281 OA
ENDBRANCH  11  14
ENDBRANCH  10  11
ENDBRANCH   5  10
ENDBRANCH   1   5
BRANCH   3  16
HETATM   16  C9  UNL     1      43.439   8.210  11.679  1.00  0.00     0.184 C 
BRANCH  16  17
HETATM   17  C10 UNL     1      44.402   9.186  11.118  1.00  0.00     0.242 C 
HETATM   18  O4  UNL     1      44.937  10.057  11.896  1.00  0.00    -0.271 OA
HETATM   19  N3  UNL     1      44.807   9.253   9.766  1.00  0.00    -0.359 N 
HETATM   20  C11 UNL     1      45.750  10.290   9.314  1.00  0.00     0.152 C 
HETATM   21  C12 UNL     1      44.383   8.342   8.727  1.00  0.00     0.152 C 
ENDBRANCH  16  17
BRANCH  16  22
HETATM   22  C13 UNL     1      42.130   8.911  12.008  1.00  0.00    -0.022 C 
HETATM   23  C14 UNL     1      41.316   8.098  12.996  1.00  0.00     0.017 C 
HETATM   24  C15 UNL     1      42.380  10.291  12.566  1.00  0.00     0.017 C 
HETATM   25  C16 UNL     1      41.305   9.040  10.756  1.00  0.00     0.017 C 
ENDBRANCH  16  22
ENDBRANCH   3  16
TORSDOF 11
ENDMDL
