MODEL 2
REMARK VINA RESULT: -6.342190464      1.951      3.374
REMARK  11 active torsions:
REMARK  status: ('A' for Active; 'I' for Inactive)
REMARK    1  A    between atoms: C2_2  and  C3_3 
REMARK    2  A    between atoms: C3_3  and  C4_4 
REMARK    3  A    between atoms: C4_4  and  C5_5 
REMARK    4  A    between atoms: C5_5  and  C6_6 
REMARK    5  A    between atoms: C5_5  and  C8_12 
REMARK    6  A    between atoms: C6_6  and  N1_7 
REMARK    7  A    between atoms: N1_7  and  O1_8 
REMARK    8  A    between atoms: N1_7  and  C7_10 
REMARK       I    between atoms: C8_12  and  N2_14 
REMARK    9  A    between atoms: N2_14  and  C9_16 
REMARK   10  A    between atoms: C9_16  and  C10_17 
REMARK   11  A    between atoms: C9_16  and  C13_22 
REMARK       I    between atoms: C10_17  and  N3_19 
ROOT
HETATM    1  C8  UNL     1      45.878   7.646  13.460  1.00  0.00     0.224 C 
HETATM    2  O3  UNL     1      46.316   8.815  13.498  1.00  0.00    -0.273 OA
HETATM    3  N2  UNL     1      44.637   7.347  12.839  1.00  0.00    -0.347 N 
ATOM      4  H2  UNL     1      44.275   6.394  12.804  1.00  0.00     0.163 HD
ENDROOT
BRANCH   1   5
HETATM    5  C5  UNL     1      46.681   6.554  14.077  1.00  0.00     0.098 C 
BRANCH   5   6
HETATM    6  C4  UNL     1      45.751   5.589  14.745  1.00  0.00     0.016 C 
BRANCH   6   7
HETATM    7  C3  UNL     1      45.676   4.288  13.984  1.00  0.00     0.001 C 
BRANCH   7   8
HETATM    8  C2  UNL     1      44.225   3.969  13.643  1.00  0.00    -0.005 C 
HETATM    9  C1  UNL     1      43.313   4.405  14.765  1.00  0.00     0.005 C 
ENDBRANCH   7   8
ENDBRANCH   6   7
ENDBRANCH   5   6
BRANCH   5  10
HETATM   10  C6  UNL     1      47.538   7.257  15.127  1.00  0.00     0.172 C 
BRANCH  10  11
HETATM   11  N1  UNL     1      48.860   6.696  15.223  1.00  0.00    -0.235 N 
BRANCH  11  12
HETATM   12  O1  UNL     1      49.270   6.082  16.353  1.00  0.00    -0.285 OA
ATOM     13  H1  UNL     1      49.847   5.328  16.315  1.00  0.00     0.245 HD
ENDBRANCH  11  12
BRANCH  11  14
HETATM   14  C7  UNL     1      49.730   6.796  14.111  1.00  0.00     0.376 C 
HETATM   15  O2  UNL     1      50.798   6.150  14.087  1.00  0.00    -0.281 OA
ENDBRANCH  11  14
ENDBRANCH  10  11
ENDBRANCH   5  10
ENDBRANCH   1   5
BRANCH   3  16
HETATM   16  C9  UNL     1      43.899   8.468  12.251  1.00  0.00     0.184 C 
BRANCH  16  17
HETATM   17  C10 UNL     1      42.483   8.257  12.629  1.00  0.00     0.242 C 
HETATM   18  O4  UNL     1      42.040   7.058  12.755  1.00  0.00    -0.271 OA
HETATM   19  N3  UNL     1      41.539   9.279  12.878  1.00  0.00    -0.359 N 
HETATM   20  C11 UNL     1      40.145   8.950  13.217  1.00  0.00     0.152 C 
HETATM   21  C12 UNL     1      41.826  10.696  12.854  1.00  0.00     0.152 C 
ENDBRANCH  16  17
BRANCH  16  22
HETATM   22  C13 UNL     1      44.040   8.415  10.738  1.00  0.00    -0.022 C 
HETATM   23  C14 UNL     1      44.579   7.069  10.293  1.00  0.00     0.017 C 
HETATM   24  C15 UNL     1      42.718   8.685  10.061  1.00  0.00     0.017 C 
HETATM   25  C16 UNL     1      45.031   9.457  10.292  1.00  0.00     0.017 C 
ENDBRANCH  16  22
ENDBRANCH   3  16
TORSDOF 11
ENDMDL
