MODEL 4
REMARK VINA RESULT: -7.725412144      4.409      7.100
REMARK  13 active torsions:
REMARK  status: ('A' for Active; 'I' for Inactive)
REMARK       I    between atoms: N1_2  and  C2_4 
REMARK    1  A    between atoms: C2_4  and  C3_6 
REMARK    2  A    between atoms: C7_10  and  C8_11 
REMARK    3  A    between atoms: C8_11  and  N2_12 
REMARK    4  A    between atoms: C9_13  and  C10_14 
REMARK    5  A    between atoms: C10_14  and  O2_15 
REMARK    6  A    between atoms: O2_15  and  C11_16 
REMARK    7  A    between atoms: C17_22  and  O3_23 
REMARK    8  A    between atoms: C18_25  and  O4_26 
REMARK    9  A    between atoms: C19_28  and  C20_29 
REMARK   10  A    between atoms: C20_29  and  O5_30 
REMARK   11  A    between atoms: O5_30  and  C21_31 
REMARK   12  A    between atoms: N3_37  and  C27_38 
REMARK   13  A    between atoms: C27_38  and  C28_39 
ROOT
HETATM    1  N2  UNL     1      12.474  22.408   6.681  1.00  0.00    -0.180 NA
HETATM    2  C9  UNL     1      13.544  23.186   6.102  1.00  0.00     0.131 C 
HETATM    3  C17 UNL     1      13.096  24.064   4.969  1.00  0.00     0.169 C 
HETATM    4  C18 UNL     1      12.688  25.433   5.334  1.00  0.00     0.174 C 
HETATM    5  C19 UNL     1      11.415  25.655   6.029  1.00  0.00     0.152 C 
HETATM    6  N3  UNL     1      10.896  24.665   6.870  1.00  0.00    -0.284 N 
HETATM    7  S1  UNL     1      10.909  23.064   6.453  1.00  0.00     0.302 S 
HETATM    8  O6  UNL     1      10.325  22.721   5.100  1.00  0.00    -0.188 OA
HETATM    9  O7  UNL     1      10.003  22.313   7.433  1.00  0.00    -0.188 OA
ENDROOT
BRANCH   1  10
HETATM   10  C8  UNL     1      12.544  21.011   6.311  1.00  0.00     0.148 C 
BRANCH  10  11
HETATM   11  C7  UNL     1      13.571  20.777   5.266  1.00  0.00    -0.043 A 
HETATM   12  C6  UNL     1      13.370  21.127   3.946  1.00  0.00     0.008 A 
HETATM   13  C5  UNL     1      14.332  20.913   2.975  1.00  0.00     0.002 A 
HETATM   14  C4  UNL     1      15.547  20.319   3.346  1.00  0.00     0.017 A 
HETATM   15  C3  UNL     1      15.785  19.956   4.650  1.00  0.00     0.032 A 
HETATM   16  C34 UNL     1      14.783  20.199   5.566  1.00  0.00     0.025 A 
BRANCH  15  17
HETATM   17  C2  UNL     1      17.047  19.343   5.029  1.00  0.00     0.251 C 
HETATM   18  N1  UNL     1      17.209  18.026   5.468  1.00  0.00    -0.361 N 
HETATM   19  C1  UNL     1      18.498  17.455   5.838  1.00  0.00     0.149 C 
ATOM     20  H1  UNL     1      16.381  17.434   5.532  1.00  0.00     0.162 HD
HETATM   21  O1  UNL     1      18.098  20.062   4.959  1.00  0.00    -0.268 OA
ENDBRANCH  15  17
ENDBRANCH  10  11
ENDBRANCH   1  10
BRANCH   2  22
HETATM   22  C10 UNL     1      14.255  23.943   7.183  1.00  0.00     0.199 C 
BRANCH  22  23
HETATM   23  O2  UNL     1      15.424  23.395   7.667  1.00  0.00    -0.349 OA
BRANCH  23  24
HETATM   24  C11 UNL     1      15.738  22.239   8.287  1.00  0.00     0.068 A 
HETATM   25  C12 UNL     1      16.998  21.689   7.998  1.00  0.00     0.037 A 
HETATM   26  C13 UNL     1      17.434  20.514   8.565  1.00  0.00     0.003 A 
HETATM   27  C14 UNL     1      16.609  19.852   9.446  1.00  0.00     0.000 A 
HETATM   28  C15 UNL     1      15.368  20.353   9.757  1.00  0.00     0.003 A 
HETATM   29  C16 UNL     1      14.963  21.539   9.166  1.00  0.00     0.037 A 
ENDBRANCH  23  24
ENDBRANCH  22  23
ENDBRANCH   2  22
BRANCH   3  30
HETATM   30  O3  UNL     1      14.240  24.215   4.136  1.00  0.00    -0.391 OA
ATOM     31  H3  UNL     1      13.921  24.096   3.249  1.00  0.00     0.210 HD
ENDBRANCH   3  30
BRANCH   6  32
HETATM   32  C27 UNL     1      10.720  24.994   8.238  1.00  0.00     0.175 C 
BRANCH  32  33
HETATM   33  C28 UNL     1       9.691  26.047   8.470  1.00  0.00    -0.040 A 
HETATM   34  C29 UNL     1      10.033  27.224   9.102  1.00  0.00     0.009 A 
HETATM   35  C30 UNL     1       9.073  28.216   9.324  1.00  0.00     0.001 A 
HETATM   36  C31 UNL     1       7.760  28.048   8.918  1.00  0.00     0.000 A 
HETATM   37  C32 UNL     1       7.436  26.872   8.291  1.00  0.00     0.001 A 
HETATM   38  C33 UNL     1       8.382  25.887   8.068  1.00  0.00     0.009 A 
ENDBRANCH  32  33
ENDBRANCH   6  32
BRANCH   4  39
HETATM   39  O4  UNL     1      12.617  26.157   4.112  1.00  0.00    -0.391 OA
ATOM     40  H4  UNL     1      12.381  25.521   3.446  1.00  0.00     0.210 HD
ENDBRANCH   4  39
BRANCH   5  41
HETATM   41  C20 UNL     1      10.325  26.170   5.071  1.00  0.00     0.204 C 
BRANCH  41  42
HETATM   42  O5  UNL     1      10.067  25.267   4.052  1.00  0.00    -0.349 OA
BRANCH  42  43
HETATM   43  C21 UNL     1       8.924  25.289   3.312  1.00  0.00     0.068 A 
HETATM   44  C22 UNL     1       7.855  24.468   3.664  1.00  0.00     0.037 A 
HETATM   45  C23 UNL     1       6.702  24.498   2.909  1.00  0.00     0.003 A 
HETATM   46  C24 UNL     1       6.627  25.342   1.818  1.00  0.00     0.000 A 
HETATM   47  C25 UNL     1       7.686  26.162   1.460  1.00  0.00     0.003 A 
HETATM   48  C26 UNL     1       8.836  26.125   2.221  1.00  0.00     0.037 A 
ENDBRANCH  42  43
ENDBRANCH  41  42
ENDBRANCH   5  41
TORSDOF 13
ENDMDL
