MODEL 2
REMARK VINA RESULT: -8.320295623      0.828      1.250
REMARK  13 active torsions:
REMARK  status: ('A' for Active; 'I' for Inactive)
REMARK       I    between atoms: N1_2  and  C2_4 
REMARK    1  A    between atoms: C2_4  and  C3_6 
REMARK    2  A    between atoms: C7_10  and  C8_11 
REMARK    3  A    between atoms: C8_11  and  N2_12 
REMARK    4  A    between atoms: C9_13  and  C10_14 
REMARK    5  A    between atoms: C10_14  and  O2_15 
REMARK    6  A    between atoms: O2_15  and  C11_16 
REMARK    7  A    between atoms: C17_22  and  O3_23 
REMARK    8  A    between atoms: C18_25  and  O4_26 
REMARK    9  A    between atoms: C19_28  and  C20_29 
REMARK   10  A    between atoms: C20_29  and  O5_30 
REMARK   11  A    between atoms: O5_30  and  C21_31 
REMARK   12  A    between atoms: N3_37  and  C27_38 
REMARK   13  A    between atoms: C27_38  and  C28_39 
ROOT
HETATM    1  N2  UNL     1       7.995  26.529   5.456  1.00  0.00    -0.180 NA
HETATM    2  C9  UNL     1       8.545  27.169   6.627  1.00  0.00     0.131 C 
HETATM    3  C17 UNL     1       7.993  28.545   6.868  1.00  0.00     0.169 C 
HETATM    4  C18 UNL     1       6.806  28.623   7.739  1.00  0.00     0.174 C 
HETATM    5  C19 UNL     1       5.502  28.170   7.238  1.00  0.00     0.152 C 
HETATM    6  N3  UNL     1       5.436  27.157   6.277  1.00  0.00    -0.284 N 
HETATM    7  S1  UNL     1       6.458  27.112   4.977  1.00  0.00     0.302 S 
HETATM    8  O6  UNL     1       6.546  28.377   4.152  1.00  0.00    -0.188 OA
HETATM    9  O7  UNL     1       5.917  26.077   3.986  1.00  0.00    -0.188 OA
ENDROOT
BRANCH   1  10
HETATM   10  C8  UNL     1       8.935  26.489   4.356  1.00  0.00     0.148 C 
BRANCH  10  11
HETATM   11  C7  UNL     1       9.326  25.096   4.025  1.00  0.00    -0.043 A 
HETATM   12  C6  UNL     1       8.412  24.162   3.582  1.00  0.00     0.008 A 
HETATM   13  C5  UNL     1       8.780  22.866   3.268  1.00  0.00     0.002 A 
HETATM   14  C4  UNL     1      10.125  22.492   3.408  1.00  0.00     0.017 A 
HETATM   15  C3  UNL     1      11.065  23.393   3.847  1.00  0.00     0.032 A 
HETATM   16  C34 UNL     1      10.628  24.668   4.141  1.00  0.00     0.025 A 
BRANCH  15  17
HETATM   17  C2  UNL     1      12.457  23.001   3.988  1.00  0.00     0.251 C 
HETATM   18  N1  UNL     1      13.519  23.868   4.262  1.00  0.00    -0.361 N 
HETATM   19  C1  UNL     1      14.903  23.428   4.394  1.00  0.00     0.149 C 
ATOM     20  H1  UNL     1      13.315  24.861   4.375  1.00  0.00     0.162 HD
HETATM   21  O1  UNL     1      12.740  21.766   3.850  1.00  0.00    -0.268 OA
ENDBRANCH  15  17
ENDBRANCH  10  11
ENDBRANCH   1  10
BRANCH   2  22
HETATM   22  C10 UNL     1       8.394  26.264   7.811  1.00  0.00     0.199 C 
BRANCH  22  23
HETATM   23  O2  UNL     1       8.838  24.966   7.669  1.00  0.00    -0.349 OA
BRANCH  23  24
HETATM   24  C11 UNL     1      10.055  24.387   7.616  1.00  0.00     0.068 A 
HETATM   25  C12 UNL     1      10.084  22.991   7.455  1.00  0.00     0.037 A 
HETATM   26  C13 UNL     1      11.261  22.283   7.388  1.00  0.00     0.003 A 
HETATM   27  C14 UNL     1      12.454  22.963   7.483  1.00  0.00     0.000 A 
HETATM   28  C15 UNL     1      12.474  24.327   7.641  1.00  0.00     0.003 A 
HETATM   29  C16 UNL     1      11.268  25.007   7.704  1.00  0.00     0.037 A 
ENDBRANCH  23  24
ENDBRANCH  22  23
ENDBRANCH   2  22
BRANCH   3  30
HETATM   30  O3  UNL     1       9.020  29.247   7.558  1.00  0.00    -0.391 OA
ATOM     31  H3  UNL     1       8.989  30.134   7.220  1.00  0.00     0.210 HD
ENDBRANCH   3  30
BRANCH   6  32
HETATM   32  C27 UNL     1       4.757  25.963   6.630  1.00  0.00     0.175 C 
BRANCH  32  33
HETATM   33  C28 UNL     1       3.280  26.042   6.450  1.00  0.00    -0.040 A 
HETATM   34  C29 UNL     1       2.712  25.749   5.228  1.00  0.00     0.009 A 
HETATM   35  C30 UNL     1       1.327  25.823   5.052  1.00  0.00     0.001 A 
HETATM   36  C31 UNL     1       0.489  26.190   6.092  1.00  0.00     0.000 A 
HETATM   37  C32 UNL     1       1.069  26.478   7.300  1.00  0.00     0.001 A 
HETATM   38  C33 UNL     1       2.440  26.407   7.481  1.00  0.00     0.009 A 
ENDBRANCH  32  33
ENDBRANCH   6  32
BRANCH   4  39
HETATM   39  O4  UNL     1       6.659  29.996   8.076  1.00  0.00    -0.391 OA
ATOM     40  H4  UNL     1       6.742  30.043   9.021  1.00  0.00     0.210 HD
ENDBRANCH   4  39
BRANCH   5  41
HETATM   41  C20 UNL     1       4.607  29.355   6.831  1.00  0.00     0.204 C 
BRANCH  41  42
HETATM   42  O5  UNL     1       4.058  29.176   5.570  1.00  0.00    -0.349 OA
BRANCH  42  43
HETATM   43  C21 UNL     1       2.745  29.412   5.292  1.00  0.00     0.068 A 
HETATM   44  C22 UNL     1       2.256  29.172   4.011  1.00  0.00     0.037 A 
HETATM   45  C23 UNL     1       0.927  29.413   3.738  1.00  0.00     0.003 A 
HETATM   46  C24 UNL     1       0.103  29.887   4.741  1.00  0.00     0.000 A 
HETATM   47  C25 UNL     1       0.582  30.128   6.020  1.00  0.00     0.003 A 
HETATM   48  C26 UNL     1       1.914  29.885   6.283  1.00  0.00     0.037 A 
ENDBRANCH  42  43
ENDBRANCH  41  42
ENDBRANCH   5  41
TORSDOF 13
ENDMDL
