MODEL 1
REMARK VINA RESULT: -8.733880028      0.000      0.000
REMARK  13 active torsions:
REMARK  status: ('A' for Active; 'I' for Inactive)
REMARK       I    between atoms: N1_2  and  C2_4 
REMARK    1  A    between atoms: C2_4  and  C3_6 
REMARK    2  A    between atoms: C7_10  and  C8_11 
REMARK    3  A    between atoms: C8_11  and  N2_12 
REMARK    4  A    between atoms: C9_13  and  C10_14 
REMARK    5  A    between atoms: C10_14  and  O2_15 
REMARK    6  A    between atoms: O2_15  and  C11_16 
REMARK    7  A    between atoms: C17_22  and  O3_23 
REMARK    8  A    between atoms: C18_25  and  O4_26 
REMARK    9  A    between atoms: C19_28  and  C20_29 
REMARK   10  A    between atoms: C20_29  and  O5_30 
REMARK   11  A    between atoms: O5_30  and  C21_31 
REMARK   12  A    between atoms: N3_37  and  C27_38 
REMARK   13  A    between atoms: C27_38  and  C28_39 
ROOT
HETATM    1  N2  UNL     1       8.125  26.568   5.443  1.00  0.00    -0.180 NA
HETATM    2  C9  UNL     1       8.571  27.149   6.688  1.00  0.00     0.131 C 
HETATM    3  C17 UNL     1       8.080  28.552   6.899  1.00  0.00     0.169 C 
HETATM    4  C18 UNL     1       6.805  28.690   7.626  1.00  0.00     0.174 C 
HETATM    5  C19 UNL     1       5.545  28.333   6.964  1.00  0.00     0.152 C 
HETATM    6  N3  UNL     1       5.530  27.346   5.974  1.00  0.00    -0.284 N 
HETATM    7  S1  UNL     1       6.695  27.259   4.803  1.00  0.00     0.302 S 
HETATM    8  O6  UNL     1       6.960  28.532   4.028  1.00  0.00    -0.188 OA
HETATM    9  O7  UNL     1       6.213  26.281   3.727  1.00  0.00    -0.188 OA
ENDROOT
BRANCH   1  10
HETATM   10  C8  UNL     1       9.185  26.489   4.460  1.00  0.00     0.148 C 
BRANCH  10  11
HETATM   11  C7  UNL     1       9.506  25.081   4.119  1.00  0.00    -0.043 A 
HETATM   12  C6  UNL     1       8.539  24.185   3.710  1.00  0.00     0.008 A 
HETATM   13  C5  UNL     1       8.843  22.874   3.387  1.00  0.00     0.002 A 
HETATM   14  C4  UNL     1      10.174  22.446   3.481  1.00  0.00     0.017 A 
HETATM   15  C3  UNL     1      11.166  23.307   3.885  1.00  0.00     0.032 A 
HETATM   16  C34 UNL     1      10.792  24.600   4.191  1.00  0.00     0.025 A 
BRANCH  15  17
HETATM   17  C2  UNL     1      12.545  22.858   3.977  1.00  0.00     0.251 C 
HETATM   18  N1  UNL     1      13.655  23.685   4.170  1.00  0.00    -0.361 N 
HETATM   19  C1  UNL     1      15.023  23.188   4.257  1.00  0.00     0.149 C 
ATOM     20  H1  UNL     1      13.500  24.690   4.254  1.00  0.00     0.162 HD
HETATM   21  O1  UNL     1      12.767  21.607   3.875  1.00  0.00    -0.268 OA
ENDBRANCH  15  17
ENDBRANCH  10  11
ENDBRANCH   1  10
BRANCH   2  22
HETATM   22  C10 UNL     1       8.224  26.231   7.821  1.00  0.00     0.199 C 
BRANCH  22  23
HETATM   23  O2  UNL     1       8.727  24.949   7.766  1.00  0.00    -0.349 OA
BRANCH  23  24
HETATM   24  C11 UNL     1       9.967  24.426   7.671  1.00  0.00     0.068 A 
HETATM   25  C12 UNL     1      10.054  23.033   7.508  1.00  0.00     0.037 A 
HETATM   26  C13 UNL     1      11.260  22.380   7.400  1.00  0.00     0.003 A 
HETATM   27  C14 UNL     1      12.423  23.115   7.455  1.00  0.00     0.000 A 
HETATM   28  C15 UNL     1      12.385  24.478   7.614  1.00  0.00     0.003 A 
HETATM   29  C16 UNL     1      11.153  25.101   7.718  1.00  0.00     0.037 A 
ENDBRANCH  23  24
ENDBRANCH  22  23
ENDBRANCH   2  22
BRANCH   3  30
HETATM   30  O3  UNL     1       9.060  29.172   7.725  1.00  0.00    -0.391 OA
ATOM     31  H3  UNL     1       8.755  30.063   7.850  1.00  0.00     0.210 HD
ENDBRANCH   3  30
BRANCH   6  32
HETATM   32  C27 UNL     1       4.741  26.191   6.212  1.00  0.00     0.175 C 
BRANCH  32  33
HETATM   33  C28 UNL     1       3.367  26.281   5.642  1.00  0.00    -0.040 A 
HETATM   34  C29 UNL     1       2.350  25.504   6.154  1.00  0.00     0.009 A 
HETATM   35  C30 UNL     1       1.059  25.583   5.623  1.00  0.00     0.001 A 
HETATM   36  C31 UNL     1       0.765  26.438   4.575  1.00  0.00     0.000 A 
HETATM   37  C32 UNL     1       1.787  27.204   4.077  1.00  0.00     0.001 A 
HETATM   38  C33 UNL     1       3.067  27.131   4.598  1.00  0.00     0.009 A 
ENDBRANCH  32  33
ENDBRANCH   6  32
BRANCH   4  39
HETATM   39  O4  UNL     1       6.705  30.063   7.981  1.00  0.00    -0.391 OA
ATOM     40  H4  UNL     1       5.781  30.226   8.132  1.00  0.00     0.210 HD
ENDBRANCH   4  39
BRANCH   5  41
HETATM   41  C20 UNL     1       4.780  29.581   6.487  1.00  0.00     0.204 C 
BRANCH  41  42
HETATM   42  O5  UNL     1       3.823  29.982   7.407  1.00  0.00    -0.349 OA
BRANCH  42  43
HETATM   43  C21 UNL     1       2.519  29.597   7.338  1.00  0.00     0.068 A 
HETATM   44  C22 UNL     1       1.678  30.171   6.387  1.00  0.00     0.037 A 
HETATM   45  C23 UNL     1       0.359  29.775   6.324  1.00  0.00     0.003 A 
HETATM   46  C24 UNL     1      -0.105  28.816   7.205  1.00  0.00     0.000 A 
HETATM   47  C25 UNL     1       0.726  28.240   8.154  1.00  0.00     0.003 A 
HETATM   48  C26 UNL     1       2.044  28.643   8.210  1.00  0.00     0.037 A 
ENDBRANCH  42  43
ENDBRANCH  41  42
ENDBRANCH   5  41
TORSDOF 13
ENDMDL
