MODEL 10
REMARK VINA RESULT: -8.797852749      2.898      9.098
REMARK  13 active torsions:
REMARK  status: ('A' for Active; 'I' for Inactive)
REMARK    1  A    between atoms: C2_2  and  O1_3 
REMARK    2  A    between atoms: O1_3  and  C3_4 
REMARK    3  A    between atoms: C3_4  and  C4_6 
REMARK    4  A    between atoms: C4_6  and  O3_7 
REMARK    5  A    between atoms: O3_7  and  N1_8 
REMARK    6  A    between atoms: C5_10  and  C6_11 
REMARK    7  A    between atoms: C5_10  and  C11_18 
REMARK    8  A    between atoms: C11_18  and  C12_19 
REMARK    9  A    between atoms: C18_27  and  C19_28 
REMARK   10  A    between atoms: C19_28  and  N4_29 
REMARK   11  A    between atoms: N4_29  and  C20_31 
REMARK   12  A    between atoms: C23_34  and  C24_35 
REMARK   13  A    between atoms: C24_35  and  N6_37 
ROOT
HETATM    1  C12 UNL     1       6.553   7.766  21.279  1.00  0.00    -0.041 A 
HETATM    2  C13 UNL     1       5.356   7.885  20.641  1.00  0.00     0.011 A 
HETATM    3  C14 UNL     1       4.884   6.808  19.878  1.00  0.00     0.033 A 
HETATM    4  C15 UNL     1       5.597   5.641  19.758  1.00  0.00     0.062 A 
HETATM    5  C16 UNL     1       6.819   5.534  20.418  1.00  0.00     0.061 A 
HETATM    6  C17 UNL     1       7.272   6.609  21.168  1.00  0.00     0.040 A 
HETATM    7  N3  UNL     1       7.282   4.310  20.138  1.00  0.00    -0.343 N 
ATOM      8  H3  UNL     1       8.168   3.940  20.483  1.00  0.00     0.167 HD
HETATM    9  C18 UNL     1       6.451   3.640  19.361  1.00  0.00     0.102 A 
HETATM   10  N7  UNL     1       5.410   4.469  19.127  1.00  0.00    -0.338 N 
HETATM   11  C27 UNL     1       4.273   4.105  18.307  1.00  0.00     0.158 C 
ENDROOT
BRANCH   1  12
HETATM   12  C11 UNL     1       7.073   8.929  22.131  1.00  0.00     0.034 A 
HETATM   13  C28 UNL     1       6.515  10.252  21.654  1.00  0.00     0.022 A 
HETATM   14  C29 UNL     1       7.959   9.886  21.491  1.00  0.00     0.022 A 
BRANCH  12  15
HETATM   15  C5  UNL     1       6.928   8.663  23.562  1.00  0.00     0.072 C 
HETATM   16  N1  UNL     1       5.839   8.514  24.118  1.00  0.00    -0.267 N 
ATOM     17  H1  UNL     1       5.988   8.266  25.096  1.00  0.00     0.194 HD
BRANCH  16  18
HETATM   18  O3  UNL     1       4.618   8.565  23.886  1.00  0.00    -0.270 OA
BRANCH  18  19
HETATM   19  C4  UNL     1       3.413   8.001  23.661  1.00  0.00     0.312 C 
BRANCH  19  20
HETATM   20  C3  UNL     1       3.183   6.770  24.522  1.00  0.00     0.285 C 
HETATM   21  O2  UNL     1       2.589   6.797  25.604  1.00  0.00    -0.263 OA
BRANCH  20  22
HETATM   22  O1  UNL     1       3.675   5.575  24.049  1.00  0.00    -0.320 OA
BRANCH  22  23
HETATM   23  C2  UNL     1       3.217   5.009  22.850  1.00  0.00     0.174 C 
HETATM   24  C1  UNL     1       4.148   3.838  22.522  1.00  0.00     0.034 C 
ENDBRANCH  22  23
ENDBRANCH  20  22
ENDBRANCH  19  20
ENDBRANCH  18  19
ENDBRANCH  16  18
BRANCH  15  25
HETATM   25  C6  UNL     1       8.180   8.473  24.325  1.00  0.00     0.057 A 
HETATM   26  C7  UNL     1       9.365   9.088  23.963  1.00  0.00     0.031 A 
HETATM   27  C8  UNL     1      10.535   8.878  24.701  1.00  0.00     0.004 A 
HETATM   28  C9  UNL     1      10.530   8.058  25.798  1.00  0.00     0.017 A 
HETATM   29  C10 UNL     1       9.335   7.459  26.133  1.00  0.00     0.088 A 
HETATM   30  N2  UNL     1       8.227   7.673  25.413  1.00  0.00    -0.364 N 
ATOM     31  H2  UNL     1       7.368   7.206  25.703  1.00  0.00     0.165 HD
ENDBRANCH  15  25
ENDBRANCH  12  15
ENDBRANCH   1  12
BRANCH   9  32
HETATM   32  C19 UNL     1       6.645   2.254  18.868  1.00  0.00     0.196 C 
BRANCH  32  33
HETATM   33  N4  UNL     1       7.361   2.311  17.630  1.00  0.00    -0.383 N 
ATOM     34  H4  UNL     1       7.247   3.118  17.017  1.00  0.00     0.160 HD
BRANCH  33  35
HETATM   35  C20 UNL     1       8.221   1.263  17.249  1.00  0.00     0.028 A 
HETATM   36  C21 UNL     1       9.410   1.065  17.894  1.00  0.00     0.030 A 
HETATM   37  C22 UNL     1      10.251   0.034  17.500  1.00  0.00     0.017 A 
HETATM   38  C23 UNL     1       9.958  -0.827  16.473  1.00  0.00     0.005 A 
HETATM   39  C25 UNL     1       8.728  -0.592  15.834  1.00  0.00     0.017 A 
HETATM   40  C26 UNL     1       7.881   0.424  16.210  1.00  0.00     0.030 A 
BRANCH  38  41
HETATM   41  C24 UNL     1      10.809  -1.912  16.029  1.00  0.00     0.120 C 
HETATM   42  N5  UNL     1      10.214  -3.135  15.645  1.00  0.00    -0.082 NA
BRANCH  41  43
HETATM   43  N6  UNL     1      12.076  -1.788  15.976  1.00  0.00    -0.387 N 
ATOM     44  H62 UNL     1      12.524  -1.005  16.452  1.00  0.00     0.157 HD
ATOM     45  H61 UNL     1      12.657  -2.455  15.468  1.00  0.00     0.157 HD
ENDBRANCH  41  43
ENDBRANCH  38  41
ENDBRANCH  33  35
ENDBRANCH  32  33
ENDBRANCH   9  32
TORSDOF 13
ENDMDL
