MODEL 4
REMARK VINA RESULT: -9.282149792      1.412      1.810
REMARK  13 active torsions:
REMARK  status: ('A' for Active; 'I' for Inactive)
REMARK    1  A    between atoms: C2_2  and  O1_3 
REMARK    2  A    between atoms: O1_3  and  C3_4 
REMARK    3  A    between atoms: C3_4  and  C4_6 
REMARK    4  A    between atoms: C4_6  and  O3_7 
REMARK    5  A    between atoms: O3_7  and  N1_8 
REMARK    6  A    between atoms: C5_10  and  C6_11 
REMARK    7  A    between atoms: C5_10  and  C11_18 
REMARK    8  A    between atoms: C11_18  and  C12_19 
REMARK    9  A    between atoms: C18_27  and  C19_28 
REMARK   10  A    between atoms: C19_28  and  N4_29 
REMARK   11  A    between atoms: N4_29  and  C20_31 
REMARK   12  A    between atoms: C23_34  and  C24_35 
REMARK   13  A    between atoms: C24_35  and  N6_37 
ROOT
HETATM    1  C12 UNL     1       6.674   4.016  19.684  1.00  0.00    -0.041 A 
HETATM    2  C13 UNL     1       6.962   4.551  18.465  1.00  0.00     0.011 A 
HETATM    3  C14 UNL     1       7.303   5.909  18.384  1.00  0.00     0.033 A 
HETATM    4  C15 UNL     1       7.355   6.708  19.499  1.00  0.00     0.062 A 
HETATM    5  C16 UNL     1       7.060   6.145  20.738  1.00  0.00     0.061 A 
HETATM    6  C17 UNL     1       6.723   4.801  20.801  1.00  0.00     0.040 A 
HETATM    7  N3  UNL     1       7.194   7.132  21.632  1.00  0.00    -0.343 N 
ATOM      8  H3  UNL     1       7.039   7.023  22.634  1.00  0.00     0.167 HD
HETATM    9  C18 UNL     1       7.552   8.266  21.056  1.00  0.00     0.102 A 
HETATM   10  N7  UNL     1       7.649   7.998  19.735  1.00  0.00    -0.338 N 
HETATM   11  C27 UNL     1       8.020   8.991  18.749  1.00  0.00     0.158 C 
ENDROOT
BRANCH   1  12
HETATM   12  C11 UNL     1       6.315   2.529  19.790  1.00  0.00     0.034 A 
HETATM   13  C28 UNL     1       5.216   2.300  20.803  1.00  0.00     0.022 A 
HETATM   14  C29 UNL     1       6.626   1.851  21.036  1.00  0.00     0.022 A 
BRANCH  12  15
HETATM   15  C5  UNL     1       6.097   1.928  18.474  1.00  0.00     0.072 C 
HETATM   16  N1  UNL     1       5.026   1.988  17.870  1.00  0.00    -0.267 N 
ATOM     17  H1  UNL     1       5.132   1.565  16.948  1.00  0.00     0.194 HD
BRANCH  16  18
HETATM   18  O3  UNL     1       3.857   2.392  18.007  1.00  0.00    -0.270 OA
BRANCH  18  19
HETATM   19  C4  UNL     1       2.560   2.464  17.644  1.00  0.00     0.312 C 
BRANCH  19  20
HETATM   20  C3  UNL     1       2.388   2.957  16.217  1.00  0.00     0.285 C 
HETATM   21  O2  UNL     1       1.348   3.472  15.794  1.00  0.00    -0.263 OA
BRANCH  20  22
HETATM   22  O1  UNL     1       3.463   2.810  15.370  1.00  0.00    -0.320 OA
BRANCH  22  23
HETATM   23  C2  UNL     1       3.947   3.874  14.596  1.00  0.00     0.174 C 
HETATM   24  C1  UNL     1       4.664   4.833  15.551  1.00  0.00     0.034 C 
ENDBRANCH  22  23
ENDBRANCH  20  22
ENDBRANCH  19  20
ENDBRANCH  18  19
ENDBRANCH  16  18
BRANCH  15  25
HETATM   25  C6  UNL     1       7.276   1.309  17.831  1.00  0.00     0.057 A 
HETATM   26  C7  UNL     1       8.509   1.249  18.454  1.00  0.00     0.031 A 
HETATM   27  C8  UNL     1       9.608   0.667  17.812  1.00  0.00     0.004 A 
HETATM   28  C9  UNL     1       9.483   0.145  16.551  1.00  0.00     0.017 A 
HETATM   29  C10 UNL     1       8.242   0.221  15.957  1.00  0.00     0.088 A 
HETATM   30  N2  UNL     1       7.204   0.782  16.589  1.00  0.00    -0.364 N 
ATOM     31  H2  UNL     1       6.307   0.814  16.105  1.00  0.00     0.165 HD
ENDBRANCH  15  25
ENDBRANCH  12  15
ENDBRANCH   1  12
BRANCH   9  32
HETATM   32  C19 UNL     1       7.799   9.554  21.748  1.00  0.00     0.196 C 
BRANCH  32  33
HETATM   33  N4  UNL     1       7.553   9.371  23.147  1.00  0.00    -0.383 N 
ATOM     34  H4  UNL     1       6.630   9.578  23.528  1.00  0.00     0.160 HD
BRANCH  33  35
HETATM   35  C20 UNL     1       8.573   8.908  24.000  1.00  0.00     0.028 A 
HETATM   36  C21 UNL     1       9.867   9.316  23.830  1.00  0.00     0.030 A 
HETATM   37  C22 UNL     1      10.861   8.843  24.674  1.00  0.00     0.017 A 
HETATM   38  C23 UNL     1      10.624   7.964  25.700  1.00  0.00     0.005 A 
HETATM   39  C25 UNL     1       9.282   7.568  25.844  1.00  0.00     0.017 A 
HETATM   40  C26 UNL     1       8.282   8.026  25.018  1.00  0.00     0.030 A 
BRANCH  38  41
HETATM   41  C24 UNL     1      11.633   7.444  26.600  1.00  0.00     0.120 C 
HETATM   42  N5  UNL     1      12.989   7.489  26.207  1.00  0.00    -0.082 NA
BRANCH  41  43
HETATM   43  N6  UNL     1      11.324   6.950  27.734  1.00  0.00    -0.387 N 
ATOM     44  H62 UNL     1      10.350   6.724  27.935  1.00  0.00     0.157 HD
ATOM     45  H61 UNL     1      12.030   6.773  28.449  1.00  0.00     0.157 HD
ENDBRANCH  41  43
ENDBRANCH  38  41
ENDBRANCH  33  35
ENDBRANCH  32  33
ENDBRANCH   9  32
TORSDOF 13
ENDMDL
