MODEL 3
REMARK VINA RESULT: -9.420809818      1.130      1.241
REMARK  13 active torsions:
REMARK  status: ('A' for Active; 'I' for Inactive)
REMARK    1  A    between atoms: C2_2  and  O1_3 
REMARK    2  A    between atoms: O1_3  and  C3_4 
REMARK    3  A    between atoms: C3_4  and  C4_6 
REMARK    4  A    between atoms: C4_6  and  O3_7 
REMARK    5  A    between atoms: O3_7  and  N1_8 
REMARK    6  A    between atoms: C5_10  and  C6_11 
REMARK    7  A    between atoms: C5_10  and  C11_18 
REMARK    8  A    between atoms: C11_18  and  C12_19 
REMARK    9  A    between atoms: C18_27  and  C19_28 
REMARK   10  A    between atoms: C19_28  and  N4_29 
REMARK   11  A    between atoms: N4_29  and  C20_31 
REMARK   12  A    between atoms: C23_34  and  C24_35 
REMARK   13  A    between atoms: C24_35  and  N6_37 
ROOT
HETATM    1  C12 UNL     1       6.653   4.014  19.717  1.00  0.00    -0.041 A 
HETATM    2  C13 UNL     1       6.815   4.539  18.471  1.00  0.00     0.011 A 
HETATM    3  C14 UNL     1       7.139   5.897  18.344  1.00  0.00     0.033 A 
HETATM    4  C15 UNL     1       7.296   6.708  19.440  1.00  0.00     0.062 A 
HETATM    5  C16 UNL     1       7.128   6.156  20.708  1.00  0.00     0.061 A 
HETATM    6  C17 UNL     1       6.807   4.811  20.816  1.00  0.00     0.040 A 
HETATM    7  N3  UNL     1       7.345   7.152  21.574  1.00  0.00    -0.343 N 
ATOM      8  H3  UNL     1       7.291   7.052  22.588  1.00  0.00     0.167 HD
HETATM    9  C18 UNL     1       7.637   8.282  20.955  1.00  0.00     0.102 A 
HETATM   10  N7  UNL     1       7.604   8.001  19.634  1.00  0.00    -0.338 N 
HETATM   11  C27 UNL     1       7.870   8.986  18.606  1.00  0.00     0.158 C 
ENDROOT
BRANCH   1  12
HETATM   12  C11 UNL     1       6.316   2.527  19.872  1.00  0.00     0.034 A 
HETATM   13  C28 UNL     1       5.267   2.309  20.940  1.00  0.00     0.022 A 
HETATM   14  C29 UNL     1       6.691   1.880  21.117  1.00  0.00     0.022 A 
BRANCH  12  15
HETATM   15  C5  UNL     1       6.042   1.894  18.581  1.00  0.00     0.072 C 
HETATM   16  N1  UNL     1       4.934   1.903  18.043  1.00  0.00    -0.267 N 
ATOM     17  H1  UNL     1       5.001   1.468  17.123  1.00  0.00     0.194 HD
BRANCH  16  18
HETATM   18  O3  UNL     1       3.761   2.264  18.245  1.00  0.00    -0.270 OA
BRANCH  18  19
HETATM   19  C4  UNL     1       2.726   3.119  18.108  1.00  0.00     0.312 C 
BRANCH  19  20
HETATM   20  C3  UNL     1       3.155   4.570  18.253  1.00  0.00     0.285 C 
HETATM   21  O2  UNL     1       3.270   5.345  17.299  1.00  0.00    -0.263 OA
BRANCH  20  22
HETATM   22  O1  UNL     1       3.423   5.018  19.527  1.00  0.00    -0.320 OA
BRANCH  22  23
HETATM   23  C2  UNL     1       3.503   6.385  19.828  1.00  0.00     0.174 C 
HETATM   24  C1  UNL     1       3.462   6.512  21.353  1.00  0.00     0.034 C 
ENDBRANCH  22  23
ENDBRANCH  20  22
ENDBRANCH  19  20
ENDBRANCH  18  19
ENDBRANCH  16  18
BRANCH  15  25
HETATM   25  C6  UNL     1       7.203   1.311  17.876  1.00  0.00     0.057 A 
HETATM   26  C7  UNL     1       8.463   1.260  18.446  1.00  0.00     0.031 A 
HETATM   27  C8  UNL     1       9.543   0.712  17.747  1.00  0.00     0.004 A 
HETATM   28  C9  UNL     1       9.374   0.212  16.481  1.00  0.00     0.017 A 
HETATM   29  C10 UNL     1       8.108   0.277  15.942  1.00  0.00     0.088 A 
HETATM   30  N2  UNL     1       7.088   0.807  16.628  1.00  0.00    -0.364 N 
ATOM     31  H2  UNL     1       6.171   0.832  16.183  1.00  0.00     0.165 HD
ENDBRANCH  15  25
ENDBRANCH  12  15
ENDBRANCH   1  12
BRANCH   9  32
HETATM   32  C19 UNL     1       7.944   9.578  21.607  1.00  0.00     0.196 C 
BRANCH  32  33
HETATM   33  N4  UNL     1       7.654   9.462  23.004  1.00  0.00    -0.383 N 
ATOM     34  H4  UNL     1       6.737   9.739  23.354  1.00  0.00     0.160 HD
BRANCH  33  35
HETATM   35  C20 UNL     1       8.622   8.969  23.900  1.00  0.00     0.028 A 
HETATM   36  C21 UNL     1       9.936   9.327  23.777  1.00  0.00     0.030 A 
HETATM   37  C22 UNL     1      10.879   8.824  24.661  1.00  0.00     0.017 A 
HETATM   38  C23 UNL     1      10.570   7.963  25.684  1.00  0.00     0.005 A 
HETATM   39  C25 UNL     1       9.210   7.619  25.779  1.00  0.00     0.017 A 
HETATM   40  C26 UNL     1       8.260   8.107  24.912  1.00  0.00     0.030 A 
BRANCH  38  41
HETATM   41  C24 UNL     1      11.524   7.414  26.626  1.00  0.00     0.120 C 
HETATM   42  N5  UNL     1      12.903   7.493  26.328  1.00  0.00    -0.082 NA
BRANCH  41  43
HETATM   43  N6  UNL     1      11.147   6.865  27.713  1.00  0.00    -0.387 N 
ATOM     44  H62 UNL     1      10.791   7.446  28.471  1.00  0.00     0.157 HD
ATOM     45  H61 UNL     1      11.193   5.855  27.844  1.00  0.00     0.157 HD
ENDBRANCH  41  43
ENDBRANCH  38  41
ENDBRANCH  33  35
ENDBRANCH  32  33
ENDBRANCH   9  32
TORSDOF 13
ENDMDL
