MODEL 7
REMARK VINA RESULT: -8.937279866      0.899      1.540
REMARK  13 active torsions:
REMARK  status: ('A' for Active; 'I' for Inactive)
REMARK    1  A    between atoms: C2_2  and  O1_3 
REMARK    2  A    between atoms: O1_3  and  C3_4 
REMARK    3  A    between atoms: C3_4  and  C4_6 
REMARK    4  A    between atoms: C4_6  and  O3_7 
REMARK    5  A    between atoms: O3_7  and  N1_8 
REMARK    6  A    between atoms: C5_10  and  C6_11 
REMARK    7  A    between atoms: C5_10  and  C11_18 
REMARK    8  A    between atoms: C11_18  and  C12_19 
REMARK    9  A    between atoms: C18_27  and  C19_28 
REMARK   10  A    between atoms: C19_28  and  N4_29 
REMARK   11  A    between atoms: N4_29  and  C20_31 
REMARK   12  A    between atoms: C23_34  and  C24_35 
REMARK   13  A    between atoms: C24_35  and  N6_37 
ROOT
HETATM    1  C12 UNL     1       6.000   4.295  20.097  1.00  0.00    -0.041 A 
HETATM    2  C13 UNL     1       4.827   4.844  20.518  1.00  0.00     0.011 A 
HETATM    3  C14 UNL     1       4.811   6.191  20.907  1.00  0.00     0.033 A 
HETATM    4  C15 UNL     1       5.942   6.967  20.872  1.00  0.00     0.062 A 
HETATM    5  C16 UNL     1       7.133   6.390  20.437  1.00  0.00     0.061 A 
HETATM    6  C17 UNL     1       7.133   5.057  20.057  1.00  0.00     0.040 A 
HETATM    7  N3  UNL     1       8.054   7.359  20.496  1.00  0.00    -0.343 N 
ATOM      8  H3  UNL     1       9.034   7.236  20.239  1.00  0.00     0.167 HD
HETATM    9  C18 UNL     1       7.539   8.496  20.930  1.00  0.00     0.102 A 
HETATM   10  N7  UNL     1       6.232   8.247  21.162  1.00  0.00    -0.338 N 
HETATM   11  C27 UNL     1       5.308   9.247  21.654  1.00  0.00     0.158 C 
ENDROOT
BRANCH   1  12
HETATM   12  C11 UNL     1       6.029   2.828  19.653  1.00  0.00     0.034 A 
HETATM   13  C28 UNL     1       4.890   2.044  20.268  1.00  0.00     0.022 A 
HETATM   14  C29 UNL     1       6.318   1.826  20.665  1.00  0.00     0.022 A 
BRANCH  12  15
HETATM   15  C5  UNL     1       6.171   2.700  18.203  1.00  0.00     0.072 C 
HETATM   16  N1  UNL     1       5.444   3.281  17.397  1.00  0.00    -0.267 N 
ATOM     17  H1  UNL     1       5.776   3.101  16.449  1.00  0.00     0.194 HD
BRANCH  16  18
HETATM   18  O3  UNL     1       4.440   4.014  17.350  1.00  0.00    -0.270 OA
BRANCH  18  19
HETATM   19  C4  UNL     1       3.766   5.104  16.928  1.00  0.00     0.312 C 
BRANCH  19  20
HETATM   20  C3  UNL     1       4.556   5.912  15.911  1.00  0.00     0.285 C 
HETATM   21  O2  UNL     1       4.927   5.462  14.823  1.00  0.00    -0.263 OA
BRANCH  20  22
HETATM   22  O1  UNL     1       4.862   7.211  16.247  1.00  0.00    -0.320 OA
BRANCH  22  23
HETATM   23  C2  UNL     1       4.853   7.654  17.577  1.00  0.00     0.174 C 
HETATM   24  C1  UNL     1       5.644   8.964  17.620  1.00  0.00     0.034 C 
ENDBRANCH  22  23
ENDBRANCH  20  22
ENDBRANCH  19  20
ENDBRANCH  18  19
ENDBRANCH  16  18
BRANCH  15  25
HETATM   25  C6  UNL     1       7.318   1.902  17.723  1.00  0.00     0.057 A 
HETATM   26  C7  UNL     1       8.580   2.014  18.279  1.00  0.00     0.031 A 
HETATM   27  C8  UNL     1       9.648   1.252  17.793  1.00  0.00     0.004 A 
HETATM   28  C9  UNL     1       9.464   0.377  16.754  1.00  0.00     0.017 A 
HETATM   29  C10 UNL     1       8.197   0.288  16.221  1.00  0.00     0.088 A 
HETATM   30  N2  UNL     1       7.189   1.028  16.701  1.00  0.00    -0.364 N 
ATOM     31  H2  UNL     1       6.270   0.925  16.270  1.00  0.00     0.165 HD
ENDBRANCH  15  25
ENDBRANCH  12  15
ENDBRANCH   1  12
BRANCH   9  32
HETATM   32  C19 UNL     1       8.272   9.773  21.106  1.00  0.00     0.196 C 
BRANCH  32  33
HETATM   33  N4  UNL     1       8.133  10.191  22.468  1.00  0.00    -0.383 N 
ATOM     34  H4  UNL     1       7.631  11.052  22.683  1.00  0.00     0.160 HD
BRANCH  33  35
HETATM   35  C20 UNL     1       8.683   9.424  23.513  1.00  0.00     0.028 A 
HETATM   36  C21 UNL     1       7.887   8.633  24.295  1.00  0.00     0.030 A 
HETATM   37  C22 UNL     1       8.443   7.893  25.327  1.00  0.00     0.017 A 
HETATM   38  C23 UNL     1       9.782   7.902  25.626  1.00  0.00     0.005 A 
HETATM   39  C25 UNL     1      10.568   8.726  24.801  1.00  0.00     0.017 A 
HETATM   40  C26 UNL     1      10.036   9.468  23.772  1.00  0.00     0.030 A 
BRANCH  38  41
HETATM   41  C24 UNL     1      10.401   7.147  26.696  1.00  0.00     0.120 C 
HETATM   42  N5  UNL     1      11.810   7.141  26.802  1.00  0.00    -0.082 NA
BRANCH  41  43
HETATM   43  N6  UNL     1       9.706   6.492  27.540  1.00  0.00    -0.387 N 
ATOM     44  H62 UNL     1       9.452   5.525  27.339  1.00  0.00     0.157 HD
ATOM     45  H61 UNL     1       9.395   6.912  28.415  1.00  0.00     0.157 HD
ENDBRANCH  41  43
ENDBRANCH  38  41
ENDBRANCH  33  35
ENDBRANCH  32  33
ENDBRANCH   9  32
TORSDOF 13
ENDMDL
