MODEL 2
REMARK VINA RESULT: -9.597787635      0.714      1.524
REMARK  13 active torsions:
REMARK  status: ('A' for Active; 'I' for Inactive)
REMARK    1  A    between atoms: C2_2  and  O1_3 
REMARK    2  A    between atoms: O1_3  and  C3_4 
REMARK    3  A    between atoms: C3_4  and  C4_6 
REMARK    4  A    between atoms: C4_6  and  O3_7 
REMARK    5  A    between atoms: O3_7  and  N1_8 
REMARK    6  A    between atoms: C5_10  and  C6_11 
REMARK    7  A    between atoms: C5_10  and  C11_18 
REMARK    8  A    between atoms: C11_18  and  C12_19 
REMARK    9  A    between atoms: C18_27  and  C19_28 
REMARK   10  A    between atoms: C19_28  and  N4_29 
REMARK   11  A    between atoms: N4_29  and  C20_31 
REMARK   12  A    between atoms: C23_34  and  C24_35 
REMARK   13  A    between atoms: C24_35  and  N6_37 
ROOT
HETATM    1  C12 UNL     1       6.796   4.198  19.576  1.00  0.00    -0.041 A 
HETATM    2  C13 UNL     1       7.525   4.759  18.572  1.00  0.00     0.011 A 
HETATM    3  C14 UNL     1       7.839   6.124  18.644  1.00  0.00     0.033 A 
HETATM    4  C15 UNL     1       7.432   6.904  19.697  1.00  0.00     0.062 A 
HETATM    5  C16 UNL     1       6.688   6.314  20.716  1.00  0.00     0.061 A 
HETATM    6  C17 UNL     1       6.385   4.964  20.630  1.00  0.00     0.040 A 
HETATM    7  N3  UNL     1       6.439   7.288  21.600  1.00  0.00    -0.343 N 
ATOM      8  H3  UNL     1       5.906   7.158  22.460  1.00  0.00     0.167 HD
HETATM    9  C18 UNL     1       6.967   8.437  21.221  1.00  0.00     0.102 A 
HETATM   10  N7  UNL     1       7.579   8.194  20.041  1.00  0.00    -0.338 N 
HETATM   11  C27 UNL     1       8.284   9.211  19.288  1.00  0.00     0.158 C 
ENDROOT
BRANCH   1  12
HETATM   12  C11 UNL     1       6.459   2.703  19.519  1.00  0.00     0.034 A 
HETATM   13  C28 UNL     1       5.321   2.360  20.454  1.00  0.00     0.022 A 
HETATM   14  C29 UNL     1       6.727   1.909  20.705  1.00  0.00     0.022 A 
BRANCH  12  15
HETATM   15  C5  UNL     1       6.308   2.231  18.142  1.00  0.00     0.072 C 
HETATM   16  N1  UNL     1       5.358   2.537  17.421  1.00  0.00    -0.267 N 
ATOM     17  H1  UNL     1       5.504   2.153  16.487  1.00  0.00     0.194 HD
BRANCH  16  18
HETATM   18  O3  UNL     1       4.280   3.156  17.449  1.00  0.00    -0.270 OA
BRANCH  18  19
HETATM   19  C4  UNL     1       3.544   4.286  17.502  1.00  0.00     0.312 C 
BRANCH  19  20
HETATM   20  C3  UNL     1       4.354   5.519  17.139  1.00  0.00     0.285 C 
HETATM   21  O2  UNL     1       4.344   6.560  17.801  1.00  0.00    -0.263 OA
BRANCH  20  22
HETATM   22  O1  UNL     1       5.132   5.445  16.005  1.00  0.00    -0.320 OA
BRANCH  22  23
HETATM   23  C2  UNL     1       4.571   5.474  14.720  1.00  0.00     0.174 C 
HETATM   24  C1  UNL     1       5.015   4.194  14.007  1.00  0.00     0.034 C 
ENDBRANCH  22  23
ENDBRANCH  20  22
ENDBRANCH  19  20
ENDBRANCH  18  19
ENDBRANCH  16  18
BRANCH  15  25
HETATM   25  C6  UNL     1       7.423   1.429  17.597  1.00  0.00     0.057 A 
HETATM   26  C7  UNL     1       8.655   1.355  18.223  1.00  0.00     0.031 A 
HETATM   27  C8  UNL     1       9.693   0.596  17.674  1.00  0.00     0.004 A 
HETATM   28  C9  UNL     1       9.511  -0.091  16.502  1.00  0.00     0.017 A 
HETATM   29  C10 UNL     1       8.274   0.002  15.902  1.00  0.00     0.088 A 
HETATM   30  N2  UNL     1       7.294   0.735  16.445  1.00  0.00    -0.364 N 
ATOM     31  H2  UNL     1       6.397   0.773  15.960  1.00  0.00     0.165 HD
ENDBRANCH  15  25
ENDBRANCH  12  15
ENDBRANCH   1  12
BRANCH   9  32
HETATM   32  C19 UNL     1       6.893   9.718  21.966  1.00  0.00     0.196 C 
BRANCH  32  33
HETATM   33  N4  UNL     1       8.196  10.020  22.478  1.00  0.00    -0.383 N 
ATOM     34  H4  UNL     1       8.742  10.771  22.056  1.00  0.00     0.160 HD
BRANCH  33  35
HETATM   35  C20 UNL     1       8.731   9.290  23.557  1.00  0.00     0.028 A 
HETATM   36  C21 UNL     1       7.916   8.573  24.389  1.00  0.00     0.030 A 
HETATM   37  C22 UNL     1       8.458   7.868  25.453  1.00  0.00     0.017 A 
HETATM   38  C23 UNL     1       9.801   7.843  25.736  1.00  0.00     0.005 A 
HETATM   39  C25 UNL     1      10.605   8.591  24.859  1.00  0.00     0.017 A 
HETATM   40  C26 UNL     1      10.087   9.296  23.797  1.00  0.00     0.030 A 
BRANCH  38  41
HETATM   41  C24 UNL     1      10.406   7.123  26.838  1.00  0.00     0.120 C 
HETATM   42  N5  UNL     1      11.808   7.180  27.004  1.00  0.00    -0.082 NA
BRANCH  41  43
HETATM   43  N6  UNL     1       9.704   6.445  27.657  1.00  0.00    -0.387 N 
ATOM     44  H62 UNL     1       8.804   6.070  27.357  1.00  0.00     0.157 HD
ATOM     45  H61 UNL     1      10.020   6.265  28.609  1.00  0.00     0.157 HD
ENDBRANCH  41  43
ENDBRANCH  38  41
ENDBRANCH  33  35
ENDBRANCH  32  33
ENDBRANCH   9  32
TORSDOF 13
ENDMDL
