MODEL 6
REMARK VINA RESULT: -9.003323609      2.439      8.852
REMARK  13 active torsions:
REMARK  status: ('A' for Active; 'I' for Inactive)
REMARK    1  A    between atoms: C2_2  and  O1_3 
REMARK    2  A    between atoms: O1_3  and  C3_4 
REMARK    3  A    between atoms: C3_4  and  C4_6 
REMARK    4  A    between atoms: C4_6  and  O3_7 
REMARK    5  A    between atoms: O3_7  and  N1_8 
REMARK    6  A    between atoms: C5_10  and  C6_11 
REMARK    7  A    between atoms: C5_10  and  C11_18 
REMARK    8  A    between atoms: C11_18  and  C12_19 
REMARK    9  A    between atoms: C18_27  and  C19_28 
REMARK   10  A    between atoms: C19_28  and  N4_29 
REMARK   11  A    between atoms: N4_29  and  C20_31 
REMARK   12  A    between atoms: C23_34  and  C24_35 
REMARK   13  A    between atoms: C24_35  and  N6_37 
ROOT
HETATM    1  C12 UNL     1       6.317   7.880  22.023  1.00  0.00    -0.041 A 
HETATM    2  C13 UNL     1       5.297   8.349  21.253  1.00  0.00     0.011 A 
HETATM    3  C14 UNL     1       4.983   7.679  20.061  1.00  0.00     0.033 A 
HETATM    4  C15 UNL     1       5.676   6.567  19.655  1.00  0.00     0.062 A 
HETATM    5  C16 UNL     1       6.716   6.099  20.454  1.00  0.00     0.061 A 
HETATM    6  C17 UNL     1       7.015   6.773  21.628  1.00  0.00     0.040 A 
HETATM    7  N3  UNL     1       7.202   5.018  19.831  1.00  0.00    -0.343 N 
ATOM      8  H3  UNL     1       7.979   4.457  20.180  1.00  0.00     0.167 HD
HETATM    9  C18 UNL     1       6.550   4.769  18.710  1.00  0.00     0.102 A 
HETATM   10  N7  UNL     1       5.608   5.731  18.605  1.00  0.00    -0.338 N 
HETATM   11  C27 UNL     1       4.676   5.812  17.499  1.00  0.00     0.158 C 
ENDROOT
BRANCH   1  12
HETATM   12  C11 UNL     1       6.660   8.592  23.336  1.00  0.00     0.034 A 
HETATM   13  C28 UNL     1       6.379   7.708  24.531  1.00  0.00     0.022 A 
HETATM   14  C29 UNL     1       5.561   8.926  24.226  1.00  0.00     0.022 A 
BRANCH  12  15
HETATM   15  C5  UNL     1       7.993   9.194  23.297  1.00  0.00     0.072 C 
HETATM   16  N1  UNL     1       8.296  10.124  22.549  1.00  0.00    -0.267 N 
ATOM     17  H1  UNL     1       9.250  10.424  22.749  1.00  0.00     0.194 HD
BRANCH  16  18
HETATM   18  O3  UNL     1       7.829  10.820  21.630  1.00  0.00    -0.270 OA
BRANCH  18  19
HETATM   19  C4  UNL     1       7.546  11.068  20.334  1.00  0.00     0.312 C 
BRANCH  19  20
HETATM   20  C3  UNL     1       7.915   9.903  19.431  1.00  0.00     0.285 C 
HETATM   21  O2  UNL     1       8.817   9.100  19.689  1.00  0.00    -0.263 OA
BRANCH  20  22
HETATM   22  O1  UNL     1       7.190   9.758  18.270  1.00  0.00    -0.320 OA
BRANCH  22  23
HETATM   23  C2  UNL     1       6.350  10.773  17.790  1.00  0.00     0.174 C 
HETATM   24  C1  UNL     1       6.680  10.966  16.308  1.00  0.00     0.034 C 
ENDBRANCH  22  23
ENDBRANCH  20  22
ENDBRANCH  19  20
ENDBRANCH  18  19
ENDBRANCH  16  18
BRANCH  15  25
HETATM   25  C6  UNL     1       8.968   8.696  24.290  1.00  0.00     0.057 A 
HETATM   26  C7  UNL     1      10.308   9.035  24.243  1.00  0.00     0.031 A 
HETATM   27  C8  UNL     1      11.207   8.537  25.193  1.00  0.00     0.004 A 
HETATM   28  C9  UNL     1      10.776   7.701  26.190  1.00  0.00     0.017 A 
HETATM   29  C10 UNL     1       9.436   7.381  26.209  1.00  0.00     0.088 A 
HETATM   30  N2  UNL     1       8.593   7.868  25.291  1.00  0.00    -0.364 N 
ATOM     31  H2  UNL     1       7.611   7.600  25.349  1.00  0.00     0.165 HD
ENDBRANCH  15  25
ENDBRANCH  12  15
ENDBRANCH   1  12
BRANCH   9  32
HETATM   32  C19 UNL     1       6.817   3.644  17.780  1.00  0.00     0.196 C 
BRANCH  32  33
HETATM   33  N4  UNL     1       8.003   2.970  18.213  1.00  0.00    -0.383 N 
ATOM     34  H4  UNL     1       8.528   3.333  19.009  1.00  0.00     0.160 HD
BRANCH  33  35
HETATM   35  C20 UNL     1       8.453   1.812  17.552  1.00  0.00     0.028 A 
HETATM   36  C21 UNL     1       7.720   1.254  16.540  1.00  0.00     0.030 A 
HETATM   37  C22 UNL     1       8.172   0.106  15.906  1.00  0.00     0.017 A 
HETATM   38  C23 UNL     1       9.344  -0.527  16.238  1.00  0.00     0.005 A 
HETATM   39  C25 UNL     1      10.069   0.075  17.281  1.00  0.00     0.017 A 
HETATM   40  C26 UNL     1       9.638   1.214  17.922  1.00  0.00     0.030 A 
BRANCH  38  41
HETATM   41  C24 UNL     1       9.849  -1.727  15.603  1.00  0.00     0.120 C 
HETATM   42  N5  UNL     1      11.062  -2.286  16.064  1.00  0.00    -0.082 NA
BRANCH  41  43
HETATM   43  N6  UNL     1       9.225  -2.287  14.643  1.00  0.00    -0.387 N 
ATOM     44  H62 UNL     1       9.651  -2.317  13.717  1.00  0.00     0.157 HD
ATOM     45  H61 UNL     1       8.307  -2.710  14.778  1.00  0.00     0.157 HD
ENDBRANCH  41  43
ENDBRANCH  38  41
ENDBRANCH  33  35
ENDBRANCH  32  33
ENDBRANCH   9  32
TORSDOF 13
ENDMDL
