MODEL 14
REMARK VINA RESULT: -8.651907477      3.850      9.767
REMARK  13 active torsions:
REMARK  status: ('A' for Active; 'I' for Inactive)
REMARK    1  A    between atoms: C2_2  and  O1_3 
REMARK    2  A    between atoms: O1_3  and  C3_4 
REMARK    3  A    between atoms: C3_4  and  C4_6 
REMARK    4  A    between atoms: C4_6  and  O3_7 
REMARK    5  A    between atoms: O3_7  and  N1_8 
REMARK    6  A    between atoms: C5_10  and  C6_11 
REMARK    7  A    between atoms: C5_10  and  C11_18 
REMARK    8  A    between atoms: C11_18  and  C12_19 
REMARK    9  A    between atoms: C18_27  and  C19_28 
REMARK   10  A    between atoms: C19_28  and  N4_29 
REMARK   11  A    between atoms: N4_29  and  C20_31 
REMARK   12  A    between atoms: C23_34  and  C24_35 
REMARK   13  A    between atoms: C24_35  and  N6_37 
ROOT
HETATM    1  C12 UNL     1       5.958   7.130  21.581  1.00  0.00    -0.041 A 
HETATM    2  C13 UNL     1       5.001   7.510  20.690  1.00  0.00     0.011 A 
HETATM    3  C14 UNL     1       4.670   6.642  19.640  1.00  0.00     0.033 A 
HETATM    4  C15 UNL     1       5.285   5.425  19.488  1.00  0.00     0.062 A 
HETATM    5  C16 UNL     1       6.261   5.051  20.408  1.00  0.00     0.061 A 
HETATM    6  C17 UNL     1       6.578   5.920  21.441  1.00  0.00     0.040 A 
HETATM    7  N3  UNL     1       6.678   3.837  20.030  1.00  0.00    -0.343 N 
ATOM      8  H3  UNL     1       7.398   3.301  20.515  1.00  0.00     0.167 HD
HETATM    9  C18 UNL     1       6.041   3.417  18.951  1.00  0.00     0.102 A 
HETATM   10  N7  UNL     1       5.182   4.405  18.619  1.00  0.00    -0.338 N 
HETATM   11  C27 UNL     1       4.292   4.333  17.478  1.00  0.00     0.158 C 
ENDROOT
BRANCH   1  12
HETATM   12  C11 UNL     1       6.318   8.061  22.744  1.00  0.00     0.034 A 
HETATM   13  C28 UNL     1       5.695   9.429  22.567  1.00  0.00     0.022 A 
HETATM   14  C29 UNL     1       7.172   9.201  22.453  1.00  0.00     0.022 A 
BRANCH  12  15
HETATM   15  C5  UNL     1       6.085   7.426  24.042  1.00  0.00     0.072 C 
HETATM   16  N1  UNL     1       6.978   7.215  24.863  1.00  0.00    -0.267 N 
ATOM     17  H1  UNL     1       6.570   6.834  25.717  1.00  0.00     0.194 HD
BRANCH  16  18
HETATM   18  O3  UNL     1       8.210   7.309  25.001  1.00  0.00    -0.270 OA
BRANCH  18  19
HETATM   19  C4  UNL     1       9.360   8.011  25.081  1.00  0.00     0.312 C 
BRANCH  19  20
HETATM   20  C3  UNL     1      10.307   7.448  26.128  1.00  0.00     0.285 C 
HETATM   21  O2  UNL     1       9.994   6.553  26.918  1.00  0.00    -0.263 OA
BRANCH  20  22
HETATM   22  O1  UNL     1      11.574   7.983  26.177  1.00  0.00    -0.320 OA
BRANCH  22  23
HETATM   23  C2  UNL     1      12.597   7.396  26.936  1.00  0.00     0.174 C 
HETATM   24  C1  UNL     1      13.880   7.487  26.107  1.00  0.00     0.034 C 
ENDBRANCH  22  23
ENDBRANCH  20  22
ENDBRANCH  19  20
ENDBRANCH  18  19
ENDBRANCH  16  18
BRANCH  15  25
HETATM   25  C6  UNL     1       4.678   7.128  24.384  1.00  0.00     0.057 A 
HETATM   26  C7  UNL     1       3.969   7.876  25.308  1.00  0.00     0.031 A 
HETATM   27  C8  UNL     1       2.642   7.559  25.617  1.00  0.00     0.004 A 
HETATM   28  C9  UNL     1       2.018   6.501  25.011  1.00  0.00     0.017 A 
HETATM   29  C10 UNL     1       2.750   5.776  24.097  1.00  0.00     0.088 A 
HETATM   30  N2  UNL     1       4.019   6.095  23.815  1.00  0.00    -0.364 N 
ATOM     31  H2  UNL     1       4.518   5.526  23.131  1.00  0.00     0.165 HD
ENDBRANCH  15  25
ENDBRANCH  12  15
ENDBRANCH   1  12
BRANCH   9  32
HETATM   32  C19 UNL     1       6.246   2.116  18.270  1.00  0.00     0.196 C 
BRANCH  32  33
HETATM   33  N4  UNL     1       7.268   2.278  17.280  1.00  0.00    -0.383 N 
ATOM     34  H4  UNL     1       7.354   3.165  16.784  1.00  0.00     0.160 HD
BRANCH  33  35
HETATM   35  C20 UNL     1       8.155   1.225  16.985  1.00  0.00     0.028 A 
HETATM   36  C21 UNL     1       9.302   1.053  17.709  1.00  0.00     0.030 A 
HETATM   37  C22 UNL     1      10.171   0.017  17.398  1.00  0.00     0.017 A 
HETATM   38  C23 UNL     1       9.947  -0.874  16.379  1.00  0.00     0.005 A 
HETATM   39  C25 UNL     1       8.759  -0.665  15.658  1.00  0.00     0.017 A 
HETATM   40  C26 UNL     1       7.885   0.356  15.951  1.00  0.00     0.030 A 
BRANCH  38  41
HETATM   41  C24 UNL     1      10.829  -1.966  16.021  1.00  0.00     0.120 C 
HETATM   42  N5  UNL     1      10.270  -3.232  15.735  1.00  0.00    -0.082 NA
BRANCH  41  43
HETATM   43  N6  UNL     1      12.093  -1.810  15.957  1.00  0.00    -0.387 N 
ATOM     44  H62 UNL     1      12.509  -0.943  16.298  1.00  0.00     0.157 HD
ATOM     45  H61 UNL     1      12.701  -2.532  15.573  1.00  0.00     0.157 HD
ENDBRANCH  41  43
ENDBRANCH  38  41
ENDBRANCH  33  35
ENDBRANCH  32  33
ENDBRANCH   9  32
TORSDOF 13
ENDMDL
