MODEL 1
REMARK VINA RESULT: -9.645049532      0.000      0.000
REMARK  13 active torsions:
REMARK  status: ('A' for Active; 'I' for Inactive)
REMARK    1  A    between atoms: C2_2  and  O1_3 
REMARK    2  A    between atoms: O1_3  and  C3_4 
REMARK    3  A    between atoms: C3_4  and  C4_6 
REMARK    4  A    between atoms: C4_6  and  O3_7 
REMARK    5  A    between atoms: O3_7  and  N1_8 
REMARK    6  A    between atoms: C5_10  and  C6_11 
REMARK    7  A    between atoms: C5_10  and  C11_18 
REMARK    8  A    between atoms: C11_18  and  C12_19 
REMARK    9  A    between atoms: C18_27  and  C19_28 
REMARK   10  A    between atoms: C19_28  and  N4_29 
REMARK   11  A    between atoms: N4_29  and  C20_31 
REMARK   12  A    between atoms: C23_34  and  C24_35 
REMARK   13  A    between atoms: C24_35  and  N6_37 
ROOT
HETATM    1  C12 UNL     1       6.827   4.203  19.586  1.00  0.00    -0.041 A 
HETATM    2  C13 UNL     1       7.568   4.770  18.594  1.00  0.00     0.011 A 
HETATM    3  C14 UNL     1       7.884   6.134  18.679  1.00  0.00     0.033 A 
HETATM    4  C15 UNL     1       7.467   6.907  19.733  1.00  0.00     0.062 A 
HETATM    5  C16 UNL     1       6.712   6.311  20.740  1.00  0.00     0.061 A 
HETATM    6  C17 UNL     1       6.407   4.962  20.641  1.00  0.00     0.040 A 
HETATM    7  N3  UNL     1       6.455   7.279  21.629  1.00  0.00    -0.343 N 
ATOM      8  H3  UNL     1       5.914   7.144  22.483  1.00  0.00     0.167 HD
HETATM    9  C18 UNL     1       6.990   8.430  21.263  1.00  0.00     0.102 A 
HETATM   10  N7  UNL     1       7.614   8.195  20.088  1.00  0.00    -0.338 N 
HETATM   11  C27 UNL     1       8.328   9.215  19.350  1.00  0.00     0.158 C 
ENDROOT
BRANCH   1  12
HETATM   12  C11 UNL     1       6.488   2.710  19.514  1.00  0.00     0.034 A 
HETATM   13  C28 UNL     1       5.341   2.361  20.437  1.00  0.00     0.022 A 
HETATM   14  C29 UNL     1       6.744   1.906  20.697  1.00  0.00     0.022 A 
BRANCH  12  15
HETATM   15  C5  UNL     1       6.349   2.249  18.133  1.00  0.00     0.072 C 
HETATM   16  N1  UNL     1       5.412   2.571  17.401  1.00  0.00    -0.267 N 
ATOM     17  H1  UNL     1       5.565   2.192  16.467  1.00  0.00     0.194 HD
BRANCH  16  18
HETATM   18  O3  UNL     1       4.342   3.205  17.420  1.00  0.00    -0.270 OA
BRANCH  18  19
HETATM   19  C4  UNL     1       3.620   4.343  17.494  1.00  0.00     0.312 C 
BRANCH  19  20
HETATM   20  C3  UNL     1       4.433   5.567  17.109  1.00  0.00     0.285 C 
HETATM   21  O2  UNL     1       5.169   5.613  16.119  1.00  0.00    -0.263 OA
BRANCH  20  22
HETATM   22  O1  UNL     1       4.326   6.670  17.926  1.00  0.00    -0.320 OA
BRANCH  22  23
HETATM   23  C2  UNL     1       4.743   7.943  17.508  1.00  0.00     0.174 C 
HETATM   24  C1  UNL     1       4.400   8.920  18.636  1.00  0.00     0.034 C 
ENDBRANCH  22  23
ENDBRANCH  20  22
ENDBRANCH  19  20
ENDBRANCH  18  19
ENDBRANCH  16  18
BRANCH  15  25
HETATM   25  C6  UNL     1       7.460   1.434  17.597  1.00  0.00     0.057 A 
HETATM   26  C7  UNL     1       8.698   1.379  18.212  1.00  0.00     0.031 A 
HETATM   27  C8  UNL     1       9.732   0.607  17.672  1.00  0.00     0.004 A 
HETATM   28  C9  UNL     1       9.539  -0.109  16.520  1.00  0.00     0.017 A 
HETATM   29  C10 UNL     1       8.297  -0.033  15.930  1.00  0.00     0.088 A 
HETATM   30  N2  UNL     1       7.321   0.712  16.464  1.00  0.00    -0.364 N 
ATOM     31  H2  UNL     1       6.419   0.735  15.988  1.00  0.00     0.165 HD
ENDBRANCH  15  25
ENDBRANCH  12  15
ENDBRANCH   1  12
BRANCH   9  32
HETATM   32  C19 UNL     1       6.911   9.705  22.017  1.00  0.00     0.196 C 
BRANCH  32  33
HETATM   33  N4  UNL     1       8.219  10.027  22.501  1.00  0.00    -0.383 N 
ATOM     34  H4  UNL     1       8.750  10.777  22.059  1.00  0.00     0.160 HD
BRANCH  33  35
HETATM   35  C20 UNL     1       8.779   9.318  23.581  1.00  0.00     0.028 A 
HETATM   36  C21 UNL     1      10.129   9.330  23.800  1.00  0.00     0.030 A 
HETATM   37  C22 UNL     1      10.667   8.618  24.863  1.00  0.00     0.017 A 
HETATM   38  C23 UNL     1       9.908   7.878  25.735  1.00  0.00     0.005 A 
HETATM   39  C25 UNL     1       8.527   7.890  25.477  1.00  0.00     0.017 A 
HETATM   40  C26 UNL     1       7.974   8.591  24.430  1.00  0.00     0.030 A 
BRANCH  38  41
HETATM   41  C24 UNL     1      10.430   7.119  26.853  1.00  0.00     0.120 C 
HETATM   42  N5  UNL     1      11.825   7.103  27.078  1.00  0.00    -0.082 NA
BRANCH  41  43
HETATM   43  N6  UNL     1       9.661   6.470  27.635  1.00  0.00    -0.387 N 
ATOM     44  H62 UNL     1       9.995   5.608  28.067  1.00  0.00     0.157 HD
ATOM     45  H61 UNL     1       8.716   6.791  27.843  1.00  0.00     0.157 HD
ENDBRANCH  41  43
ENDBRANCH  38  41
ENDBRANCH  33  35
ENDBRANCH  32  33
ENDBRANCH   9  32
TORSDOF 13
ENDMDL
