MODEL 6
REMARK VINA RESULT: -6.481607223      1.753      6.254
REMARK  5 active torsions:
REMARK  status: ('A' for Active; 'I' for Inactive)
REMARK    1  A    between atoms: C4_9  and  C5_10 
REMARK    2  A    between atoms: C6_14  and  C7_15 
REMARK    3  A    between atoms: C7_15  and  O2_16 
REMARK    4  A    between atoms: C8_18  and  O3_19 
REMARK    5  A    between atoms: C9_21  and  O4_22 
ROOT
HETATM    1  C5  UNL     1      56.258  17.666  40.990  1.00  0.00     0.254 C 
HETATM    2  N3  UNL     1      55.015  18.301  40.836  1.00  0.00    -0.055 N 
ATOM      3  H31 UNL     1      54.980  19.300  41.042  1.00  0.00     0.278 HD
ATOM      4  H32 UNL     1      54.293  18.070  41.518  1.00  0.00     0.278 HD
HETATM    5  C6  UNL     1      54.757  17.892  39.406  1.00  0.00     0.241 C 
HETATM    6  C8  UNL     1      54.776  16.379  39.625  1.00  0.00     0.182 C 
HETATM    7  C9  UNL     1      56.084  16.265  40.391  1.00  0.00     0.184 C 
ENDROOT
BRANCH   1   8
HETATM    8  C4  UNL     1      56.994  17.631  42.223  1.00  0.00     0.019 A 
HETATM    9  C3  UNL     1      56.756  16.939  43.359  1.00  0.00     0.075 A 
HETATM   10  N2  UNL     1      55.872  15.936  43.571  1.00  0.00    -0.350 N 
HETATM   11  C11 UNL     1      57.653  17.331  44.327  1.00  0.00     0.128 A 
HETATM   12  C2  UNL     1      55.856  15.293  44.744  1.00  0.00     0.184 A 
ATOM     13  H2  UNL     1      55.217  15.670  42.835  1.00  0.00     0.166 HD
HETATM   14  N1  UNL     1      56.737  15.669  45.721  1.00  0.00    -0.318 N 
HETATM   15  C1  UNL     1      57.622  16.663  45.530  1.00  0.00     0.275 A 
ATOM     16  H1  UNL     1      56.722  15.183  46.617  1.00  0.00     0.169 HD
HETATM   17  O1  UNL     1      58.439  17.026  46.416  1.00  0.00    -0.266 OA
HETATM   18  N4  UNL     1      58.441  18.265  43.771  1.00  0.00    -0.359 N 
HETATM   19  C10 UNL     1      58.076  18.475  42.500  1.00  0.00     0.100 A 
ATOM     20  H4  UNL     1      59.205  18.745  44.247  1.00  0.00     0.165 HD
ENDBRANCH   1   8
BRANCH   7  21
HETATM   21  O4  UNL     1      57.111  15.869  39.605  1.00  0.00    -0.390 OA
ATOM     22  H4  UNL     1      57.955  16.218  39.865  1.00  0.00     0.210 HD
ENDBRANCH   7  21
BRANCH   5  23
HETATM   23  C7  UNL     1      53.501  18.418  38.853  1.00  0.00     0.199 C 
BRANCH  23  24
HETATM   24  O2  UNL     1      52.864  17.598  37.909  1.00  0.00    -0.399 OA
ATOM     25  H2  UNL     1      53.070  17.781  37.000  1.00  0.00     0.209 HD
ENDBRANCH  23  24
ENDBRANCH   5  23
BRANCH   6  26
HETATM   26  O3  UNL     1      54.671  15.629  38.515  1.00  0.00    -0.391 OA
ATOM     27  H3  UNL     1      55.437  15.615  37.953  1.00  0.00     0.210 HD
ENDBRANCH   6  26
TORSDOF 5
ENDMDL
