MODEL 2
REMARK VINA RESULT: -9.088994600      1.436      1.785
REMARK  5 active torsions:
REMARK  status: ('A' for Active; 'I' for Inactive)
REMARK    1  A    between atoms: C4_9  and  C5_10 
REMARK    2  A    between atoms: C6_14  and  C7_15 
REMARK    3  A    between atoms: C7_15  and  O2_16 
REMARK    4  A    between atoms: C8_18  and  O3_19 
REMARK    5  A    between atoms: C9_21  and  O4_22 
ROOT
HETATM    1  C5  UNL     1      56.745  16.689  42.391  1.00  0.00     0.254 C 
HETATM    2  N3  UNL     1      56.340  15.924  43.496  1.00  0.00    -0.055 N 
ATOM      3  H31 UNL     1      56.402  14.910  43.401  1.00  0.00     0.278 HD
ATOM      4  H32 UNL     1      55.342  15.908  43.703  1.00  0.00     0.278 HD
HETATM    5  C6  UNL     1      57.238  16.565  44.526  1.00  0.00     0.241 C 
HETATM    6  C8  UNL     1      56.702  17.991  44.396  1.00  0.00     0.182 C 
HETATM    7  C9  UNL     1      56.783  18.141  42.885  1.00  0.00     0.184 C 
ENDROOT
BRANCH   1   8
HETATM    8  C4  UNL     1      56.159  16.586  41.084  1.00  0.00     0.019 A 
HETATM    9  C3  UNL     1      55.267  17.389  40.465  1.00  0.00     0.075 A 
HETATM   10  N2  UNL     1      54.837  18.620  40.832  1.00  0.00    -0.350 N 
HETATM   11  C11 UNL     1      54.887  16.815  39.273  1.00  0.00     0.128 A 
HETATM   12  C2  UNL     1      54.024  19.314  40.027  1.00  0.00     0.184 A 
ATOM     13  H2  UNL     1      55.134  19.019  41.723  1.00  0.00     0.166 HD
HETATM   14  N1  UNL     1      53.632  18.759  38.839  1.00  0.00    -0.318 N 
HETATM   15  C1  UNL     1      54.047  17.539  38.458  1.00  0.00     0.275 A 
ATOM     16  H1  UNL     1      53.008  19.286  38.228  1.00  0.00     0.169 HD
HETATM   17  O1  UNL     1      53.696  17.010  37.371  1.00  0.00    -0.266 OA
HETATM   18  N4  UNL     1      55.557  15.656  39.170  1.00  0.00    -0.359 N 
HETATM   19  C10 UNL     1      56.338  15.481  40.243  1.00  0.00     0.100 A 
ATOM     20  H4  UNL     1      55.482  15.005  38.389  1.00  0.00     0.165 HD
ENDBRANCH   1   8
BRANCH   7  21
HETATM   21  O4  UNL     1      57.880  18.829  42.492  1.00  0.00    -0.390 OA
ATOM     22  H4  UNL     1      57.729  19.759  42.366  1.00  0.00     0.210 HD
ENDBRANCH   7  21
BRANCH   5  23
HETATM   23  C7  UNL     1      57.116  15.982  45.869  1.00  0.00     0.199 C 
BRANCH  23  24
HETATM   24  O2  UNL     1      58.120  16.345  46.781  1.00  0.00    -0.399 OA
ATOM     25  H2  UNL     1      58.954  15.904  46.670  1.00  0.00     0.209 HD
ENDBRANCH  23  24
ENDBRANCH   5  23
BRANCH   6  26
HETATM   26  O3  UNL     1      57.346  18.923  45.120  1.00  0.00    -0.391 OA
ATOM     27  H3  UNL     1      57.220  19.822  44.839  1.00  0.00     0.210 HD
ENDBRANCH   6  26
TORSDOF 5
ENDMDL
