MODEL 8
REMARK VINA RESULT: -6.219475195      1.574      6.050
REMARK  5 active torsions:
REMARK  status: ('A' for Active; 'I' for Inactive)
REMARK    1  A    between atoms: C4_9  and  C5_10 
REMARK    2  A    between atoms: C6_14  and  C7_15 
REMARK    3  A    between atoms: C7_15  and  O2_16 
REMARK    4  A    between atoms: C8_18  and  O3_19 
REMARK    5  A    between atoms: C9_21  and  O4_22 
ROOT
HETATM    1  C5  UNL     1      55.851  16.705  41.471  1.00  0.00     0.254 C 
HETATM    2  N3  UNL     1      56.249  16.717  40.124  1.00  0.00    -0.055 N 
ATOM      3  H31 UNL     1      56.815  15.930  39.805  1.00  0.00     0.278 HD
ATOM      4  H32 UNL     1      56.947  17.411  39.858  1.00  0.00     0.278 HD
HETATM    5  C6  UNL     1      54.878  16.861  39.510  1.00  0.00     0.241 C 
HETATM    6  C8  UNL     1      54.504  18.189  40.167  1.00  0.00     0.182 C 
HETATM    7  C9  UNL     1      54.832  17.843  41.611  1.00  0.00     0.184 C 
ENDROOT
BRANCH   1   8
HETATM    8  C4  UNL     1      56.765  16.668  42.578  1.00  0.00     0.019 A 
HETATM    9  C3  UNL     1      57.780  17.500  42.896  1.00  0.00     0.075 A 
HETATM   10  N2  UNL     1      58.082  18.709  42.366  1.00  0.00    -0.350 N 
HETATM   11  C11 UNL     1      58.469  16.987  43.971  1.00  0.00     0.128 A 
HETATM   12  C2  UNL     1      59.072  19.442  42.890  1.00  0.00     0.184 A 
ATOM     13  H2  UNL     1      57.555  19.062  41.568  1.00  0.00     0.166 HD
HETATM   14  N1  UNL     1      59.772  18.948  43.957  1.00  0.00    -0.318 N 
HETATM   15  C1  UNL     1      59.488  17.750  44.496  1.00  0.00     0.275 A 
ATOM     16  H1  UNL     1      60.530  19.504  44.354  1.00  0.00     0.169 HD
HETATM   17  O1  UNL     1      60.120  17.277  45.476  1.00  0.00    -0.266 OA
HETATM   18  N4  UNL     1      57.864  15.837  44.308  1.00  0.00    -0.359 N 
HETATM   19  C10 UNL     1      56.828  15.608  43.491  1.00  0.00     0.100 A 
ATOM     20  H4  UNL     1      58.152  15.226  45.072  1.00  0.00     0.165 HD
ENDBRANCH   1   8
BRANCH   7  21
HETATM   21  O4  UNL     1      53.732  17.514  42.327  1.00  0.00    -0.390 OA
ATOM     22  H4  UNL     1      52.968  18.045  42.130  1.00  0.00     0.210 HD
ENDBRANCH   7  21
BRANCH   5  23
HETATM   23  C7  UNL     1      54.882  16.881  38.041  1.00  0.00     0.199 C 
BRANCH  23  24
HETATM   24  O2  UNL     1      53.618  16.921  37.432  1.00  0.00    -0.399 OA
ATOM     25  H2  UNL     1      53.385  16.156  36.919  1.00  0.00     0.209 HD
ENDBRANCH  23  24
ENDBRANCH   5  23
BRANCH   6  26
HETATM   26  O3  UNL     1      53.254  18.624  39.931  1.00  0.00    -0.391 OA
ATOM     27  H3  UNL     1      52.577  18.256  40.487  1.00  0.00     0.210 HD
ENDBRANCH   6  26
TORSDOF 5
ENDMDL
