MODEL 3
REMARK VINA RESULT: -8.137518275      1.649      6.331
REMARK  5 active torsions:
REMARK  status: ('A' for Active; 'I' for Inactive)
REMARK    1  A    between atoms: C4_9  and  C5_10 
REMARK    2  A    between atoms: C6_14  and  C7_15 
REMARK    3  A    between atoms: C7_15  and  O2_16 
REMARK    4  A    between atoms: C8_18  and  O3_19 
REMARK    5  A    between atoms: C9_21  and  O4_22 
ROOT
HETATM    1  C5  UNL     1      55.790  17.458  41.463  1.00  0.00     0.254 C 
HETATM    2  N3  UNL     1      54.569  18.040  41.086  1.00  0.00    -0.055 N 
ATOM      3  H31 UNL     1      54.361  18.962  41.470  1.00  0.00     0.278 HD
ATOM      4  H32 UNL     1      53.722  17.620  41.467  1.00  0.00     0.278 HD
HETATM    5  C6  UNL     1      54.758  17.954  39.591  1.00  0.00     0.241 C 
HETATM    6  C8  UNL     1      54.896  16.434  39.496  1.00  0.00     0.182 C 
HETATM    7  C9  UNL     1      55.952  16.222  40.568  1.00  0.00     0.184 C 
ENDROOT
BRANCH   1   8
HETATM    8  C4  UNL     1      56.163  17.185  42.822  1.00  0.00     0.019 A 
HETATM    9  C3  UNL     1      57.357  17.317  43.440  1.00  0.00     0.075 A 
HETATM   10  N2  UNL     1      58.478  17.934  42.996  1.00  0.00    -0.350 N 
HETATM   11  C11 UNL     1      57.271  16.800  44.713  1.00  0.00     0.128 A 
HETATM   12  C2  UNL     1      59.539  18.058  43.801  1.00  0.00     0.184 A 
ATOM     13  H2  UNL     1      58.512  18.305  42.046  1.00  0.00     0.166 HD
HETATM   14  N1  UNL     1      59.475  17.548  45.069  1.00  0.00    -0.318 N 
HETATM   15  C1  UNL     1      58.373  16.931  45.528  1.00  0.00     0.275 A 
ATOM     16  H1  UNL     1      60.286  17.637  45.681  1.00  0.00     0.169 HD
HETATM   17  O1  UNL     1      58.294  16.454  46.690  1.00  0.00    -0.266 OA
HETATM   18  N4  UNL     1      56.014  16.354  44.867  1.00  0.00    -0.359 N 
HETATM   19  C10 UNL     1      55.311  16.569  43.748  1.00  0.00     0.100 A 
ATOM     20  H4  UNL     1      55.648  15.916  45.712  1.00  0.00     0.165 HD
ENDBRANCH   1   8
BRANCH   7  21
HETATM   21  O4  UNL     1      57.193  16.074  40.051  1.00  0.00    -0.390 OA
ATOM     22  H4  UNL     1      57.527  15.186  40.091  1.00  0.00     0.210 HD
ENDBRANCH   7  21
BRANCH   5  23
HETATM   23  C7  UNL     1      53.645  18.520  38.816  1.00  0.00     0.199 C 
BRANCH  23  24
HETATM   24  O2  UNL     1      52.990  17.626  37.954  1.00  0.00    -0.399 OA
ATOM     25  H2  UNL     1      52.113  17.372  38.216  1.00  0.00     0.209 HD
ENDBRANCH  23  24
ENDBRANCH   5  23
BRANCH   6  26
HETATM   26  O3  UNL     1      55.186  15.951  38.275  1.00  0.00    -0.391 OA
ATOM     27  H3  UNL     1      56.104  15.967  38.033  1.00  0.00     0.210 HD
ENDBRANCH   6  26
TORSDOF 5
ENDMDL
