MODEL 5
REMARK VINA RESULT: -8.857870408      3.437      9.157
REMARK  13 active torsions:
REMARK  status: ('A' for Active; 'I' for Inactive)
REMARK    1  A    between atoms: C2_2  and  O1_3 
REMARK    2  A    between atoms: O1_3  and  C3_4 
REMARK    3  A    between atoms: C3_4  and  C4_6 
REMARK    4  A    between atoms: C4_6  and  O3_7 
REMARK    5  A    between atoms: O3_7  and  N1_8 
REMARK    6  A    between atoms: C5_10  and  C6_11 
REMARK    7  A    between atoms: C5_10  and  C11_18 
REMARK    8  A    between atoms: C11_18  and  C12_19 
REMARK    9  A    between atoms: C18_27  and  C19_28 
REMARK   10  A    between atoms: C19_28  and  N4_29 
REMARK   11  A    between atoms: N4_29  and  C20_31 
REMARK   12  A    between atoms: C23_34  and  C24_35 
REMARK   13  A    between atoms: C24_35  and  N6_37 
ROOT
HETATM    1  C12 UNL     1      15.083 -13.075  20.626  1.00  0.00    -0.041 A 
HETATM    2  C13 UNL     1      16.194 -12.298  20.759  1.00  0.00     0.011 A 
HETATM    3  C14 UNL     1      17.376 -12.882  21.237  1.00  0.00     0.033 A 
HETATM    4  C15 UNL     1      17.441 -14.211  21.572  1.00  0.00     0.062 A 
HETATM    5  C16 UNL     1      16.297 -14.992  21.430  1.00  0.00     0.061 A 
HETATM    6  C17 UNL     1      15.135 -14.400  20.957  1.00  0.00     0.040 A 
HETATM    7  N3  UNL     1      16.643 -16.226  21.815  1.00  0.00    -0.343 N 
ATOM      8  H3  UNL     1      16.007 -17.023  21.822  1.00  0.00     0.167 HD
HETATM    9  C18 UNL     1      17.910 -16.283  22.184  1.00  0.00     0.102 A 
HETATM   10  N7  UNL     1      18.399 -15.033  22.033  1.00  0.00    -0.338 N 
HETATM   11  C27 UNL     1      19.768 -14.674  22.338  1.00  0.00     0.158 C 
ENDROOT
BRANCH   1  12
HETATM   12  C11 UNL     1      13.789 -12.454  20.089  1.00  0.00     0.034 A 
HETATM   13  C28 UNL     1      13.741 -12.503  18.578  1.00  0.00     0.022 A 
HETATM   14  C29 UNL     1      13.900 -11.219  19.332  1.00  0.00     0.022 A 
BRANCH  12  15
HETATM   15  C5  UNL     1      12.608 -12.980  20.774  1.00  0.00     0.072 C 
HETATM   16  N1  UNL     1      12.047 -14.027  20.451  1.00  0.00    -0.267 N 
ATOM     17  H1  UNL     1      11.298 -14.229  21.114  1.00  0.00     0.194 HD
BRANCH  16  18
HETATM   18  O3  UNL     1      12.087 -14.922  19.588  1.00  0.00    -0.270 OA
BRANCH  18  19
HETATM   19  C4  UNL     1      12.158 -16.211  19.196  1.00  0.00     0.312 C 
BRANCH  19  20
HETATM   20  C3  UNL     1      12.138 -17.173  20.372  1.00  0.00     0.285 C 
HETATM   21  O2  UNL     1      12.779 -16.993  21.411  1.00  0.00    -0.263 OA
BRANCH  20  22
HETATM   22  O1  UNL     1      11.356 -18.299  20.245  1.00  0.00    -0.320 OA
BRANCH  22  23
HETATM   23  C2  UNL     1      11.897 -19.590  20.335  1.00  0.00     0.174 C 
HETATM   24  C1  UNL     1      11.306 -20.406  19.183  1.00  0.00     0.034 C 
ENDBRANCH  22  23
ENDBRANCH  20  22
ENDBRANCH  19  20
ENDBRANCH  18  19
ENDBRANCH  16  18
BRANCH  15  25
HETATM   25  C6  UNL     1      12.157 -12.237  21.970  1.00  0.00     0.057 A 
HETATM   26  C7  UNL     1      12.498 -10.913  22.188  1.00  0.00     0.031 A 
HETATM   27  C8  UNL     1      12.064 -10.242  23.336  1.00  0.00     0.004 A 
HETATM   28  C9  UNL     1      11.291 -10.884  24.269  1.00  0.00     0.017 A 
HETATM   29  C10 UNL     1      10.970 -12.201  24.024  1.00  0.00     0.088 A 
HETATM   30  N2  UNL     1      11.396 -12.824  22.919  1.00  0.00    -0.364 N 
ATOM     31  H2  UNL     1      11.131 -13.800  22.785  1.00  0.00     0.165 HD
ENDBRANCH  15  25
ENDBRANCH  12  15
ENDBRANCH   1  12
BRANCH   9  32
HETATM   32  C19 UNL     1      18.625 -17.495  22.655  1.00  0.00     0.196 C 
BRANCH  32  33
HETATM   33  N4  UNL     1      18.545 -17.541  24.084  1.00  0.00    -0.383 N 
ATOM     34  H4  UNL     1      17.830 -18.114  24.530  1.00  0.00     0.160 HD
BRANCH  33  35
HETATM   35  C20 UNL     1      19.442 -16.802  24.878  1.00  0.00     0.028 A 
HETATM   36  C21 UNL     1      20.789 -17.025  24.803  1.00  0.00     0.030 A 
HETATM   37  C22 UNL     1      21.660 -16.296  25.600  1.00  0.00     0.017 A 
HETATM   38  C23 UNL     1      21.244 -15.335  26.487  1.00  0.00     0.005 A 
HETATM   39  C25 UNL     1      19.854 -15.134  26.535  1.00  0.00     0.017 A 
HETATM   40  C26 UNL     1      18.974 -15.846  25.753  1.00  0.00     0.030 A 
BRANCH  38  41
HETATM   41  C24 UNL     1      22.119 -14.554  27.338  1.00  0.00     0.120 C 
HETATM   42  N5  UNL     1      21.750 -13.231  27.668  1.00  0.00    -0.082 NA
BRANCH  41  43
HETATM   43  N6  UNL     1      23.208 -15.034  27.795  1.00  0.00    -0.387 N 
ATOM     44  H62 UNL     1      23.898 -15.416  27.149  1.00  0.00     0.157 HD
ATOM     45  H61 UNL     1      23.408 -15.046  28.795  1.00  0.00     0.157 HD
ENDBRANCH  41  43
ENDBRANCH  38  41
ENDBRANCH  33  35
ENDBRANCH  32  33
ENDBRANCH   9  32
TORSDOF 13
ENDMDL
