MODEL 7
REMARK VINA RESULT: -8.757219605      3.859     10.223
REMARK  13 active torsions:
REMARK  status: ('A' for Active; 'I' for Inactive)
REMARK    1  A    between atoms: C2_2  and  O1_3 
REMARK    2  A    between atoms: O1_3  and  C3_4 
REMARK    3  A    between atoms: C3_4  and  C4_6 
REMARK    4  A    between atoms: C4_6  and  O3_7 
REMARK    5  A    between atoms: O3_7  and  N1_8 
REMARK    6  A    between atoms: C5_10  and  C6_11 
REMARK    7  A    between atoms: C5_10  and  C11_18 
REMARK    8  A    between atoms: C11_18  and  C12_19 
REMARK    9  A    between atoms: C18_27  and  C19_28 
REMARK   10  A    between atoms: C19_28  and  N4_29 
REMARK   11  A    between atoms: N4_29  and  C20_31 
REMARK   12  A    between atoms: C23_34  and  C24_35 
REMARK   13  A    between atoms: C24_35  and  N6_37 
ROOT
HETATM    1  C12 UNL     1      15.983 -13.926  20.708  1.00  0.00    -0.041 A 
HETATM    2  C13 UNL     1      15.702 -15.175  20.246  1.00  0.00     0.011 A 
HETATM    3  C14 UNL     1      16.134 -16.285  20.985  1.00  0.00     0.033 A 
HETATM    4  C15 UNL     1      16.830 -16.144  22.160  1.00  0.00     0.062 A 
HETATM    5  C16 UNL     1      17.108 -14.859  22.620  1.00  0.00     0.061 A 
HETATM    6  C17 UNL     1      16.675 -13.772  21.877  1.00  0.00     0.040 A 
HETATM    7  N3  UNL     1      17.778 -15.017  23.768  1.00  0.00    -0.343 N 
ATOM      8  H3  UNL     1      18.121 -14.246  24.342  1.00  0.00     0.167 HD
HETATM    9  C18 UNL     1      17.939 -16.293  24.067  1.00  0.00     0.102 A 
HETATM   10  N7  UNL     1      17.352 -16.986  23.067  1.00  0.00    -0.338 N 
HETATM   11  C27 UNL     1      17.314 -18.433  23.020  1.00  0.00     0.158 C 
ENDROOT
BRANCH   1  12
HETATM   12  C11 UNL     1      15.502 -12.703  19.919  1.00  0.00     0.034 A 
HETATM   13  C28 UNL     1      16.667 -11.912  19.365  1.00  0.00     0.022 A 
HETATM   14  C29 UNL     1      15.798 -11.391  20.468  1.00  0.00     0.022 A 
BRANCH  12  15
HETATM   15  C5  UNL     1      14.462 -13.054  18.952  1.00  0.00     0.072 C 
HETATM   16  N1  UNL     1      13.287 -13.253  19.261  1.00  0.00    -0.267 N 
ATOM     17  H1  UNL     1      12.736 -13.408  18.417  1.00  0.00     0.194 HD
BRANCH  16  18
HETATM   18  O3  UNL     1      12.547 -13.327  20.258  1.00  0.00    -0.270 OA
BRANCH  18  19
HETATM   19  C4  UNL     1      12.196 -13.007  21.521  1.00  0.00     0.312 C 
BRANCH  19  20
HETATM   20  C3  UNL     1      11.984 -11.513  21.699  1.00  0.00     0.285 C 
HETATM   21  O2  UNL     1      12.551 -10.658  21.014  1.00  0.00    -0.263 OA
BRANCH  20  22
HETATM   22  O1  UNL     1      11.109 -11.119  22.686  1.00  0.00    -0.320 OA
BRANCH  22  23
HETATM   23  C2  UNL     1      11.519 -10.956  24.017  1.00  0.00     0.174 C 
HETATM   24  C1  UNL     1      11.565  -9.451  24.292  1.00  0.00     0.034 C 
ENDBRANCH  22  23
ENDBRANCH  20  22
ENDBRANCH  19  20
ENDBRANCH  18  19
ENDBRANCH  16  18
BRANCH  15  25
HETATM   25  C6  UNL     1      14.865 -13.065  17.529  1.00  0.00     0.057 A 
HETATM   26  C7  UNL     1      15.283 -14.219  16.890  1.00  0.00     0.031 A 
HETATM   27  C8  UNL     1      15.669 -14.193  15.545  1.00  0.00     0.004 A 
HETATM   28  C9  UNL     1      15.641 -13.021  14.834  1.00  0.00     0.017 A 
HETATM   29  C10 UNL     1      15.221 -11.890  15.499  1.00  0.00     0.088 A 
HETATM   30  N2  UNL     1      14.856 -11.937  16.786  1.00  0.00    -0.364 N 
ATOM     31  H2  UNL     1      14.554 -11.071  17.232  1.00  0.00     0.165 HD
ENDBRANCH  15  25
ENDBRANCH  12  15
ENDBRANCH   1  12
BRANCH   9  32
HETATM   32  C19 UNL     1      18.625 -16.826  25.270  1.00  0.00     0.196 C 
BRANCH  32  33
HETATM   33  N4  UNL     1      19.279 -15.741  25.936  1.00  0.00    -0.383 N 
ATOM     34  H4  UNL     1      18.783 -15.218  26.657  1.00  0.00     0.160 HD
BRANCH  33  35
HETATM   35  C20 UNL     1      20.602 -15.389  25.605  1.00  0.00     0.028 A 
HETATM   36  C21 UNL     1      21.473 -16.322  25.115  1.00  0.00     0.030 A 
HETATM   37  C22 UNL     1      22.776 -15.961  24.804  1.00  0.00     0.017 A 
HETATM   38  C23 UNL     1      23.262 -14.687  24.960  1.00  0.00     0.005 A 
HETATM   39  C25 UNL     1      22.338 -13.757  25.465  1.00  0.00     0.017 A 
HETATM   40  C26 UNL     1      21.042 -14.095  25.779  1.00  0.00     0.030 A 
BRANCH  38  41
HETATM   41  C24 UNL     1      24.615 -14.270  24.650  1.00  0.00     0.120 C 
HETATM   42  N5  UNL     1      24.830 -12.969  24.143  1.00  0.00    -0.082 NA
BRANCH  41  43
HETATM   43  N6  UNL     1      25.610 -15.047  24.827  1.00  0.00    -0.387 N 
ATOM     44  H62 UNL     1      25.467 -15.951  25.275  1.00  0.00     0.157 HD
ATOM     45  H61 UNL     1      26.549 -14.787  24.528  1.00  0.00     0.157 HD
ENDBRANCH  41  43
ENDBRANCH  38  41
ENDBRANCH  33  35
ENDBRANCH  32  33
ENDBRANCH   9  32
TORSDOF 13
ENDMDL
