MODEL 6
REMARK VINA RESULT: -8.814304275      1.234      1.919
REMARK  13 active torsions:
REMARK  status: ('A' for Active; 'I' for Inactive)
REMARK    1  A    between atoms: C2_2  and  O1_3 
REMARK    2  A    between atoms: O1_3  and  C3_4 
REMARK    3  A    between atoms: C3_4  and  C4_6 
REMARK    4  A    between atoms: C4_6  and  O3_7 
REMARK    5  A    between atoms: O3_7  and  N1_8 
REMARK    6  A    between atoms: C5_10  and  C6_11 
REMARK    7  A    between atoms: C5_10  and  C11_18 
REMARK    8  A    between atoms: C11_18  and  C12_19 
REMARK    9  A    between atoms: C18_27  and  C19_28 
REMARK   10  A    between atoms: C19_28  and  N4_29 
REMARK   11  A    between atoms: N4_29  and  C20_31 
REMARK   12  A    between atoms: C23_34  and  C24_35 
REMARK   13  A    between atoms: C24_35  and  N6_37 
ROOT
HETATM    1  C12 UNL     1      18.288 -14.934  23.005  1.00  0.00    -0.041 A 
HETATM    2  C13 UNL     1      18.906 -13.786  22.613  1.00  0.00     0.011 A 
HETATM    3  C14 UNL     1      18.338 -13.030  21.578  1.00  0.00     0.033 A 
HETATM    4  C15 UNL     1      17.178 -13.417  20.954  1.00  0.00     0.062 A 
HETATM    5  C16 UNL     1      16.558 -14.593  21.368  1.00  0.00     0.061 A 
HETATM    6  C17 UNL     1      17.133 -15.330  22.392  1.00  0.00     0.040 A 
HETATM    7  N3  UNL     1      15.464 -14.720  20.607  1.00  0.00    -0.343 N 
ATOM      8  H3  UNL     1      14.803 -15.494  20.678  1.00  0.00     0.167 HD
HETATM    9  C18 UNL     1      15.347 -13.719  19.753  1.00  0.00     0.102 A 
HETATM   10  N7  UNL     1      16.411 -12.917  19.971  1.00  0.00    -0.338 N 
HETATM   11  C27 UNL     1      16.652 -11.697  19.227  1.00  0.00     0.158 C 
ENDROOT
BRANCH   1  12
HETATM   12  C11 UNL     1      18.889 -15.762  24.147  1.00  0.00     0.034 A 
HETATM   13  C28 UNL     1      18.275 -17.143  24.208  1.00  0.00     0.022 A 
HETATM   14  C29 UNL     1      18.018 -16.106  25.258  1.00  0.00     0.022 A 
BRANCH  12  15
HETATM   15  C5  UNL     1      20.352 -15.723  24.136  1.00  0.00     0.072 C 
HETATM   16  N1  UNL     1      21.033 -16.091  23.179  1.00  0.00    -0.267 N 
ATOM     17  H1  UNL     1      22.017 -15.903  23.371  1.00  0.00     0.194 HD
BRANCH  16  18
HETATM   18  O3  UNL     1      20.924 -16.615  22.056  1.00  0.00    -0.270 OA
BRANCH  18  19
HETATM   19  C4  UNL     1      20.779 -17.675  21.234  1.00  0.00     0.312 C 
BRANCH  19  20
HETATM   20  C3  UNL     1      20.403 -18.940  21.985  1.00  0.00     0.285 C 
HETATM   21  O2  UNL     1      20.975 -19.320  23.011  1.00  0.00    -0.263 OA
BRANCH  20  22
HETATM   22  O1  UNL     1      19.365 -19.687  21.473  1.00  0.00    -0.320 OA
BRANCH  22  23
HETATM   23  C2  UNL     1      18.605 -19.246  20.381  1.00  0.00     0.174 C 
HETATM   24  C1  UNL     1      17.264 -18.757  20.935  1.00  0.00     0.034 C 
ENDBRANCH  22  23
ENDBRANCH  20  22
ENDBRANCH  19  20
ENDBRANCH  18  19
ENDBRANCH  16  18
BRANCH  15  25
HETATM   25  C6  UNL     1      21.001 -15.113  25.316  1.00  0.00     0.057 A 
HETATM   26  C7  UNL     1      20.655 -13.858  25.782  1.00  0.00     0.031 A 
HETATM   27  C8  UNL     1      21.297 -13.305  26.895  1.00  0.00     0.004 A 
HETATM   28  C9  UNL     1      22.285 -13.997  27.546  1.00  0.00     0.017 A 
HETATM   29  C10 UNL     1      22.607 -15.245  27.058  1.00  0.00     0.088 A 
HETATM   30  N2  UNL     1      21.980 -15.755  25.991  1.00  0.00    -0.364 N 
ATOM     31  H2  UNL     1      22.257 -16.682  25.668  1.00  0.00     0.165 HD
ENDBRANCH  15  25
ENDBRANCH  12  15
ENDBRANCH   1  12
BRANCH   9  32
HETATM   32  C19 UNL     1      14.250 -13.537  18.771  1.00  0.00     0.196 C 
BRANCH  32  33
HETATM   33  N4  UNL     1      13.626 -12.273  19.018  1.00  0.00    -0.383 N 
ATOM     34  H4  UNL     1      13.595 -11.572  18.277  1.00  0.00     0.160 HD
BRANCH  33  35
HETATM   35  C20 UNL     1      13.056 -11.986  20.272  1.00  0.00     0.028 A 
HETATM   36  C21 UNL     1      12.224 -12.883  20.884  1.00  0.00     0.030 A 
HETATM   37  C22 UNL     1      11.662 -12.580  22.116  1.00  0.00     0.017 A 
HETATM   38  C23 UNL     1      11.893 -11.403  22.781  1.00  0.00     0.005 A 
HETATM   39  C25 UNL     1      12.752 -10.507  22.122  1.00  0.00     0.017 A 
HETATM   40  C26 UNL     1      13.320 -10.788  20.900  1.00  0.00     0.030 A 
BRANCH  38  41
HETATM   41  C24 UNL     1      11.324 -11.048  24.066  1.00  0.00     0.120 C 
HETATM   42  N5  UNL     1      11.361  -9.697  24.480  1.00  0.00    -0.082 NA
BRANCH  41  43
HETATM   43  N6  UNL     1      10.793 -11.923  24.825  1.00  0.00    -0.387 N 
ATOM     44  H62 UNL     1      10.665 -12.874  24.481  1.00  0.00     0.157 HD
ATOM     45  H61 UNL     1      10.491 -11.695  25.772  1.00  0.00     0.157 HD
ENDBRANCH  41  43
ENDBRANCH  38  41
ENDBRANCH  33  35
ENDBRANCH  32  33
ENDBRANCH   9  32
TORSDOF 13
ENDMDL
