MODEL 4
REMARK VINA RESULT: -8.872635318      3.566      9.804
REMARK  13 active torsions:
REMARK  status: ('A' for Active; 'I' for Inactive)
REMARK    1  A    between atoms: C2_2  and  O1_3 
REMARK    2  A    between atoms: O1_3  and  C3_4 
REMARK    3  A    between atoms: C3_4  and  C4_6 
REMARK    4  A    between atoms: C4_6  and  O3_7 
REMARK    5  A    between atoms: O3_7  and  N1_8 
REMARK    6  A    between atoms: C5_10  and  C6_11 
REMARK    7  A    between atoms: C5_10  and  C11_18 
REMARK    8  A    between atoms: C11_18  and  C12_19 
REMARK    9  A    between atoms: C18_27  and  C19_28 
REMARK   10  A    between atoms: C19_28  and  N4_29 
REMARK   11  A    between atoms: N4_29  and  C20_31 
REMARK   12  A    between atoms: C23_34  and  C24_35 
REMARK   13  A    between atoms: C24_35  and  N6_37 
ROOT
HETATM    1  C12 UNL     1      15.223 -13.696  20.451  1.00  0.00    -0.041 A 
HETATM    2  C13 UNL     1      15.191 -15.038  20.681  1.00  0.00     0.011 A 
HETATM    3  C14 UNL     1      16.285 -15.644  21.314  1.00  0.00     0.033 A 
HETATM    4  C15 UNL     1      17.383 -14.920  21.707  1.00  0.00     0.062 A 
HETATM    5  C16 UNL     1      17.400 -13.549  21.465  1.00  0.00     0.061 A 
HETATM    6  C17 UNL     1      16.311 -12.965  20.837  1.00  0.00     0.040 A 
HETATM    7  N3  UNL     1      18.566 -13.104  21.950  1.00  0.00    -0.343 N 
ATOM      8  H3  UNL     1      18.867 -12.130  21.916  1.00  0.00     0.167 HD
HETATM    9  C18 UNL     1      19.279 -14.083  22.478  1.00  0.00     0.102 A 
HETATM   10  N7  UNL     1      18.543 -15.205  22.323  1.00  0.00    -0.338 N 
HETATM   11  C27 UNL     1      18.981 -16.510  22.773  1.00  0.00     0.158 C 
ENDROOT
BRANCH   1  12
HETATM   12  C11 UNL     1      14.026 -13.017  19.774  1.00  0.00     0.034 A 
HETATM   13  C28 UNL     1      14.060 -13.210  18.274  1.00  0.00     0.022 A 
HETATM   14  C29 UNL     1      14.298 -11.878  18.915  1.00  0.00     0.022 A 
BRANCH  12  15
HETATM   15  C5  UNL     1      12.764 -13.365  20.426  1.00  0.00     0.072 C 
HETATM   16  N1  UNL     1      12.098 -14.357  20.130  1.00  0.00    -0.267 N 
ATOM     17  H1  UNL     1      11.302 -14.434  20.764  1.00  0.00     0.194 HD
BRANCH  16  18
HETATM   18  O3  UNL     1      12.070 -15.298  19.316  1.00  0.00    -0.270 OA
BRANCH  18  19
HETATM   19  C4  UNL     1      11.874 -16.589  18.978  1.00  0.00     0.312 C 
BRANCH  19  20
HETATM   20  C3  UNL     1      11.959 -17.518  20.177  1.00  0.00     0.285 C 
HETATM   21  O2  UNL     1      12.540 -17.225  21.226  1.00  0.00    -0.263 OA
BRANCH  20  22
HETATM   22  O1  UNL     1      11.346 -18.746  20.062  1.00  0.00    -0.320 OA
BRANCH  22  23
HETATM   23  C2  UNL     1      11.293 -19.434  18.842  1.00  0.00     0.174 C 
HETATM   24  C1  UNL     1      10.896 -20.879  19.159  1.00  0.00     0.034 C 
ENDBRANCH  22  23
ENDBRANCH  20  22
ENDBRANCH  19  20
ENDBRANCH  18  19
ENDBRANCH  16  18
BRANCH  15  25
HETATM   25  C6  UNL     1      12.352 -12.509  21.559  1.00  0.00     0.057 A 
HETATM   26  C7  UNL     1      12.832 -11.222  21.724  1.00  0.00     0.031 A 
HETATM   27  C8  UNL     1      12.431 -10.443  22.814  1.00  0.00     0.004 A 
HETATM   28  C9  UNL     1      11.554 -10.940  23.743  1.00  0.00     0.017 A 
HETATM   29  C10 UNL     1      11.095 -12.225  23.552  1.00  0.00     0.088 A 
HETATM   30  N2  UNL     1      11.492 -12.954  22.501  1.00  0.00    -0.364 N 
ATOM     31  H2  UNL     1      11.123 -13.901  22.406  1.00  0.00     0.165 HD
ENDBRANCH  15  25
ENDBRANCH  12  15
ENDBRANCH   1  12
BRANCH   9  32
HETATM   32  C19 UNL     1      20.613 -13.944  23.112  1.00  0.00     0.196 C 
BRANCH  32  33
HETATM   33  N4  UNL     1      20.426 -13.731  24.516  1.00  0.00    -0.383 N 
ATOM     34  H4  UNL     1      19.690 -13.103  24.837  1.00  0.00     0.160 HD
BRANCH  33  35
HETATM   35  C20 UNL     1      21.249 -14.380  25.456  1.00  0.00     0.028 A 
HETATM   36  C21 UNL     1      21.597 -13.763  26.626  1.00  0.00     0.030 A 
HETATM   37  C22 UNL     1      22.417 -14.412  27.537  1.00  0.00     0.017 A 
HETATM   38  C23 UNL     1      22.918 -15.674  27.335  1.00  0.00     0.005 A 
HETATM   39  C25 UNL     1      22.538 -16.276  26.122  1.00  0.00     0.017 A 
HETATM   40  C26 UNL     1      21.726 -15.648  25.206  1.00  0.00     0.030 A 
BRANCH  38  41
HETATM   41  C24 UNL     1      23.778 -16.385  28.258  1.00  0.00     0.120 C 
HETATM   42  N5  UNL     1      24.201 -17.692  27.931  1.00  0.00    -0.082 NA
BRANCH  41  43
HETATM   43  N6  UNL     1      24.161 -15.858  29.354  1.00  0.00    -0.387 N 
ATOM     44  H62 UNL     1      23.481 -15.384  29.948  1.00  0.00     0.157 HD
ATOM     45  H61 UNL     1      25.135 -15.898  29.653  1.00  0.00     0.157 HD
ENDBRANCH  41  43
ENDBRANCH  38  41
ENDBRANCH  33  35
ENDBRANCH  32  33
ENDBRANCH   9  32
TORSDOF 13
ENDMDL
