MODEL 10
REMARK VINA RESULT: -9.233614800      1.656      2.646
REMARK  7 active torsions:
REMARK  status: ('A' for Active; 'I' for Inactive)
REMARK    1  A    between atoms: N2_11  and  C9_12 
REMARK    2  A    between atoms: C9_12  and  C10_13 
REMARK    3  A    between atoms: C16_21  and  C17_22 
REMARK    4  A    between atoms: C17_22  and  N4_23 
REMARK    5  A    between atoms: N4_23  and  C18_25 
REMARK    6  A    between atoms: C21_28  and  C22_29 
REMARK    7  A    between atoms: C22_29  and  N6_31 
ROOT
HETATM    1  C10 UNL     1      18.861 -15.860  23.533  1.00  0.00    -0.038 A 
HETATM    2  C11 UNL     1      20.041 -15.389  22.956  1.00  0.00     0.011 A 
HETATM    3  C12 UNL     1      20.060 -14.376  22.014  1.00  0.00     0.033 A 
HETATM    4  C13 UNL     1      18.892 -13.786  21.608  1.00  0.00     0.062 A 
HETATM    5  C14 UNL     1      17.712 -14.244  22.174  1.00  0.00     0.061 A 
HETATM    6  C15 UNL     1      17.698 -15.256  23.112  1.00  0.00     0.040 A 
HETATM    7  N3  UNL     1      16.745 -13.491  21.593  1.00  0.00    -0.343 N 
ATOM      8  H3  UNL     1      15.745 -13.566  21.782  1.00  0.00     0.167 HD
HETATM    9  C16 UNL     1      17.311 -12.631  20.728  1.00  0.00     0.102 A 
HETATM   10  N7  UNL     1      18.646 -12.802  20.726  1.00  0.00    -0.338 N 
HETATM   11  C25 UNL     1      19.615 -12.057  19.920  1.00  0.00     0.158 C 
ENDROOT
BRANCH   9  12
HETATM   12  C17 UNL     1      16.611 -11.616  19.872  1.00  0.00     0.196 C 
BRANCH  12  13
HETATM   13  N4  UNL     1      15.300 -12.073  19.488  1.00  0.00    -0.383 N 
ATOM     14  H4  UNL     1      15.126 -12.436  18.551  1.00  0.00     0.160 HD
BRANCH  13  15
HETATM   15  C18 UNL     1      14.256 -12.007  20.447  1.00  0.00     0.028 A 
HETATM   16  C19 UNL     1      14.123 -10.914  21.288  1.00  0.00     0.030 A 
HETATM   17  C20 UNL     1      13.132 -10.808  22.226  1.00  0.00     0.017 A 
HETATM   18  C21 UNL     1      12.203 -11.846  22.353  1.00  0.00     0.005 A 
HETATM   19  C23 UNL     1      12.330 -12.935  21.520  1.00  0.00     0.017 A 
HETATM   20  C24 UNL     1      13.324 -13.033  20.583  1.00  0.00     0.030 A 
BRANCH  18  21
HETATM   21  C22 UNL     1      11.149 -11.733  23.349  1.00  0.00     0.120 C 
HETATM   22  N5  UNL     1      11.074 -10.563  24.132  1.00  0.00    -0.082 NA
BRANCH  21  23
HETATM   23  N6  UNL     1      10.316 -12.680  23.506  1.00  0.00    -0.387 N 
ATOM     24  H62 UNL     1       9.313 -12.496  23.542  1.00  0.00     0.157 HD
ATOM     25  H61 UNL     1      10.645 -13.641  23.600  1.00  0.00     0.157 HD
ENDBRANCH  21  23
ENDBRANCH  18  21
ENDBRANCH  13  15
ENDBRANCH  12  13
ENDBRANCH   9  12
BRANCH   1  26
HETATM   26  C9  UNL     1      18.911 -16.952  24.539  1.00  0.00     0.169 C 
BRANCH  26  27
HETATM   27  N2  UNL     1      20.226 -16.976  25.123  1.00  0.00    -0.331 N 
HETATM   28  C2  UNL     1      21.153 -17.937  24.990  1.00  0.00     0.080 A 
HETATM   29  C1  UNL     1      21.052 -19.216  24.225  1.00  0.00     0.089 C 
HETATM   30  N1  UNL     1      22.219 -17.544  25.689  1.00  0.00    -0.344 N 
HETATM   31  C3  UNL     1      21.984 -16.344  26.266  1.00  0.00     0.060 A 
ATOM     32  H1  UNL     1      23.088 -18.072  25.776  1.00  0.00     0.167 HD
HETATM   33  C4  UNL     1      22.780 -15.535  27.085  1.00  0.00     0.032 A 
HETATM   34  C8  UNL     1      20.711 -15.971  25.910  1.00  0.00     0.063 A 
HETATM   35  C5  UNL     1      22.268 -14.339  27.540  1.00  0.00     0.002 A 
HETATM   36  C6  UNL     1      20.990 -13.971  27.181  1.00  0.00     0.002 A 
HETATM   37  C7  UNL     1      20.196 -14.770  26.369  1.00  0.00     0.032 A 
ENDBRANCH  26  27
ENDBRANCH   1  26
TORSDOF 7
ENDMDL
