MODEL 12
REMARK VINA RESULT: -9.182486813      2.990      5.346
REMARK  7 active torsions:
REMARK  status: ('A' for Active; 'I' for Inactive)
REMARK    1  A    between atoms: N2_11  and  C9_12 
REMARK    2  A    between atoms: C9_12  and  C10_13 
REMARK    3  A    between atoms: C16_21  and  C17_22 
REMARK    4  A    between atoms: C17_22  and  N4_23 
REMARK    5  A    between atoms: N4_23  and  C18_25 
REMARK    6  A    between atoms: C21_28  and  C22_29 
REMARK    7  A    between atoms: C22_29  and  N6_31 
ROOT
HETATM    1  C10 UNL     1      18.932 -14.844  21.906  1.00  0.00    -0.038 A 
HETATM    2  C11 UNL     1      18.853 -13.481  21.613  1.00  0.00     0.011 A 
HETATM    3  C12 UNL     1      17.658 -12.847  21.328  1.00  0.00     0.033 A 
HETATM    4  C13 UNL     1      16.483 -13.550  21.327  1.00  0.00     0.062 A 
HETATM    5  C14 UNL     1      16.547 -14.904  21.617  1.00  0.00     0.061 A 
HETATM    6  C15 UNL     1      17.741 -15.534  21.899  1.00  0.00     0.040 A 
HETATM    7  N3  UNL     1      15.259 -15.326  21.542  1.00  0.00    -0.343 N 
ATOM      8  H3  UNL     1      14.941 -16.282  21.701  1.00  0.00     0.167 HD
HETATM    9  C16 UNL     1      14.469 -14.285  21.225  1.00  0.00     0.102 A 
HETATM   10  N7  UNL     1      15.215 -13.174  21.087  1.00  0.00    -0.338 N 
HETATM   11  C25 UNL     1      14.725 -11.836  20.746  1.00  0.00     0.158 C 
ENDROOT
BRANCH   9  12
HETATM   12  C17 UNL     1      12.979 -14.303  21.039  1.00  0.00     0.196 C 
BRANCH  12  13
HETATM   13  N4  UNL     1      12.425 -15.584  21.397  1.00  0.00    -0.383 N 
ATOM     14  H4  UNL     1      12.229 -15.815  22.371  1.00  0.00     0.160 HD
BRANCH  13  15
HETATM   15  C18 UNL     1      12.159 -16.516  20.360  1.00  0.00     0.028 A 
HETATM   16  C19 UNL     1      11.628 -17.765  20.638  1.00  0.00     0.030 A 
HETATM   17  C20 UNL     1      11.356 -18.695  19.671  1.00  0.00     0.017 A 
HETATM   18  C21 UNL     1      11.622 -18.381  18.334  1.00  0.00     0.005 A 
HETATM   19  C23 UNL     1      12.150 -17.141  18.052  1.00  0.00     0.017 A 
HETATM   20  C24 UNL     1      12.419 -16.217  19.025  1.00  0.00     0.030 A 
BRANCH  18  21
HETATM   21  C22 UNL     1      11.332 -19.368  17.306  1.00  0.00     0.120 C 
HETATM   22  N5  UNL     1      11.941 -20.637  17.389  1.00  0.00    -0.082 NA
BRANCH  21  23
HETATM   23  N6  UNL     1      10.543 -19.082  16.351  1.00  0.00    -0.387 N 
ATOM     24  H62 UNL     1       9.563 -18.863  16.528  1.00  0.00     0.157 HD
ATOM     25  H61 UNL     1      10.886 -19.070  15.390  1.00  0.00     0.157 HD
ENDBRANCH  21  23
ENDBRANCH  18  21
ENDBRANCH  13  15
ENDBRANCH  12  13
ENDBRANCH   9  12
BRANCH   1  26
HETATM   26  C9  UNL     1      20.249 -15.465  22.203  1.00  0.00     0.169 C 
BRANCH  26  27
HETATM   27  N2  UNL     1      20.265 -15.864  23.585  1.00  0.00    -0.331 N 
HETATM   28  C2  UNL     1      20.024 -17.090  24.077  1.00  0.00     0.080 A 
HETATM   29  C1  UNL     1      19.669 -18.331  23.324  1.00  0.00     0.089 C 
HETATM   30  N1  UNL     1      20.156 -17.008  25.402  1.00  0.00    -0.344 N 
HETATM   31  C3  UNL     1      20.477 -15.744  25.762  1.00  0.00     0.060 A 
ATOM     32  H1  UNL     1      20.032 -17.785  26.050  1.00  0.00     0.167 HD
HETATM   33  C4  UNL     1      20.712 -15.168  27.015  1.00  0.00     0.032 A 
HETATM   34  C8  UNL     1      20.549 -15.005  24.607  1.00  0.00     0.063 A 
HETATM   35  C5  UNL     1      21.023 -13.827  27.084  1.00  0.00     0.002 A 
HETATM   36  C6  UNL     1      21.093 -13.090  25.922  1.00  0.00     0.002 A 
HETATM   37  C7  UNL     1      20.860 -13.656  24.677  1.00  0.00     0.032 A 
ENDBRANCH  26  27
ENDBRANCH   1  26
TORSDOF 7
ENDMDL
