MODEL 2
REMARK VINA RESULT: -9.526117906      1.420      2.116
REMARK  7 active torsions:
REMARK  status: ('A' for Active; 'I' for Inactive)
REMARK    1  A    between atoms: N2_11  and  C9_12 
REMARK    2  A    between atoms: C9_12  and  C10_13 
REMARK    3  A    between atoms: C16_21  and  C17_22 
REMARK    4  A    between atoms: C17_22  and  N4_23 
REMARK    5  A    between atoms: N4_23  and  C18_25 
REMARK    6  A    between atoms: C21_28  and  C22_29 
REMARK    7  A    between atoms: C22_29  and  N6_31 
ROOT
HETATM    1  C10 UNL     1      18.260 -15.901  23.030  1.00  0.00    -0.038 A 
HETATM    2  C11 UNL     1      18.780 -14.608  22.951  1.00  0.00     0.011 A 
HETATM    3  C12 UNL     1      18.265 -13.647  22.099  1.00  0.00     0.033 A 
HETATM    4  C13 UNL     1      17.202 -13.939  21.288  1.00  0.00     0.062 A 
HETATM    5  C14 UNL     1      16.675 -15.220  21.357  1.00  0.00     0.061 A 
HETATM    6  C15 UNL     1      17.192 -16.176  22.207  1.00  0.00     0.040 A 
HETATM    7  N3  UNL     1      15.656 -15.215  20.461  1.00  0.00    -0.343 N 
ATOM      8  H3  UNL     1      15.047 -16.007  20.255  1.00  0.00     0.167 HD
HETATM    9  C16 UNL     1      15.576 -14.002  19.887  1.00  0.00     0.102 A 
HETATM   10  N7  UNL     1      16.531 -13.197  20.389  1.00  0.00    -0.338 N 
HETATM   11  C25 UNL     1      16.771 -11.800  20.022  1.00  0.00     0.158 C 
ENDROOT
BRANCH   9  12
HETATM   12  C17 UNL     1      14.595 -13.558  18.841  1.00  0.00     0.196 C 
BRANCH  12  13
HETATM   13  N4  UNL     1      13.238 -13.719  19.298  1.00  0.00    -0.383 N 
ATOM     14  H4  UNL     1      12.594 -14.344  18.814  1.00  0.00     0.160 HD
BRANCH  13  15
HETATM   15  C18 UNL     1      12.820 -12.987  20.440  1.00  0.00     0.028 A 
HETATM   16  C19 UNL     1      12.217 -13.617  21.515  1.00  0.00     0.030 A 
HETATM   17  C20 UNL     1      11.798 -12.951  22.635  1.00  0.00     0.017 A 
HETATM   18  C21 UNL     1      11.982 -11.567  22.710  1.00  0.00     0.005 A 
HETATM   19  C23 UNL     1      12.581 -10.934  21.644  1.00  0.00     0.017 A 
HETATM   20  C24 UNL     1      12.997 -11.608  20.527  1.00  0.00     0.030 A 
BRANCH  18  21
HETATM   21  C22 UNL     1      11.538 -10.858  23.900  1.00  0.00     0.120 C 
HETATM   22  N5  UNL     1      11.844  -9.489  24.033  1.00  0.00    -0.082 NA
BRANCH  21  23
HETATM   23  N6  UNL     1      10.886 -11.473  24.802  1.00  0.00    -0.387 N 
ATOM     24  H62 UNL     1       9.947 -11.829  24.621  1.00  0.00     0.157 HD
ATOM     25  H61 UNL     1      11.300 -11.617  25.724  1.00  0.00     0.157 HD
ENDBRANCH  21  23
ENDBRANCH  18  21
ENDBRANCH  13  15
ENDBRANCH  12  13
ENDBRANCH   9  12
BRANCH   1  26
HETATM   26  C9  UNL     1      18.861 -16.886  23.967  1.00  0.00     0.169 C 
BRANCH  26  27
HETATM   27  N2  UNL     1      20.240 -16.535  24.177  1.00  0.00    -0.331 N 
HETATM   28  C2  UNL     1      21.292 -16.905  23.430  1.00  0.00     0.080 A 
HETATM   29  C1  UNL     1      21.299 -17.774  22.214  1.00  0.00     0.089 C 
HETATM   30  N1  UNL     1      22.372 -16.348  23.980  1.00  0.00    -0.344 N 
HETATM   31  C3  UNL     1      22.021 -15.627  25.070  1.00  0.00     0.060 A 
ATOM     32  H1  UNL     1      23.324 -16.450  23.630  1.00  0.00     0.167 HD
HETATM   33  C4  UNL     1      22.785 -14.875  25.970  1.00  0.00     0.032 A 
HETATM   34  C8  UNL     1      20.659 -15.741  25.205  1.00  0.00     0.063 A 
HETATM   35  C5  UNL     1      22.148 -14.237  27.013  1.00  0.00     0.002 A 
HETATM   36  C6  UNL     1      20.782 -14.355  27.143  1.00  0.00     0.002 A 
HETATM   37  C7  UNL     1      20.020 -15.100  26.253  1.00  0.00     0.032 A 
ENDBRANCH  26  27
ENDBRANCH   1  26
TORSDOF 7
ENDMDL
