MODEL 8
REMARK VINA RESULT: -9.238778903      2.505      9.553
REMARK  7 active torsions:
REMARK  status: ('A' for Active; 'I' for Inactive)
REMARK    1  A    between atoms: N2_11  and  C9_12 
REMARK    2  A    between atoms: C9_12  and  C10_13 
REMARK    3  A    between atoms: C16_21  and  C17_22 
REMARK    4  A    between atoms: C17_22  and  N4_23 
REMARK    5  A    between atoms: N4_23  and  C18_25 
REMARK    6  A    between atoms: C21_28  and  C22_29 
REMARK    7  A    between atoms: C22_29  and  N6_31 
ROOT
HETATM    1  C10 UNL     1      15.186 -12.365  20.454  1.00  0.00    -0.038 A 
HETATM    2  C11 UNL     1      16.346 -11.852  19.871  1.00  0.00     0.011 A 
HETATM    3  C12 UNL     1      17.613 -12.261  20.246  1.00  0.00     0.033 A 
HETATM    4  C13 UNL     1      17.776 -13.206  21.223  1.00  0.00     0.062 A 
HETATM    5  C14 UNL     1      16.632 -13.724  21.811  1.00  0.00     0.061 A 
HETATM    6  C15 UNL     1      15.370 -13.313  21.435  1.00  0.00     0.040 A 
HETATM    7  N3  UNL     1      17.095 -14.616  22.722  1.00  0.00    -0.343 N 
ATOM      8  H3  UNL     1      16.515 -15.185  23.338  1.00  0.00     0.167 HD
HETATM    9  C16 UNL     1      18.439 -14.632  22.684  1.00  0.00     0.102 A 
HETATM   10  N7  UNL     1      18.878 -13.760  21.758  1.00  0.00    -0.338 N 
HETATM   11  C25 UNL     1      20.275 -13.487  21.415  1.00  0.00     0.158 C 
ENDROOT
BRANCH   9  12
HETATM   12  C17 UNL     1      19.358 -15.472  23.523  1.00  0.00     0.196 C 
BRANCH  12  13
HETATM   13  N4  UNL     1      20.286 -14.652  24.259  1.00  0.00    -0.383 N 
ATOM     14  H4  UNL     1      19.978 -13.793  24.713  1.00  0.00     0.160 HD
BRANCH  13  15
HETATM   15  C18 UNL     1      21.640 -15.071  24.337  1.00  0.00     0.028 A 
HETATM   16  C19 UNL     1      21.994 -16.395  24.142  1.00  0.00     0.030 A 
HETATM   17  C20 UNL     1      23.286 -16.843  24.208  1.00  0.00     0.017 A 
HETATM   18  C21 UNL     1      24.308 -15.929  24.485  1.00  0.00     0.005 A 
HETATM   19  C23 UNL     1      23.962 -14.610  24.681  1.00  0.00     0.017 A 
HETATM   20  C24 UNL     1      22.667 -14.171  24.613  1.00  0.00     0.030 A 
BRANCH  18  21
HETATM   21  C22 UNL     1      25.680 -16.404  24.555  1.00  0.00     0.120 C 
HETATM   22  N5  UNL     1      26.037 -17.311  25.573  1.00  0.00    -0.082 NA
BRANCH  21  23
HETATM   23  N6  UNL     1      26.539 -16.001  23.708  1.00  0.00    -0.387 N 
ATOM     24  H62 UNL     1      26.435 -16.212  22.715  1.00  0.00     0.157 HD
ATOM     25  H61 UNL     1      27.346 -15.459  24.016  1.00  0.00     0.157 HD
ENDBRANCH  21  23
ENDBRANCH  18  21
ENDBRANCH  13  15
ENDBRANCH  12  13
ENDBRANCH   9  12
BRANCH   1  26
HETATM   26  C9  UNL     1      13.854 -11.884  20.005  1.00  0.00     0.169 C 
BRANCH  26  27
HETATM   27  N2  UNL     1      12.862 -12.342  20.940  1.00  0.00    -0.331 N 
HETATM   28  C2  UNL     1      12.210 -13.516  20.918  1.00  0.00     0.080 A 
HETATM   29  C1  UNL     1      12.337 -14.622  19.922  1.00  0.00     0.089 C 
HETATM   30  N1  UNL     1      11.394 -13.524  21.974  1.00  0.00    -0.344 N 
HETATM   31  C3  UNL     1      11.518 -12.371  22.669  1.00  0.00     0.060 A 
ATOM     32  H1  UNL     1      10.768 -14.290  22.221  1.00  0.00     0.167 HD
HETATM   33  C4  UNL     1      10.882 -11.914  23.829  1.00  0.00     0.032 A 
HETATM   34  C8  UNL     1      12.454 -11.608  22.016  1.00  0.00     0.063 A 
HETATM   35  C5  UNL     1      11.209 -10.668  24.321  1.00  0.00     0.002 A 
HETATM   36  C6  UNL     1      12.148  -9.907  23.661  1.00  0.00     0.002 A 
HETATM   37  C7  UNL     1      12.782 -10.356  22.510  1.00  0.00     0.032 A 
ENDBRANCH  26  27
ENDBRANCH   1  26
TORSDOF 7
ENDMDL
