MODEL 5
REMARK VINA RESULT: -9.367374778      2.062      9.157
REMARK  7 active torsions:
REMARK  status: ('A' for Active; 'I' for Inactive)
REMARK    1  A    between atoms: N2_11  and  C9_12 
REMARK    2  A    between atoms: C9_12  and  C10_13 
REMARK    3  A    between atoms: C16_21  and  C17_22 
REMARK    4  A    between atoms: C17_22  and  N4_23 
REMARK    5  A    between atoms: N4_23  and  C18_25 
REMARK    6  A    between atoms: C21_28  and  C22_29 
REMARK    7  A    between atoms: C22_29  and  N6_31 
ROOT
HETATM    1  C10 UNL     1      15.099 -12.293  20.301  1.00  0.00    -0.038 A 
HETATM    2  C11 UNL     1      16.199 -11.765  19.623  1.00  0.00     0.011 A 
HETATM    3  C12 UNL     1      17.504 -12.091  19.947  1.00  0.00     0.033 A 
HETATM    4  C13 UNL     1      17.766 -12.967  20.967  1.00  0.00     0.062 A 
HETATM    5  C14 UNL     1      16.683 -13.500  21.648  1.00  0.00     0.061 A 
HETATM    6  C15 UNL     1      15.383 -13.171  21.323  1.00  0.00     0.040 A 
HETATM    7  N3  UNL     1      17.238 -14.314  22.581  1.00  0.00    -0.343 N 
ATOM      8  H3  UNL     1      16.721 -14.870  23.262  1.00  0.00     0.167 HD
HETATM    9  C16 UNL     1      18.577 -14.271  22.467  1.00  0.00     0.102 A 
HETATM   10  N7  UNL     1      18.921 -13.438  21.468  1.00  0.00    -0.338 N 
HETATM   11  C25 UNL     1      20.283 -13.123  21.030  1.00  0.00     0.158 C 
ENDROOT
BRANCH   9  12
HETATM   12  C17 UNL     1      19.581 -15.016  23.298  1.00  0.00     0.196 C 
BRANCH  12  13
HETATM   13  N4  UNL     1      19.737 -14.408  24.594  1.00  0.00    -0.383 N 
ATOM     14  H4  UNL     1      19.151 -13.624  24.878  1.00  0.00     0.160 HD
BRANCH  13  15
HETATM   15  C18 UNL     1      20.728 -14.929  25.467  1.00  0.00     0.028 A 
HETATM   16  C19 UNL     1      21.173 -16.235  25.350  1.00  0.00     0.030 A 
HETATM   17  C20 UNL     1      22.126 -16.778  26.169  1.00  0.00     0.017 A 
HETATM   18  C21 UNL     1      22.686 -15.986  27.177  1.00  0.00     0.005 A 
HETATM   19  C23 UNL     1      22.247 -14.686  27.299  1.00  0.00     0.017 A 
HETATM   20  C24 UNL     1      21.293 -14.151  26.476  1.00  0.00     0.030 A 
BRANCH  18  21
HETATM   21  C22 UNL     1      23.698 -16.562  28.048  1.00  0.00     0.120 C 
HETATM   22  N5  UNL     1      24.237 -17.824  27.725  1.00  0.00    -0.082 NA
BRANCH  21  23
HETATM   23  N6  UNL     1      24.085 -15.931  29.082  1.00  0.00    -0.387 N 
ATOM     24  H62 UNL     1      23.417 -15.440  29.677  1.00  0.00     0.157 HD
ATOM     25  H61 UNL     1      25.075 -15.909  29.327  1.00  0.00     0.157 HD
ENDBRANCH  21  23
ENDBRANCH  18  21
ENDBRANCH  13  15
ENDBRANCH  12  13
ENDBRANCH   9  12
BRANCH   1  26
HETATM   26  C9  UNL     1      13.723 -11.901  19.902  1.00  0.00     0.169 C 
BRANCH  26  27
HETATM   27  N2  UNL     1      12.801 -12.405  20.884  1.00  0.00    -0.331 N 
HETATM   28  C2  UNL     1      12.209 -13.610  20.895  1.00  0.00     0.080 A 
HETATM   29  C1  UNL     1      12.346 -14.714  19.897  1.00  0.00     0.089 C 
HETATM   30  N1  UNL     1      11.445 -13.655  21.988  1.00  0.00    -0.344 N 
HETATM   31  C3  UNL     1      11.542 -12.494  22.674  1.00  0.00     0.060 A 
ATOM     32  H1  UNL     1      10.871 -14.451  22.266  1.00  0.00     0.167 HD
HETATM   33  C4  UNL     1      10.939 -12.064  23.862  1.00  0.00     0.032 A 
HETATM   34  C8  UNL     1      12.407 -11.687  21.976  1.00  0.00     0.063 A 
HETATM   35  C5  UNL     1      11.224 -10.802  24.335  1.00  0.00     0.002 A 
HETATM   36  C6  UNL     1      12.092  -9.997  23.630  1.00  0.00     0.002 A 
HETATM   37  C7  UNL     1      12.693 -10.418  22.452  1.00  0.00     0.032 A 
ENDBRANCH  26  27
ENDBRANCH   1  26
TORSDOF 7
ENDMDL
