MODEL 1
REMARK VINA RESULT: -9.440520225      0.000      0.000
REMARK  16 active torsions:
REMARK  status: ('A' for Active; 'I' for Inactive)
REMARK    1  A    between atoms: O1_2  and  C2_3 
REMARK    2  A    between atoms: C2_3  and  C3_5 
REMARK    3  A    between atoms: C6_8  and  C7_9 
REMARK    4  A    between atoms: C7_9  and  N1_10 
REMARK    5  A    between atoms: C8_11  and  C9_12 
REMARK    6  A    between atoms: C9_12  and  O3_13 
REMARK    7  A    between atoms: O3_13  and  C10_14 
REMARK    8  A    between atoms: C16_20  and  O4_21 
REMARK    9  A    between atoms: C17_23  and  O5_24 
REMARK   10  A    between atoms: C18_26  and  C19_27 
REMARK   11  A    between atoms: C19_27  and  O6_28 
REMARK   12  A    between atoms: O6_28  and  C20_29 
REMARK   13  A    between atoms: N2_35  and  C26_36 
REMARK   14  A    between atoms: C26_36  and  C27_37 
REMARK   15  A    between atoms: C30_40  and  C31_41 
REMARK   16  A    between atoms: C31_41  and  O7_42 
ROOT
HETATM    1  N1  UNL     1      12.733  22.797   5.435  1.00  0.00    -0.280 N 
HETATM    2  C8  UNL     1      12.865  23.324   6.746  1.00  0.00     0.153 C 
HETATM    3  C16 UNL     1      11.965  24.424   7.138  1.00  0.00     0.174 C 
HETATM    4  C17 UNL     1      11.708  25.493   6.158  1.00  0.00     0.175 C 
HETATM    5  C18 UNL     1      10.442  25.275   5.322  1.00  0.00     0.158 C 
HETATM    6  N2  UNL     1      10.513  24.248   4.382  1.00  0.00    -0.260 N 
HETATM    7  S1  UNL     1      11.169  22.772   4.802  1.00  0.00     0.324 S 
HETATM    8  O8  UNL     1      10.264  22.088   5.811  1.00  0.00    -0.182 OA
HETATM    9  O9  UNL     1      11.138  21.860   3.589  1.00  0.00    -0.182 OA
ENDROOT
BRANCH   1  10
HETATM   10  C7  UNL     1      13.807  23.028   4.550  1.00  0.00     0.176 C 
BRANCH  10  11
HETATM   11  C6  UNL     1      14.682  21.865   4.262  1.00  0.00    -0.040 A 
HETATM   12  C5  UNL     1      15.694  21.466   5.113  1.00  0.00     0.010 A 
HETATM   13  C4  UNL     1      16.508  20.386   4.838  1.00  0.00     0.018 A 
HETATM   14  C3  UNL     1      16.352  19.637   3.683  1.00  0.00     0.039 A 
HETATM   15  C35 UNL     1      15.345  20.031   2.831  1.00  0.00     0.018 A 
HETATM   16  C34 UNL     1      14.531  21.114   3.109  1.00  0.00     0.010 A 
BRANCH  14  17
HETATM   17  C2  UNL     1      17.215  18.492   3.386  1.00  0.00     0.292 C 
HETATM   18  O2  UNL     1      18.102  18.652   2.514  1.00  0.00    -0.259 OA
BRANCH  17  19
HETATM   19  O1  UNL     1      17.108  17.270   4.004  1.00  0.00    -0.323 OA
HETATM   20  C1  UNL     1      17.926  16.857   5.081  1.00  0.00     0.213 C 
ENDBRANCH  17  19
ENDBRANCH  14  17
ENDBRANCH  10  11
ENDBRANCH   1  10
BRANCH   2  21
HETATM   21  C9  UNL     1      12.682  22.210   7.756  1.00  0.00     0.204 C 
BRANCH  21  22
HETATM   22  O3  UNL     1      13.492  22.353   8.881  1.00  0.00    -0.349 OA
BRANCH  22  23
HETATM   23  C10 UNL     1      14.812  21.990   8.783  1.00  0.00     0.068 A 
HETATM   24  C11 UNL     1      15.811  22.882   8.480  1.00  0.00     0.037 A 
HETATM   25  C12 UNL     1      17.146  22.472   8.389  1.00  0.00     0.003 A 
HETATM   26  C13 UNL     1      17.488  21.154   8.603  1.00  0.00     0.000 A 
HETATM   27  C14 UNL     1      16.492  20.259   8.907  1.00  0.00     0.003 A 
HETATM   28  C15 UNL     1      15.190  20.686   8.990  1.00  0.00     0.037 A 
ENDBRANCH  22  23
ENDBRANCH  21  22
ENDBRANCH   2  21
BRANCH   3  29
HETATM   29  O4  UNL     1      10.717  23.950   7.603  1.00  0.00    -0.391 OA
ATOM     30  H4  UNL     1      10.506  24.286   8.466  1.00  0.00     0.210 HD
ENDBRANCH   3  29
BRANCH   6  31
HETATM   31  C26 UNL     1      10.286  24.504   3.018  1.00  0.00     0.116 C 
BRANCH  31  32
HETATM   32  C27 UNL     1       8.806  24.704   2.821  1.00  0.00    -0.020 A 
HETATM   33  C28 UNL     1       7.885  24.042   3.600  1.00  0.00     0.013 A 
HETATM   34  C29 UNL     1       6.533  24.230   3.408  1.00  0.00     0.010 A 
HETATM   35  C30 UNL     1       6.035  25.079   2.441  1.00  0.00    -0.035 A 
HETATM   36  C32 UNL     1       6.974  25.738   1.664  1.00  0.00     0.010 A 
HETATM   37  C33 UNL     1       8.328  25.556   1.849  1.00  0.00     0.013 A 
BRANCH  35  38
HETATM   38  C31 UNL     1       4.576  25.276   2.240  1.00  0.00     0.202 C 
BRANCH  38  39
HETATM   39  O7  UNL     1       4.377  26.380   1.430  1.00  0.00    -0.396 OA
ATOM     40  H7  UNL     1       4.446  26.113   0.521  1.00  0.00     0.209 HD
ENDBRANCH  38  39
ENDBRANCH  35  38
ENDBRANCH  31  32
ENDBRANCH   6  31
BRANCH   4  41
HETATM   41  O5  UNL     1      12.794  25.837   5.370  1.00  0.00    -0.391 OA
ATOM     42  H5  UNL     1      12.626  25.840   4.435  1.00  0.00     0.210 HD
ENDBRANCH   4  41
BRANCH   5  43
HETATM   43  C19 UNL     1      10.061  26.596   4.706  1.00  0.00     0.204 C 
BRANCH  43  44
HETATM   44  O6  UNL     1       9.409  27.377   5.720  1.00  0.00    -0.349 OA
BRANCH  44  45
HETATM   45  C20 UNL     1       8.038  27.272   5.916  1.00  0.00     0.068 A 
HETATM   46  C21 UNL     1       7.192  27.663   4.914  1.00  0.00     0.037 A 
HETATM   47  C22 UNL     1       5.832  27.583   5.049  1.00  0.00     0.003 A 
HETATM   48  C23 UNL     1       5.308  27.098   6.223  1.00  0.00     0.000 A 
HETATM   49  C24 UNL     1       6.158  26.705   7.231  1.00  0.00     0.003 A 
HETATM   50  C25 UNL     1       7.548  26.786   7.095  1.00  0.00     0.037 A 
ENDBRANCH  44  45
ENDBRANCH  43  44
ENDBRANCH   5  43
TORSDOF 16
ENDMDL
