MODEL 3
REMARK VINA RESULT: -9.234834127      1.970     10.464
REMARK  16 active torsions:
REMARK  status: ('A' for Active; 'I' for Inactive)
REMARK    1  A    between atoms: O1_2  and  C2_3 
REMARK    2  A    between atoms: C2_3  and  C3_5 
REMARK    3  A    between atoms: C6_8  and  C7_9 
REMARK    4  A    between atoms: C7_9  and  N1_10 
REMARK    5  A    between atoms: C8_11  and  C9_12 
REMARK    6  A    between atoms: C9_12  and  O3_13 
REMARK    7  A    between atoms: O3_13  and  C10_14 
REMARK    8  A    between atoms: C16_20  and  O4_21 
REMARK    9  A    between atoms: C17_23  and  O5_24 
REMARK   10  A    between atoms: C18_26  and  C19_27 
REMARK   11  A    between atoms: C19_27  and  O6_28 
REMARK   12  A    between atoms: O6_28  and  C20_29 
REMARK   13  A    between atoms: N2_35  and  C26_36 
REMARK   14  A    between atoms: C26_36  and  C27_37 
REMARK   15  A    between atoms: C30_40  and  C31_41 
REMARK   16  A    between atoms: C31_41  and  O7_42 
ROOT
HETATM    1  N1  UNL     1      11.720  23.731   5.821  1.00  0.00    -0.280 N 
HETATM    2  C8  UNL     1      11.483  23.145   4.551  1.00  0.00     0.153 C 
HETATM    3  C16 UNL     1      12.490  22.203   4.030  1.00  0.00     0.174 C 
HETATM    4  C17 UNL     1      13.913  22.544   4.202  1.00  0.00     0.175 C 
HETATM    5  C18 UNL     1      14.551  21.928   5.452  1.00  0.00     0.158 C 
HETATM    6  N2  UNL     1      14.138  22.472   6.667  1.00  0.00    -0.260 N 
HETATM    7  S1  UNL     1      12.518  22.760   6.947  1.00  0.00     0.324 S 
HETATM    8  O8  UNL     1      11.778  21.436   7.033  1.00  0.00    -0.182 OA
HETATM    9  O9  UNL     1      12.361  23.368   8.329  1.00  0.00    -0.182 OA
ENDROOT
BRANCH   1  10
HETATM   10  C7  UNL     1      11.976  25.119   5.839  1.00  0.00     0.176 C 
BRANCH  10  11
HETATM   11  C6  UNL     1      10.872  25.983   6.326  1.00  0.00    -0.040 A 
HETATM   12  C5  UNL     1       9.872  26.453   5.498  1.00  0.00     0.010 A 
HETATM   13  C4  UNL     1       8.851  27.259   5.956  1.00  0.00     0.018 A 
HETATM   14  C3  UNL     1       8.772  27.644   7.284  1.00  0.00     0.039 A 
HETATM   15  C35 UNL     1       9.766  27.178   8.115  1.00  0.00     0.018 A 
HETATM   16  C34 UNL     1      10.789  26.370   7.653  1.00  0.00     0.010 A 
BRANCH  14  17
HETATM   17  C2  UNL     1       7.691  28.503   7.773  1.00  0.00     0.292 C 
HETATM   18  O2  UNL     1       7.889  29.741   7.759  1.00  0.00    -0.259 OA
BRANCH  17  19
HETATM   19  O1  UNL     1       6.489  28.031   8.241  1.00  0.00    -0.323 OA
HETATM   20  C1  UNL     1       5.457  27.541   7.407  1.00  0.00     0.213 C 
ENDBRANCH  17  19
ENDBRANCH  14  17
ENDBRANCH  10  11
ENDBRANCH   1  10
BRANCH   2  21
HETATM   21  C9  UNL     1      10.155  22.417   4.574  1.00  0.00     0.204 C 
BRANCH  21  22
HETATM   22  O3  UNL     1       9.480  22.470   3.356  1.00  0.00    -0.349 OA
BRANCH  22  23
HETATM   23  C10 UNL     1       8.841  23.637   3.016  1.00  0.00     0.068 A 
HETATM   24  C11 UNL     1       7.649  24.025   3.575  1.00  0.00     0.037 A 
HETATM   25  C12 UNL     1       7.029  25.223   3.201  1.00  0.00     0.003 A 
HETATM   26  C13 UNL     1       7.609  26.044   2.256  1.00  0.00     0.000 A 
HETATM   27  C14 UNL     1       8.801  25.659   1.696  1.00  0.00     0.003 A 
HETATM   28  C15 UNL     1       9.388  24.478   2.079  1.00  0.00     0.037 A 
ENDBRANCH  22  23
ENDBRANCH  21  22
ENDBRANCH   2  21
BRANCH   3  29
HETATM   29  O4  UNL     1      12.295  20.891   4.519  1.00  0.00    -0.391 OA
ATOM     30  H4  UNL     1      13.001  20.308   4.269  1.00  0.00     0.210 HD
ENDBRANCH   3  29
BRANCH   6  31
HETATM   31  C26 UNL     1      15.070  23.026   7.561  1.00  0.00     0.116 C 
BRANCH  31  32
HETATM   32  C27 UNL     1      15.636  21.908   8.397  1.00  0.00    -0.020 A 
HETATM   33  C28 UNL     1      16.993  21.762   8.572  1.00  0.00     0.013 A 
HETATM   34  C29 UNL     1      17.499  20.732   9.336  1.00  0.00     0.010 A 
HETATM   35  C30 UNL     1      16.688  19.806   9.959  1.00  0.00    -0.035 A 
HETATM   36  C32 UNL     1      15.324  19.965   9.774  1.00  0.00     0.010 A 
HETATM   37  C33 UNL     1      14.809  20.991   9.011  1.00  0.00     0.013 A 
BRANCH  35  38
HETATM   38  C31 UNL     1      17.242  18.699  10.781  1.00  0.00     0.202 C 
BRANCH  38  39
HETATM   39  O7  UNL     1      16.373  17.624  10.735  1.00  0.00    -0.396 OA
ATOM     40  H7  UNL     1      16.694  16.941  11.312  1.00  0.00     0.209 HD
ENDBRANCH  38  39
ENDBRANCH  35  38
ENDBRANCH  31  32
ENDBRANCH   6  31
BRANCH   4  41
HETATM   41  O5  UNL     1      14.209  23.891   4.082  1.00  0.00    -0.391 OA
ATOM     42  H5  UNL     1      15.109  24.084   3.848  1.00  0.00     0.210 HD
ENDBRANCH   4  41
BRANCH   5  43
HETATM   43  C19 UNL     1      16.047  21.973   5.278  1.00  0.00     0.204 C 
BRANCH  43  44
HETATM   44  O6  UNL     1      16.549  20.641   5.470  1.00  0.00    -0.349 OA
BRANCH  44  45
HETATM   45  C20 UNL     1      16.735  19.796   4.385  1.00  0.00     0.068 A 
HETATM   46  C21 UNL     1      15.755  19.709   3.434  1.00  0.00     0.037 A 
HETATM   47  C22 UNL     1      15.883  18.893   2.341  1.00  0.00     0.003 A 
HETATM   48  C23 UNL     1      17.025  18.143   2.202  1.00  0.00     0.000 A 
HETATM   49  C24 UNL     1      18.010  18.229   3.158  1.00  0.00     0.003 A 
HETATM   50  C25 UNL     1      17.883  19.062   4.275  1.00  0.00     0.037 A 
ENDBRANCH  44  45
ENDBRANCH  43  44
ENDBRANCH   5  43
TORSDOF 16
ENDMDL
