MODEL 2
REMARK VINA RESULT: -9.269541121      1.974     10.443
REMARK  16 active torsions:
REMARK  status: ('A' for Active; 'I' for Inactive)
REMARK    1  A    between atoms: O1_2  and  C2_3 
REMARK    2  A    between atoms: C2_3  and  C3_5 
REMARK    3  A    between atoms: C6_8  and  C7_9 
REMARK    4  A    between atoms: C7_9  and  N1_10 
REMARK    5  A    between atoms: C8_11  and  C9_12 
REMARK    6  A    between atoms: C9_12  and  O3_13 
REMARK    7  A    between atoms: O3_13  and  C10_14 
REMARK    8  A    between atoms: C16_20  and  O4_21 
REMARK    9  A    between atoms: C17_23  and  O5_24 
REMARK   10  A    between atoms: C18_26  and  C19_27 
REMARK   11  A    between atoms: C19_27  and  O6_28 
REMARK   12  A    between atoms: O6_28  and  C20_29 
REMARK   13  A    between atoms: N2_35  and  C26_36 
REMARK   14  A    between atoms: C26_36  and  C27_37 
REMARK   15  A    between atoms: C30_40  and  C31_41 
REMARK   16  A    between atoms: C31_41  and  O7_42 
ROOT
HETATM    1  N1  UNL     1      11.753  23.733   5.821  1.00  0.00    -0.280 N 
HETATM    2  C8  UNL     1      11.522  23.152   4.547  1.00  0.00     0.153 C 
HETATM    3  C16 UNL     1      12.527  22.206   4.030  1.00  0.00     0.174 C 
HETATM    4  C17 UNL     1      13.950  22.538   4.213  1.00  0.00     0.175 C 
HETATM    5  C18 UNL     1      14.576  21.915   5.466  1.00  0.00     0.158 C 
HETATM    6  N2  UNL     1      14.157  22.458   6.679  1.00  0.00    -0.260 N 
HETATM    7  S1  UNL     1      12.537  22.754   6.949  1.00  0.00     0.324 S 
HETATM    8  O8  UNL     1      11.789  21.434   7.025  1.00  0.00    -0.182 OA
HETATM    9  O9  UNL     1      12.373  23.359   8.331  1.00  0.00    -0.182 OA
ENDROOT
BRANCH   1  10
HETATM   10  C7  UNL     1      12.016  25.119   5.844  1.00  0.00     0.176 C 
BRANCH  10  11
HETATM   11  C6  UNL     1      10.921  25.986   6.348  1.00  0.00    -0.040 A 
HETATM   12  C5  UNL     1      10.825  26.372   7.670  1.00  0.00     0.010 A 
HETATM   13  C4  UNL     1       9.802  27.175   8.133  1.00  0.00     0.018 A 
HETATM   14  C3  UNL     1       8.809  27.641   7.289  1.00  0.00     0.039 A 
HETATM   15  C35 UNL     1       8.900  27.259   5.969  1.00  0.00     0.018 A 
HETATM   16  C34 UNL     1       9.925  26.454   5.508  1.00  0.00     0.010 A 
BRANCH  14  17
HETATM   17  C2  UNL     1       7.720  28.490   7.777  1.00  0.00     0.292 C 
HETATM   18  O2  UNL     1       7.908  29.730   7.762  1.00  0.00    -0.259 OA
BRANCH  17  19
HETATM   19  O1  UNL     1       6.522  28.008   8.243  1.00  0.00    -0.323 OA
HETATM   20  C1  UNL     1       5.519  27.453   7.413  1.00  0.00     0.213 C 
ENDBRANCH  17  19
ENDBRANCH  14  17
ENDBRANCH  10  11
ENDBRANCH   1  10
BRANCH   2  21
HETATM   21  C9  UNL     1      10.189  22.432   4.558  1.00  0.00     0.204 C 
BRANCH  21  22
HETATM   22  O3  UNL     1       9.525  22.488   3.334  1.00  0.00    -0.349 OA
BRANCH  22  23
HETATM   23  C10 UNL     1       8.905  23.662   2.984  1.00  0.00     0.068 A 
HETATM   24  C11 UNL     1       9.397  24.507   2.020  1.00  0.00     0.037 A 
HETATM   25  C12 UNL     1       8.734  25.696   1.692  1.00  0.00     0.003 A 
HETATM   26  C13 UNL     1       7.566  26.044   2.335  1.00  0.00     0.000 A 
HETATM   27  C14 UNL     1       7.071  25.202   3.298  1.00  0.00     0.003 A 
HETATM   28  C15 UNL     1       7.740  24.042   3.602  1.00  0.00     0.037 A 
ENDBRANCH  22  23
ENDBRANCH  21  22
ENDBRANCH   2  21
BRANCH   3  29
HETATM   29  O4  UNL     1      12.321  20.893   4.514  1.00  0.00    -0.391 OA
ATOM     30  H4  UNL     1      13.003  20.624   5.118  1.00  0.00     0.210 HD
ENDBRANCH   3  29
BRANCH   6  31
HETATM   31  C26 UNL     1      15.085  23.004   7.582  1.00  0.00     0.116 C 
BRANCH  31  32
HETATM   32  C27 UNL     1      15.649  21.878   8.410  1.00  0.00    -0.020 A 
HETATM   33  C28 UNL     1      14.827  20.966   9.031  1.00  0.00     0.013 A 
HETATM   34  C29 UNL     1      15.355  19.942   9.788  1.00  0.00     0.010 A 
HETATM   35  C30 UNL     1      16.713  19.776   9.963  1.00  0.00    -0.035 A 
HETATM   36  C32 UNL     1      17.529  20.702   9.333  1.00  0.00     0.010 A 
HETATM   37  C33 UNL     1      17.010  21.730   8.574  1.00  0.00     0.013 A 
BRANCH  35  38
HETATM   38  C31 UNL     1      17.274  18.669  10.781  1.00  0.00     0.202 C 
BRANCH  38  39
HETATM   39  O7  UNL     1      16.631  17.491  10.446  1.00  0.00    -0.396 OA
ATOM     40  H7  UNL     1      15.884  17.371  11.021  1.00  0.00     0.209 HD
ENDBRANCH  38  39
ENDBRANCH  35  38
ENDBRANCH  31  32
ENDBRANCH   6  31
BRANCH   4  41
HETATM   41  O5  UNL     1      14.255  23.885   4.099  1.00  0.00    -0.391 OA
ATOM     42  H5  UNL     1      15.169  24.102   4.243  1.00  0.00     0.210 HD
ENDBRANCH   4  41
BRANCH   5  43
HETATM   43  C19 UNL     1      16.073  21.953   5.303  1.00  0.00     0.204 C 
BRANCH  43  44
HETATM   44  O6  UNL     1      16.565  20.615   5.482  1.00  0.00    -0.349 OA
BRANCH  44  45
HETATM   45  C20 UNL     1      16.733  19.774   4.390  1.00  0.00     0.068 A 
HETATM   46  C21 UNL     1      17.879  19.033   4.292  1.00  0.00     0.037 A 
HETATM   47  C22 UNL     1      18.101  18.187   3.239  1.00  0.00     0.003 A 
HETATM   48  C23 UNL     1      17.146  18.085   2.256  1.00  0.00     0.000 A 
HETATM   49  C24 UNL     1      15.994  18.830   2.353  1.00  0.00     0.003 A 
HETATM   50  C25 UNL     1      15.764  19.695   3.429  1.00  0.00     0.037 A 
ENDBRANCH  44  45
ENDBRANCH  43  44
ENDBRANCH   5  43
TORSDOF 16
ENDMDL
