MODEL 2
REMARK VINA RESULT: -9.114138446      2.154      8.632
REMARK  7 active torsions:
REMARK  status: ('A' for Active; 'I' for Inactive)
REMARK    1  A    between atoms: N2_11  and  C9_12 
REMARK    2  A    between atoms: C9_12  and  C10_13 
REMARK    3  A    between atoms: C16_21  and  C17_22 
REMARK    4  A    between atoms: C17_22  and  N4_23 
REMARK    5  A    between atoms: N4_23  and  C18_25 
REMARK    6  A    between atoms: C21_28  and  C22_29 
REMARK    7  A    between atoms: C22_29  and  N6_31 
ROOT
HETATM    1  C10 UNL     1      -1.586   4.197  21.602  1.00  0.00    -0.038 A 
HETATM    2  C11 UNL     1      -0.504   3.384  21.945  1.00  0.00     0.011 A 
HETATM    3  C12 UNL     1      -0.201   3.057  23.254  1.00  0.00     0.033 A 
HETATM    4  C13 UNL     1      -0.972   3.531  24.283  1.00  0.00     0.062 A 
HETATM    5  C14 UNL     1      -2.049   4.339  23.956  1.00  0.00     0.061 A 
HETATM    6  C15 UNL     1      -2.348   4.663  22.648  1.00  0.00     0.040 A 
HETATM    7  N3  UNL     1      -2.613   4.649  25.150  1.00  0.00    -0.343 N 
ATOM      8  H3  UNL     1      -3.437   5.236  25.280  1.00  0.00     0.167 HD
HETATM    9  C16 UNL     1      -1.914   4.062  26.137  1.00  0.00     0.102 A 
HETATM   10  N7  UNL     1      -0.889   3.363  25.614  1.00  0.00    -0.338 N 
HETATM   11  C25 UNL     1       0.101   2.583  26.360  1.00  0.00     0.158 C 
ENDROOT
BRANCH   9  12
HETATM   12  C17 UNL     1      -2.187   4.139  27.611  1.00  0.00     0.196 C 
BRANCH  12  13
HETATM   13  N4  UNL     1      -2.937   5.325  27.940  1.00  0.00    -0.383 N 
ATOM     14  H4  UNL     1      -3.837   5.513  27.499  1.00  0.00     0.160 HD
BRANCH  13  15
HETATM   15  C18 UNL     1      -2.392   6.224  28.894  1.00  0.00     0.028 A 
HETATM   16  C19 UNL     1      -3.140   6.663  29.974  1.00  0.00     0.030 A 
HETATM   17  C20 UNL     1      -2.655   7.529  30.917  1.00  0.00     0.017 A 
HETATM   18  C21 UNL     1      -1.344   8.000  30.796  1.00  0.00     0.005 A 
HETATM   19  C23 UNL     1      -0.596   7.567  29.724  1.00  0.00     0.017 A 
HETATM   20  C24 UNL     1      -1.088   6.701  28.785  1.00  0.00     0.030 A 
BRANCH  18  21
HETATM   21  C22 UNL     1      -0.829   8.920  31.798  1.00  0.00     0.120 C 
HETATM   22  N5  UNL     1      -1.286   8.806  33.127  1.00  0.00    -0.082 NA
BRANCH  21  23
HETATM   23  N6  UNL     1       0.019   9.809  31.472  1.00  0.00    -0.387 N 
ATOM     24  H62 UNL     1      -0.241  10.795  31.438  1.00  0.00     0.157 HD
ATOM     25  H61 UNL     1       0.976   9.542  31.238  1.00  0.00     0.157 HD
ENDBRANCH  21  23
ENDBRANCH  18  21
ENDBRANCH  13  15
ENDBRANCH  12  13
ENDBRANCH   9  12
BRANCH   1  26
HETATM   26  C9  UNL     1      -1.856   4.509  20.175  1.00  0.00     0.169 C 
BRANCH  26  27
HETATM   27  N2  UNL     1      -2.854   5.542  20.113  1.00  0.00    -0.331 N 
HETATM   28  C2  UNL     1      -4.183   5.392  20.226  1.00  0.00     0.080 A 
HETATM   29  C1  UNL     1      -4.954   4.127  20.427  1.00  0.00     0.089 C 
HETATM   30  N1  UNL     1      -4.720   6.608  20.118  1.00  0.00    -0.344 N 
HETATM   31  C3  UNL     1      -3.750   7.533  19.939  1.00  0.00     0.060 A 
ATOM     32  H1  UNL     1      -5.719   6.811  20.165  1.00  0.00     0.167 HD
HETATM   33  C4  UNL     1      -3.811   8.921  19.773  1.00  0.00     0.032 A 
HETATM   34  C8  UNL     1      -2.552   6.861  19.933  1.00  0.00     0.063 A 
HETATM   35  C5  UNL     1      -2.637   9.623  19.601  1.00  0.00     0.002 A 
HETATM   36  C6  UNL     1      -1.439   8.944  19.596  1.00  0.00     0.002 A 
HETATM   37  C7  UNL     1      -1.373   7.567  19.760  1.00  0.00     0.032 A 
ENDBRANCH  26  27
ENDBRANCH   1  26
TORSDOF 7
ENDMDL
