MODEL 4
REMARK VINA RESULT: -8.735930505      2.849      9.119
REMARK  7 active torsions:
REMARK  status: ('A' for Active; 'I' for Inactive)
REMARK    1  A    between atoms: N2_11  and  C9_12 
REMARK    2  A    between atoms: C9_12  and  C10_13 
REMARK    3  A    between atoms: C16_21  and  C17_22 
REMARK    4  A    between atoms: C17_22  and  N4_23 
REMARK    5  A    between atoms: N4_23  and  C18_25 
REMARK    6  A    between atoms: C21_28  and  C22_29 
REMARK    7  A    between atoms: C22_29  and  N6_31 
ROOT
HETATM    1  C10 UNL     1      -4.610   4.378  21.933  1.00  0.00    -0.038 A 
HETATM    2  C11 UNL     1      -5.965   4.413  22.265  1.00  0.00     0.011 A 
HETATM    3  C12 UNL     1      -6.411   4.493  23.572  1.00  0.00     0.033 A 
HETATM    4  C13 UNL     1      -5.517   4.543  24.608  1.00  0.00     0.062 A 
HETATM    5  C14 UNL     1      -4.168   4.509  24.291  1.00  0.00     0.061 A 
HETATM    6  C15 UNL     1      -3.726   4.428  22.987  1.00  0.00     0.040 A 
HETATM    7  N3  UNL     1      -3.538   4.571  25.491  1.00  0.00    -0.343 N 
ATOM      8  H3  UNL     1      -2.527   4.567  25.629  1.00  0.00     0.167 HD
HETATM    9  C16 UNL     1      -4.456   4.638  26.472  1.00  0.00     0.102 A 
HETATM   10  N7  UNL     1      -5.692   4.621  25.939  1.00  0.00    -0.338 N 
HETATM   11  C25 UNL     1      -6.956   4.678  26.675  1.00  0.00     0.158 C 
ENDROOT
BRANCH   9  12
HETATM   12  C17 UNL     1      -4.200   4.720  27.948  1.00  0.00     0.196 C 
BRANCH  12  13
HETATM   13  N4  UNL     1      -2.788   4.764  28.230  1.00  0.00    -0.383 N 
ATOM     14  H4  UNL     1      -2.149   4.089  27.811  1.00  0.00     0.160 HD
BRANCH  13  15
HETATM   15  C18 UNL     1      -2.307   5.773  29.106  1.00  0.00     0.028 A 
HETATM   16  C19 UNL     1      -2.975   6.082  30.279  1.00  0.00     0.030 A 
HETATM   17  C20 UNL     1      -2.548   7.046  31.152  1.00  0.00     0.017 A 
HETATM   18  C21 UNL     1      -1.382   7.760  30.858  1.00  0.00     0.005 A 
HETATM   19  C23 UNL     1      -0.714   7.457  29.692  1.00  0.00     0.017 A 
HETATM   20  C24 UNL     1      -1.148   6.492  28.824  1.00  0.00     0.030 A 
BRANCH  18  21
HETATM   21  C22 UNL     1      -0.928   8.784  31.785  1.00  0.00     0.120 C 
HETATM   22  N5  UNL     1      -1.372   8.738  33.122  1.00  0.00    -0.082 NA
BRANCH  21  23
HETATM   23  N6  UNL     1      -0.144   9.703  31.387  1.00  0.00    -0.387 N 
ATOM     24  H62 UNL     1      -0.392  10.687  31.494  1.00  0.00     0.157 HD
ATOM     25  H61 UNL     1       0.747   9.463  30.953  1.00  0.00     0.157 HD
ENDBRANCH  21  23
ENDBRANCH  18  21
ENDBRANCH  13  15
ENDBRANCH  12  13
ENDBRANCH   9  12
BRANCH   1  26
HETATM   26  C9  UNL     1      -4.197   4.292  20.508  1.00  0.00     0.169 C 
BRANCH  26  27
HETATM   27  N2  UNL     1      -2.971   5.025  20.341  1.00  0.00    -0.331 N 
HETATM   28  C2  UNL     1      -1.722   4.539  20.413  1.00  0.00     0.080 A 
HETATM   29  C1  UNL     1      -1.293   3.135  20.693  1.00  0.00     0.089 C 
HETATM   30  N1  UNL     1      -0.896   5.563  20.187  1.00  0.00    -0.344 N 
HETATM   31  C3  UNL     1      -1.603   6.695  19.972  1.00  0.00     0.060 A 
ATOM     32  H1  UNL     1       0.122   5.500  20.177  1.00  0.00     0.167 HD
HETATM   33  C4  UNL     1      -1.196   8.007  19.701  1.00  0.00     0.032 A 
HETATM   34  C8  UNL     1      -2.932   6.362  20.069  1.00  0.00     0.063 A 
HETATM   35  C5  UNL     1      -2.157   8.980  19.529  1.00  0.00     0.002 A 
HETATM   36  C6  UNL     1      -3.488   8.640  19.628  1.00  0.00     0.002 A 
HETATM   37  C7  UNL     1      -3.897   7.341  19.897  1.00  0.00     0.032 A 
ENDBRANCH  26  27
ENDBRANCH   1  26
TORSDOF 7
ENDMDL
