MODEL 3
REMARK VINA RESULT: -9.036864371      2.134      8.594
REMARK  7 active torsions:
REMARK  status: ('A' for Active; 'I' for Inactive)
REMARK    1  A    between atoms: N2_11  and  C9_12 
REMARK    2  A    between atoms: C9_12  and  C10_13 
REMARK    3  A    between atoms: C16_21  and  C17_22 
REMARK    4  A    between atoms: C17_22  and  N4_23 
REMARK    5  A    between atoms: N4_23  and  C18_25 
REMARK    6  A    between atoms: C21_28  and  C22_29 
REMARK    7  A    between atoms: C22_29  and  N6_31 
ROOT
HETATM    1  C10 UNL     1      -2.438   3.597  21.905  1.00  0.00    -0.038 A 
HETATM    2  C11 UNL     1      -1.168   3.021  21.831  1.00  0.00     0.011 A 
HETATM    3  C12 UNL     1      -0.383   2.797  22.947  1.00  0.00     0.033 A 
HETATM    4  C13 UNL     1      -0.837   3.139  24.193  1.00  0.00     0.062 A 
HETATM    5  C14 UNL     1      -2.096   3.712  24.282  1.00  0.00     0.061 A 
HETATM    6  C15 UNL     1      -2.876   3.935  23.165  1.00  0.00     0.040 A 
HETATM    7  N3  UNL     1      -2.271   3.939  25.608  1.00  0.00    -0.343 N 
ATOM      8  H3  UNL     1      -3.100   4.356  26.031  1.00  0.00     0.167 HD
HETATM    9  C16 UNL     1      -1.180   3.527  26.277  1.00  0.00     0.102 A 
HETATM   10  N7  UNL     1      -0.278   3.027  25.411  1.00  0.00    -0.338 N 
HETATM   11  C25 UNL     1       1.037   2.477  25.748  1.00  0.00     0.158 C 
ENDROOT
BRANCH   9  12
HETATM   12  C17 UNL     1      -0.948   3.590  27.758  1.00  0.00     0.196 C 
BRANCH  12  13
HETATM   13  N4  UNL     1      -2.050   4.229  28.431  1.00  0.00    -0.383 N 
ATOM     14  H4  UNL     1      -3.004   3.889  28.312  1.00  0.00     0.160 HD
BRANCH  13  15
HETATM   15  C18 UNL     1      -1.776   5.345  29.264  1.00  0.00     0.028 A 
HETATM   16  C19 UNL     1      -2.219   5.387  30.576  1.00  0.00     0.030 A 
HETATM   17  C20 UNL     1      -1.978   6.442  31.414  1.00  0.00     0.017 A 
HETATM   18  C21 UNL     1      -1.249   7.536  30.936  1.00  0.00     0.005 A 
HETATM   19  C23 UNL     1      -0.806   7.500  29.633  1.00  0.00     0.017 A 
HETATM   20  C24 UNL     1      -1.052   6.441  28.801  1.00  0.00     0.030 A 
BRANCH  18  21
HETATM   21  C22 UNL     1      -0.992   8.656  31.827  1.00  0.00     0.120 C 
HETATM   22  N5  UNL     1      -1.496   8.611  33.143  1.00  0.00    -0.082 NA
BRANCH  21  23
HETATM   23  N6  UNL     1      -0.324   9.657  31.417  1.00  0.00    -0.387 N 
ATOM     24  H62 UNL     1       0.362   9.559  30.668  1.00  0.00     0.157 HD
ATOM     25  H61 UNL     1      -0.467  10.575  31.838  1.00  0.00     0.157 HD
ENDBRANCH  21  23
ENDBRANCH  18  21
ENDBRANCH  13  15
ENDBRANCH  12  13
ENDBRANCH   9  12
BRANCH   1  26
HETATM   26  C9  UNL     1      -3.229   3.811  20.666  1.00  0.00     0.169 C 
BRANCH  26  27
HETATM   27  N2  UNL     1      -3.628   5.192  20.610  1.00  0.00    -0.331 N 
HETATM   28  C2  UNL     1      -4.810   5.709  20.979  1.00  0.00     0.080 A 
HETATM   29  C1  UNL     1      -6.002   4.989  21.523  1.00  0.00     0.089 C 
HETATM   30  N1  UNL     1      -4.740   7.024  20.766  1.00  0.00    -0.344 N 
HETATM   31  C3  UNL     1      -3.527   7.352  20.265  1.00  0.00     0.060 A 
ATOM     32  H1  UNL     1      -5.492   7.687  20.954  1.00  0.00     0.167 HD
HETATM   33  C4  UNL     1      -2.983   8.584  19.882  1.00  0.00     0.032 A 
HETATM   34  C8  UNL     1      -2.808   6.187  20.161  1.00  0.00     0.063 A 
HETATM   35  C5  UNL     1      -1.696   8.619  19.391  1.00  0.00     0.002 A 
HETATM   36  C6  UNL     1      -0.980   7.447  19.288  1.00  0.00     0.002 A 
HETATM   37  C7  UNL     1      -1.515   6.223  19.666  1.00  0.00     0.032 A 
ENDBRANCH  26  27
ENDBRANCH   1  26
TORSDOF 7
ENDMDL
