MODEL 16
REMARK VINA RESULT: -8.264563339      1.535      2.328
REMARK  7 active torsions:
REMARK  status: ('A' for Active; 'I' for Inactive)
REMARK    1  A    between atoms: N2_11  and  C9_12 
REMARK    2  A    between atoms: C9_12  and  C10_13 
REMARK    3  A    between atoms: C16_21  and  C17_22 
REMARK    4  A    between atoms: C17_22  and  N4_23 
REMARK    5  A    between atoms: N4_23  and  C18_25 
REMARK    6  A    between atoms: C21_28  and  C22_29 
REMARK    7  A    between atoms: C22_29  and  N6_31 
ROOT
HETATM    1  C10 UNL     1      -3.262   5.378  27.543  1.00  0.00    -0.038 A 
HETATM    2  C11 UNL     1      -2.136   4.671  27.970  1.00  0.00     0.011 A 
HETATM    3  C12 UNL     1      -1.222   4.121  27.090  1.00  0.00     0.033 A 
HETATM    4  C13 UNL     1      -1.394   4.256  25.738  1.00  0.00     0.062 A 
HETATM    5  C14 UNL     1      -2.508   4.956  25.301  1.00  0.00     0.061 A 
HETATM    6  C15 UNL     1      -3.418   5.502  26.182  1.00  0.00     0.040 A 
HETATM    7  N3  UNL     1      -2.415   4.926  23.948  1.00  0.00    -0.343 N 
ATOM      8  H3  UNL     1      -3.079   5.352  23.301  1.00  0.00     0.167 HD
HETATM    9  C16 UNL     1      -1.310   4.248  23.593  1.00  0.00     0.102 A 
HETATM   10  N7  UNL     1      -0.664   3.824  24.695  1.00  0.00    -0.338 N 
HETATM   11  C25 UNL     1       0.580   3.052  24.730  1.00  0.00     0.158 C 
ENDROOT
BRANCH   9  12
HETATM   12  C17 UNL     1      -0.823   3.974  22.200  1.00  0.00     0.196 C 
BRANCH  12  13
HETATM   13  N4  UNL     1      -1.898   4.063  21.245  1.00  0.00    -0.383 N 
ATOM     14  H4  UNL     1      -2.346   3.222  20.882  1.00  0.00     0.160 HD
BRANCH  13  15
HETATM   15  C18 UNL     1      -2.320   5.351  20.823  1.00  0.00     0.028 A 
HETATM   16  C19 UNL     1      -1.433   6.240  20.240  1.00  0.00     0.030 A 
HETATM   17  C20 UNL     1      -1.795   7.491  19.818  1.00  0.00     0.017 A 
HETATM   18  C21 UNL     1      -3.123   7.903  19.978  1.00  0.00     0.005 A 
HETATM   19  C23 UNL     1      -4.009   7.023  20.557  1.00  0.00     0.017 A 
HETATM   20  C24 UNL     1      -3.638   5.773  20.976  1.00  0.00     0.030 A 
BRANCH  18  21
HETATM   21  C22 UNL     1      -3.508   9.232  19.530  1.00  0.00     0.120 C 
HETATM   22  N5  UNL     1      -2.509  10.211  19.362  1.00  0.00    -0.082 NA
BRANCH  21  23
HETATM   23  N6  UNL     1      -4.730   9.497  19.297  1.00  0.00    -0.387 N 
ATOM     24  H62 UNL     1      -5.456   8.795  19.443  1.00  0.00     0.157 HD
ATOM     25  H61 UNL     1      -4.997  10.421  18.957  1.00  0.00     0.157 HD
ENDBRANCH  21  23
ENDBRANCH  18  21
ENDBRANCH  13  15
ENDBRANCH  12  13
ENDBRANCH   9  12
BRANCH   1  26
HETATM   26  C9  UNL     1      -4.206   5.944  28.542  1.00  0.00     0.169 C 
BRANCH  26  27
HETATM   27  N2  UNL     1      -3.650   5.754  29.855  1.00  0.00    -0.331 N 
HETATM   28  C2  UNL     1      -3.854   4.714  30.678  1.00  0.00     0.080 A 
HETATM   29  C1  UNL     1      -4.711   3.512  30.449  1.00  0.00     0.089 C 
HETATM   30  N1  UNL     1      -3.140   4.948  31.780  1.00  0.00    -0.344 N 
HETATM   31  C3  UNL     1      -2.482   6.124  31.670  1.00  0.00     0.060 A 
ATOM     32  H1  UNL     1      -3.096   4.328  32.590  1.00  0.00     0.167 HD
HETATM   33  C4  UNL     1      -1.623   6.793  32.550  1.00  0.00     0.032 A 
HETATM   34  C8  UNL     1      -2.801   6.648  30.442  1.00  0.00     0.063 A 
HETATM   35  C5  UNL     1      -1.089   8.005  32.167  1.00  0.00     0.002 A 
HETATM   36  C6  UNL     1      -1.415   8.526  30.934  1.00  0.00     0.002 A 
HETATM   37  C7  UNL     1      -2.266   7.867  30.058  1.00  0.00     0.032 A 
ENDBRANCH  26  27
ENDBRANCH   1  26
TORSDOF 7
ENDMDL
