MODEL 12
REMARK VINA RESULT: -5.808874981      3.447      6.686
REMARK  5 active torsions:
REMARK  status: ('A' for Active; 'I' for Inactive)
REMARK    1  A    between atoms: C2_2  and  N1_3 
REMARK    2  A    between atoms: C2_2  and  C11_19 
REMARK    3  A    between atoms: C3_5  and  C4_6 
REMARK    4  A    between atoms: C6_8  and  C7_9 
REMARK    5  A    between atoms: C10_16  and  O1_17 
ROOT
HETATM    1  C4  UNL     1      43.374  -5.337  30.097  1.00  0.00     0.013 A 
HETATM    2  C5  UNL     1      44.363  -5.687  31.022  1.00  0.00     0.030 A 
HETATM    3  C6  UNL     1      44.410  -6.868  31.710  1.00  0.00     0.005 A 
HETATM    4  C8  UNL     1      43.365  -7.764  31.434  1.00  0.00     0.017 A 
HETATM    5  C9  UNL     1      42.366  -7.492  30.545  1.00  0.00     0.038 A 
HETATM    6  C10 UNL     1      42.376  -6.255  29.868  1.00  0.00     0.077 A 
ENDROOT
BRANCH   1   7
HETATM    7  C3  UNL     1      43.476  -4.037  29.452  1.00  0.00     0.098 C 
HETATM    8  N1  UNL     1      43.354  -3.804  28.219  1.00  0.00    -0.384 N 
ATOM      9  H1  UNL     1      43.165  -4.594  27.602  1.00  0.00     0.159 HD
BRANCH   8  10
HETATM   10  C2  UNL     1      43.464  -2.481  27.615  1.00  0.00     0.178 C 
HETATM   11  C1  UNL     1      44.125  -1.520  28.571  1.00  0.00     0.043 C 
BRANCH  10  12
HETATM   12  C11 UNL     1      44.264  -2.556  26.368  1.00  0.00     0.196 C 
HETATM   13  O2  UNL     1      44.043  -3.402  25.455  1.00  0.00    -0.646 OA
HETATM   14  O3  UNL     1      45.303  -1.665  26.181  1.00  0.00    -0.646 OA
ENDBRANCH  10  12
ENDBRANCH   8  10
ENDBRANCH   1   7
BRANCH   6  15
HETATM   15  O1  UNL     1      41.380  -5.994  28.986  1.00  0.00    -0.360 OA
ATOM     16  H1  UNL     1      41.030  -6.680  28.429  1.00  0.00     0.217 HD
ENDBRANCH   6  15
BRANCH   3  17
HETATM   17  C7  UNL     1      45.426  -7.244  32.669  1.00  0.00     0.120 C 
HETATM   18  N2  UNL     1      46.779  -7.289  32.258  1.00  0.00    -0.082 NA
HETATM   19  N3  UNL     1      45.128  -7.532  33.866  1.00  0.00    -0.387 N 
ATOM     20  H32 UNL     1      44.152  -7.500  34.162  1.00  0.00     0.157 HD
ATOM     21  H31 UNL     1      45.844  -7.798  34.542  1.00  0.00     0.157 HD
ENDBRANCH   3  17
TORSDOF 5
ENDMDL
