MODEL 1
REMARK VINA RESULT: -6.584041101      0.000      0.000
REMARK  5 active torsions:
REMARK  status: ('A' for Active; 'I' for Inactive)
REMARK    1  A    between atoms: C2_2  and  N1_3 
REMARK    2  A    between atoms: C2_2  and  C11_19 
REMARK    3  A    between atoms: C3_5  and  C4_6 
REMARK    4  A    between atoms: C6_8  and  C7_9 
REMARK    5  A    between atoms: C10_16  and  O1_17 
ROOT
HETATM    1  C4  UNL     1      43.633  -2.764  28.746  1.00  0.00     0.013 A 
HETATM    2  C5  UNL     1      43.734  -3.445  27.529  1.00  0.00     0.030 A 
HETATM    3  C6  UNL     1      44.046  -2.866  26.330  1.00  0.00     0.005 A 
HETATM    4  C8  UNL     1      44.271  -1.481  26.375  1.00  0.00     0.017 A 
HETATM    5  C9  UNL     1      44.190  -0.749  27.525  1.00  0.00     0.038 A 
HETATM    6  C10 UNL     1      43.864  -1.408  28.728  1.00  0.00     0.077 A 
ENDROOT
BRANCH   1   7
HETATM    7  C3  UNL     1      43.292  -3.536  29.932  1.00  0.00     0.098 C 
HETATM    8  N1  UNL     1      42.401  -3.253  30.777  1.00  0.00    -0.384 N 
ATOM      9  H1  UNL     1      41.858  -2.402  30.628  1.00  0.00     0.159 HD
BRANCH   8  10
HETATM   10  C2  UNL     1      42.094  -4.059  31.952  1.00  0.00     0.178 C 
HETATM   11  C1  UNL     1      42.989  -5.271  32.008  1.00  0.00     0.043 C 
BRANCH  10  12
HETATM   12  C11 UNL     1      42.284  -3.254  33.184  1.00  0.00     0.196 C 
HETATM   13  O2  UNL     1      41.967  -3.667  34.336  1.00  0.00    -0.646 OA
HETATM   14  O3  UNL     1      42.835  -1.991  33.083  1.00  0.00    -0.646 OA
ENDBRANCH  10  12
ENDBRANCH   8  10
ENDBRANCH   1   7
BRANCH   6  15
HETATM   15  O1  UNL     1      43.786  -0.674  29.865  1.00  0.00    -0.360 OA
ATOM     16  H1  UNL     1      43.975   0.258  29.857  1.00  0.00     0.217 HD
ENDBRANCH   6  15
BRANCH   3  17
HETATM   17  C7  UNL     1      44.154  -3.558  25.064  1.00  0.00     0.120 C 
HETATM   18  N2  UNL     1      44.328  -2.803  23.880  1.00  0.00    -0.082 NA
HETATM   19  N3  UNL     1      44.097  -4.821  24.996  1.00  0.00    -0.387 N 
ATOM     20  H32 UNL     1      43.972  -5.365  25.850  1.00  0.00     0.157 HD
ATOM     21  H31 UNL     1      44.173  -5.308  24.103  1.00  0.00     0.157 HD
ENDBRANCH   3  17
TORSDOF 5
ENDMDL
