MODEL 11
REMARK VINA RESULT: -5.992397484      2.734      6.623
REMARK  5 active torsions:
REMARK  status: ('A' for Active; 'I' for Inactive)
REMARK    1  A    between atoms: C2_2  and  N1_3 
REMARK    2  A    between atoms: C2_2  and  C11_19 
REMARK    3  A    between atoms: C3_5  and  C4_6 
REMARK    4  A    between atoms: C6_8  and  C7_9 
REMARK    5  A    between atoms: C10_16  and  O1_17 
ROOT
HETATM    1  C4  UNL     1      42.949  -3.972  29.719  1.00  0.00     0.013 A 
HETATM    2  C5  UNL     1      43.114  -3.261  30.911  1.00  0.00     0.030 A 
HETATM    3  C6  UNL     1      42.411  -3.486  32.062  1.00  0.00     0.005 A 
HETATM    4  C8  UNL     1      41.462  -4.518  31.992  1.00  0.00     0.017 A 
HETATM    5  C9  UNL     1      41.244  -5.254  30.863  1.00  0.00     0.038 A 
HETATM    6  C10 UNL     1      42.004  -4.971  29.709  1.00  0.00     0.077 A 
ENDROOT
BRANCH   1   7
HETATM    7  C3  UNL     1      43.783  -3.602  28.585  1.00  0.00     0.098 C 
HETATM    8  N1  UNL     1      43.381  -3.296  27.430  1.00  0.00    -0.384 N 
ATOM      9  H1  UNL     1      42.375  -3.305  27.259  1.00  0.00     0.159 HD
BRANCH   8  10
HETATM   10  C2  UNL     1      44.256  -2.931  26.322  1.00  0.00     0.178 C 
HETATM   11  C1  UNL     1      43.888  -3.707  25.083  1.00  0.00     0.043 C 
BRANCH  10  12
HETATM   12  C11 UNL     1      44.142  -1.479  26.041  1.00  0.00     0.196 C 
HETATM   13  O2  UNL     1      43.930  -0.616  26.939  1.00  0.00    -0.646 OA
HETATM   14  O3  UNL     1      44.271  -1.034  24.739  1.00  0.00    -0.646 OA
ENDBRANCH  10  12
ENDBRANCH   8  10
ENDBRANCH   1   7
BRANCH   6  15
HETATM   15  O1  UNL     1      41.781  -5.708  28.594  1.00  0.00    -0.360 OA
ATOM     16  H1  UNL     1      41.422  -5.309  27.810  1.00  0.00     0.217 HD
ENDBRANCH   6  15
BRANCH   3  17
HETATM   17  C7  UNL     1      42.571  -2.759  33.303  1.00  0.00     0.120 C 
HETATM   18  N2  UNL     1      42.993  -1.409  33.261  1.00  0.00    -0.082 NA
HETATM   19  N3  UNL     1      42.343  -3.306  34.422  1.00  0.00    -0.387 N 
ATOM     20  H32 UNL     1      42.039  -4.280  34.452  1.00  0.00     0.157 HD
ATOM     21  H31 UNL     1      42.456  -2.794  35.296  1.00  0.00     0.157 HD
ENDBRANCH   3  17
TORSDOF 5
ENDMDL
