MODEL 17
REMARK VINA RESULT: -5.588301330      1.261      1.609
REMARK  5 active torsions:
REMARK  status: ('A' for Active; 'I' for Inactive)
REMARK    1  A    between atoms: C2_2  and  N1_3 
REMARK    2  A    between atoms: C2_2  and  C11_19 
REMARK    3  A    between atoms: C3_5  and  C4_6 
REMARK    4  A    between atoms: C6_8  and  C7_9 
REMARK    5  A    between atoms: C10_16  and  O1_17 
ROOT
HETATM    1  C4  UNL     1      43.297  -3.592  29.092  1.00  0.00     0.013 A 
HETATM    2  C5  UNL     1      43.493  -3.922  27.748  1.00  0.00     0.030 A 
HETATM    3  C6  UNL     1      43.972  -3.069  26.792  1.00  0.00     0.005 A 
HETATM    4  C8  UNL     1      44.275  -1.775  27.243  1.00  0.00     0.017 A 
HETATM    5  C9  UNL     1      44.110  -1.380  28.540  1.00  0.00     0.038 A 
HETATM    6  C10 UNL     1      43.612  -2.310  29.476  1.00  0.00     0.077 A 
ENDROOT
BRANCH   1   7
HETATM    7  C3  UNL     1      42.779  -4.625  29.978  1.00  0.00     0.098 C 
HETATM    8  N1  UNL     1      43.169  -4.865  31.152  1.00  0.00    -0.384 N 
ATOM      9  H1  UNL     1      43.921  -4.289  31.531  1.00  0.00     0.159 HD
BRANCH   8  10
HETATM   10  C2  UNL     1      42.619  -5.912  32.005  1.00  0.00     0.178 C 
HETATM   11  C1  UNL     1      43.713  -6.840  32.471  1.00  0.00     0.043 C 
BRANCH  10  12
HETATM   12  C11 UNL     1      41.955  -5.309  33.186  1.00  0.00     0.196 C 
HETATM   13  O2  UNL     1      41.153  -4.335  33.106  1.00  0.00    -0.646 OA
HETATM   14  O3  UNL     1      42.213  -5.828  34.440  1.00  0.00    -0.646 OA
ENDBRANCH  10  12
ENDBRANCH   8  10
ENDBRANCH   1   7
BRANCH   6  15
HETATM   15  O1  UNL     1      43.452  -1.909  30.760  1.00  0.00    -0.360 OA
ATOM     16  H1  UNL     1      42.623  -1.554  31.061  1.00  0.00     0.217 HD
ENDBRANCH   6  15
BRANCH   3  17
HETATM   17  C7  UNL     1      44.179  -3.396  25.398  1.00  0.00     0.120 C 
HETATM   18  N2  UNL     1      44.376  -2.349  24.467  1.00  0.00    -0.082 NA
HETATM   19  N3  UNL     1      44.187  -4.597  24.997  1.00  0.00    -0.387 N 
ATOM     20  H32 UNL     1      44.045  -5.352  25.669  1.00  0.00     0.157 HD
ATOM     21  H31 UNL     1      44.333  -4.828  24.014  1.00  0.00     0.157 HD
ENDBRANCH   3  17
TORSDOF 5
ENDMDL
