MODEL 4
REMARK VINA RESULT: -6.457487698      2.203      2.321
REMARK  5 active torsions:
REMARK  status: ('A' for Active; 'I' for Inactive)
REMARK    1  A    between atoms: C2_2  and  N1_3 
REMARK    2  A    between atoms: C2_2  and  C11_19 
REMARK    3  A    between atoms: C3_5  and  C4_6 
REMARK    4  A    between atoms: C6_8  and  C7_9 
REMARK    5  A    between atoms: C10_16  and  O1_17 
ROOT
HETATM    1  C4  UNL     1      42.826  -2.105  28.427  1.00  0.00     0.013 A 
HETATM    2  C5  UNL     1      43.068  -2.951  27.341  1.00  0.00     0.030 A 
HETATM    3  C6  UNL     1      43.978  -2.713  26.348  1.00  0.00     0.005 A 
HETATM    4  C8  UNL     1      44.698  -1.514  26.472  1.00  0.00     0.017 A 
HETATM    5  C9  UNL     1      44.516  -0.639  27.504  1.00  0.00     0.038 A 
HETATM    6  C10 UNL     1      43.562  -0.946  28.496  1.00  0.00     0.077 A 
ENDROOT
BRANCH   1   7
HETATM    7  C3  UNL     1      41.821  -2.514  29.397  1.00  0.00     0.098 C 
HETATM    8  N1  UNL     1      40.744  -1.911  29.655  1.00  0.00    -0.384 N 
ATOM      9  H1  UNL     1      40.545  -1.052  29.142  1.00  0.00     0.159 HD
BRANCH   8  10
HETATM   10  C2  UNL     1      39.764  -2.359  30.637  1.00  0.00     0.178 C 
HETATM   11  C1  UNL     1      40.396  -3.319  31.612  1.00  0.00     0.043 C 
BRANCH  10  12
HETATM   12  C11 UNL     1      39.221  -1.196  31.380  1.00  0.00     0.196 C 
HETATM   13  O2  UNL     1      38.223  -1.273  32.152  1.00  0.00    -0.646 OA
HETATM   14  O3  UNL     1      39.825   0.038  31.232  1.00  0.00    -0.646 OA
ENDBRANCH  10  12
ENDBRANCH   8  10
ENDBRANCH   1   7
BRANCH   6  15
HETATM   15  O1  UNL     1      43.389  -0.071  29.516  1.00  0.00    -0.360 OA
ATOM     16  H1  UNL     1      43.782   0.794  29.489  1.00  0.00     0.217 HD
ENDBRANCH   6  15
BRANCH   3  17
HETATM   17  C7  UNL     1      44.239  -3.578  25.219  1.00  0.00     0.120 C 
HETATM   18  N2  UNL     1      44.334  -3.013  23.925  1.00  0.00    -0.082 NA
HETATM   19  N3  UNL     1      44.384  -4.828  25.366  1.00  0.00    -0.387 N 
ATOM     20  H32 UNL     1      44.315  -5.235  26.299  1.00  0.00     0.157 HD
ATOM     21  H31 UNL     1      44.567  -5.438  24.570  1.00  0.00     0.157 HD
ENDBRANCH   3  17
TORSDOF 5
ENDMDL
