MODEL 13
REMARK VINA RESULT: -5.693305445      7.976     10.097
REMARK  5 active torsions:
REMARK  status: ('A' for Active; 'I' for Inactive)
REMARK    1  A    between atoms: C2_2  and  N1_3 
REMARK    2  A    between atoms: C2_2  and  C11_19 
REMARK    3  A    between atoms: C3_5  and  C4_6 
REMARK    4  A    between atoms: C6_8  and  C7_9 
REMARK    5  A    between atoms: C10_16  and  O1_17 
ROOT
HETATM    1  C4  UNL     1      45.899   1.085  35.569  1.00  0.00     0.013 A 
HETATM    2  C5  UNL     1      45.455   1.958  36.566  1.00  0.00     0.030 A 
HETATM    3  C6  UNL     1      44.472   2.895  36.408  1.00  0.00     0.005 A 
HETATM    4  C8  UNL     1      43.894   2.946  35.129  1.00  0.00     0.017 A 
HETATM    5  C9  UNL     1      44.276   2.126  34.106  1.00  0.00     0.038 A 
HETATM    6  C10 UNL     1      45.296   1.181  34.337  1.00  0.00     0.077 A 
ENDROOT
BRANCH   1   7
HETATM    7  C3  UNL     1      46.958   0.145  35.909  1.00  0.00     0.098 C 
HETATM    8  N1  UNL     1      48.134   0.152  35.458  1.00  0.00    -0.384 N 
ATOM      9  H1  UNL     1      48.383   0.880  34.788  1.00  0.00     0.159 HD
BRANCH   8  10
HETATM   10  C2  UNL     1      49.165  -0.811  35.828  1.00  0.00     0.178 C 
HETATM   11  C1  UNL     1      50.532  -0.280  35.478  1.00  0.00     0.043 C 
BRANCH  10  12
HETATM   12  C11 UNL     1      49.106  -1.083  37.285  1.00  0.00     0.196 C 
HETATM   13  O2  UNL     1      49.463  -0.244  38.161  1.00  0.00    -0.646 OA
HETATM   14  O3  UNL     1      48.638  -2.308  37.722  1.00  0.00    -0.646 OA
ENDBRANCH  10  12
ENDBRANCH   8  10
ENDBRANCH   1   7
BRANCH   6  15
HETATM   15  O1  UNL     1      45.668   0.371  33.316  1.00  0.00    -0.360 OA
ATOM     16  H1  UNL     1      45.642  -0.575  33.409  1.00  0.00     0.217 HD
ENDBRANCH   6  15
BRANCH   3  17
HETATM   17  C7  UNL     1      44.002   3.805  37.430  1.00  0.00     0.120 C 
HETATM   18  N2  UNL     1      44.777   3.984  38.601  1.00  0.00    -0.082 NA
HETATM   19  N3  UNL     1      42.916   4.442  37.297  1.00  0.00    -0.387 N 
ATOM     20  H32 UNL     1      42.358   4.313  36.452  1.00  0.00     0.157 HD
ATOM     21  H31 UNL     1      42.585   5.084  38.017  1.00  0.00     0.157 HD
ENDBRANCH   3  17
TORSDOF 5
ENDMDL
