MODEL 5
REMARK VINA RESULT: -6.431658100      1.233      1.515
REMARK  5 active torsions:
REMARK  status: ('A' for Active; 'I' for Inactive)
REMARK    1  A    between atoms: C2_2  and  N1_3 
REMARK    2  A    between atoms: C2_2  and  C11_19 
REMARK    3  A    between atoms: C3_5  and  C4_6 
REMARK    4  A    between atoms: C6_8  and  C7_9 
REMARK    5  A    between atoms: C10_16  and  O1_17 
ROOT
HETATM    1  C4  UNL     1      43.686  -2.811  28.765  1.00  0.00     0.013 A 
HETATM    2  C5  UNL     1      43.784  -3.476  27.540  1.00  0.00     0.030 A 
HETATM    3  C6  UNL     1      44.070  -2.879  26.343  1.00  0.00     0.005 A 
HETATM    4  C8  UNL     1      44.272  -1.491  26.401  1.00  0.00     0.017 A 
HETATM    5  C9  UNL     1      44.193  -0.774  27.561  1.00  0.00     0.038 A 
HETATM    6  C10 UNL     1      43.894  -1.452  28.760  1.00  0.00     0.077 A 
ENDROOT
BRANCH   1   7
HETATM    7  C3  UNL     1      43.375  -3.603  29.946  1.00  0.00     0.098 C 
HETATM    8  N1  UNL     1      42.979  -3.161  31.058  1.00  0.00    -0.384 N 
ATOM      9  H1  UNL     1      42.861  -2.152  31.154  1.00  0.00     0.159 HD
BRANCH   8  10
HETATM   10  C2  UNL     1      42.677  -3.994  32.216  1.00  0.00     0.178 C 
HETATM   11  C1  UNL     1      42.326  -3.135  33.405  1.00  0.00     0.043 C 
BRANCH  10  12
HETATM   12  C11 UNL     1      41.538  -4.895  31.912  1.00  0.00     0.196 C 
HETATM   13  O2  UNL     1      41.640  -6.154  31.888  1.00  0.00    -0.646 OA
HETATM   14  O3  UNL     1      40.300  -4.345  31.640  1.00  0.00    -0.646 OA
ENDBRANCH  10  12
ENDBRANCH   8  10
ENDBRANCH   1   7
BRANCH   6  15
HETATM   15  O1  UNL     1      43.818  -0.732  29.906  1.00  0.00    -0.360 OA
ATOM     16  H1  UNL     1      43.142  -0.075  30.025  1.00  0.00     0.217 HD
ENDBRANCH   6  15
BRANCH   3  17
HETATM   17  C7  UNL     1      44.174  -3.554  25.068  1.00  0.00     0.120 C 
HETATM   18  N2  UNL     1      44.345  -2.783  23.893  1.00  0.00    -0.082 NA
HETATM   19  N3  UNL     1      44.116  -4.816  24.983  1.00  0.00    -0.387 N 
ATOM     20  H32 UNL     1      43.993  -5.371  25.831  1.00  0.00     0.157 HD
ATOM     21  H31 UNL     1      44.189  -5.292  24.084  1.00  0.00     0.157 HD
ENDBRANCH   3  17
TORSDOF 5
ENDMDL
