MODEL 6
REMARK VINA RESULT: -5.891193892      7.866     10.618
REMARK  5 active torsions:
REMARK  status: ('A' for Active; 'I' for Inactive)
REMARK    1  A    between atoms: C2_2  and  N1_3 
REMARK    2  A    between atoms: C2_2  and  C11_19 
REMARK    3  A    between atoms: C3_5  and  C4_6 
REMARK    4  A    between atoms: C7_9  and  C8_10 
REMARK    5  A    between atoms: C10_16  and  O1_17 
ROOT
HETATM    1  C4  UNL     1      45.902   1.835  37.672  1.00  0.00     0.012 A 
HETATM    2  C5  UNL     1      45.811   2.195  38.997  1.00  0.00     0.016 A 
HETATM    3  C6  UNL     1      45.047   3.277  39.393  1.00  0.00     0.016 A 
HETATM    4  C7  UNL     1      44.370   3.998  38.442  1.00  0.00     0.007 A 
HETATM    5  C9  UNL     1      44.453   3.643  37.101  1.00  0.00     0.052 A 
HETATM    6  C10 UNL     1      45.209   2.577  36.727  1.00  0.00     0.078 A 
ENDROOT
BRANCH   1   7
HETATM    7  C3  UNL     1      46.715   0.690  37.286  1.00  0.00     0.098 C 
HETATM    8  N1  UNL     1      47.594   0.808  36.359  1.00  0.00    -0.384 N 
ATOM      9  H1  UNL     1      47.708   1.714  35.903  1.00  0.00     0.159 HD
BRANCH   8  10
HETATM   10  C2  UNL     1      48.429  -0.296  35.935  1.00  0.00     0.178 C 
HETATM   11  C1  UNL     1      49.162  -0.841  37.153  1.00  0.00     0.043 C 
BRANCH  10  12
HETATM   12  C11 UNL     1      47.614  -1.416  35.394  1.00  0.00     0.196 C 
HETATM   13  O2  UNL     1      47.803  -2.589  35.768  1.00  0.00    -0.646 OA
HETATM   14  O3  UNL     1      46.638  -1.146  34.465  1.00  0.00    -0.646 OA
ENDBRANCH  10  12
ENDBRANCH   8  10
ENDBRANCH   1   7
BRANCH   6  15
HETATM   15  O1  UNL     1      45.331   2.173  35.396  1.00  0.00    -0.360 OA
ATOM     16  H1  UNL     1      45.689   2.808  34.787  1.00  0.00     0.217 HD
ENDBRANCH   6  15
BRANCH   4  17
HETATM   17  C8  UNL     1      43.554   5.142  38.811  1.00  0.00     0.120 C 
HETATM   18  N2  UNL     1      42.961   5.150  40.112  1.00  0.00    -0.082 NA
HETATM   19  N3  UNL     1      43.344   6.132  38.026  1.00  0.00    -0.387 N 
ATOM     20  H32 UNL     1      43.767   6.127  37.098  1.00  0.00     0.157 HD
ATOM     21  H31 UNL     1      42.771   6.935  38.286  1.00  0.00     0.157 HD
ENDBRANCH   4  17
TORSDOF 5
ENDMDL
