MODEL 7
REMARK VINA RESULT: -5.461079491      5.295      7.584
REMARK  5 active torsions:
REMARK  status: ('A' for Active; 'I' for Inactive)
REMARK    1  A    between atoms: C2_2  and  N1_3 
REMARK    2  A    between atoms: C2_2  and  C11_19 
REMARK    3  A    between atoms: C3_5  and  C4_6 
REMARK    4  A    between atoms: C7_9  and  C8_10 
REMARK    5  A    between atoms: C10_16  and  O1_17 
ROOT
HETATM    1  C4  UNL     1      39.768  -0.376  31.166  1.00  0.00     0.012 A 
HETATM    2  C5  UNL     1      39.416   0.751  31.873  1.00  0.00     0.016 A 
HETATM    3  C6  UNL     1      38.099   0.997  32.217  1.00  0.00     0.016 A 
HETATM    4  C7  UNL     1      37.134   0.096  31.844  1.00  0.00     0.007 A 
HETATM    5  C9  UNL     1      37.477  -1.045  31.130  1.00  0.00     0.052 A 
HETATM    6  C10 UNL     1      38.776  -1.273  30.799  1.00  0.00     0.078 A 
ENDROOT
BRANCH   1   7
HETATM    7  C3  UNL     1      41.162  -0.607  30.818  1.00  0.00     0.098 C 
HETATM    8  N1  UNL     1      41.486  -0.892  29.609  1.00  0.00    -0.384 N 
ATOM      9  H1  UNL     1      40.751  -0.951  28.905  1.00  0.00     0.159 HD
BRANCH   8  10
HETATM   10  C2  UNL     1      42.856  -1.131  29.208  1.00  0.00     0.178 C 
HETATM   11  C1  UNL     1      43.616  -1.699  30.399  1.00  0.00     0.043 C 
BRANCH  10  12
HETATM   12  C11 UNL     1      42.934  -2.152  28.129  1.00  0.00     0.196 C 
HETATM   13  O2  UNL     1      43.828  -2.105  27.261  1.00  0.00    -0.646 OA
HETATM   14  O3  UNL     1      42.002  -3.161  28.092  1.00  0.00    -0.646 OA
ENDBRANCH  10  12
ENDBRANCH   8  10
ENDBRANCH   1   7
BRANCH   6  15
HETATM   15  O1  UNL     1      39.181  -2.402  30.082  1.00  0.00    -0.360 OA
ATOM     16  H1  UNL     1      40.053  -2.732  30.262  1.00  0.00     0.217 HD
ENDBRANCH   6  15
BRANCH   4  17
HETATM   17  C8  UNL     1      35.738   0.312  32.184  1.00  0.00     0.120 C 
HETATM   18  N2  UNL     1      34.745  -0.281  31.343  1.00  0.00    -0.082 NA
HETATM   19  N3  UNL     1      35.365   1.006  33.194  1.00  0.00    -0.387 N 
ATOM     20  H32 UNL     1      36.073   1.429  33.793  1.00  0.00     0.157 HD
ATOM     21  H31 UNL     1      34.385   1.157  33.432  1.00  0.00     0.157 HD
ENDBRANCH   4  17
TORSDOF 5
ENDMDL
