MODEL 5
REMARK VINA RESULT: -6.517192408      1.904      2.452
REMARK  5 active torsions:
REMARK  status: ('A' for Active; 'I' for Inactive)
REMARK    1  A    between atoms: C2_2  and  N1_3 
REMARK    2  A    between atoms: C2_2  and  C11_19 
REMARK    3  A    between atoms: C3_5  and  C4_6 
REMARK    4  A    between atoms: C7_9  and  C8_10 
REMARK    5  A    between atoms: C10_16  and  O1_17 
ROOT
HETATM    1  C4  UNL     1      43.384  -1.913  29.094  1.00  0.00     0.012 A 
HETATM    2  C5  UNL     1      43.733  -1.086  28.050  1.00  0.00     0.016 A 
HETATM    3  C6  UNL     1      43.995  -1.595  26.792  1.00  0.00     0.016 A 
HETATM    4  C7  UNL     1      43.903  -2.949  26.589  1.00  0.00     0.007 A 
HETATM    5  C9  UNL     1      43.551  -3.793  27.634  1.00  0.00     0.052 A 
HETATM    6  C10 UNL     1      43.296  -3.278  28.866  1.00  0.00     0.078 A 
ENDROOT
BRANCH   1   7
HETATM    7  C3  UNL     1      43.114  -1.346  30.407  1.00  0.00     0.098 C 
HETATM    8  N1  UNL     1      43.697  -1.823  31.447  1.00  0.00    -0.384 N 
ATOM      9  H1  UNL     1      44.349  -2.600  31.331  1.00  0.00     0.159 HD
BRANCH   8  10
HETATM   10  C2  UNL     1      43.466  -1.299  32.776  1.00  0.00     0.178 C 
HETATM   11  C1  UNL     1      42.456  -0.164  32.678  1.00  0.00     0.043 C 
BRANCH  10  12
HETATM   12  C11 UNL     1      42.865  -2.328  33.667  1.00  0.00     0.196 C 
HETATM   13  O2  UNL     1      42.777  -2.142  34.896  1.00  0.00    -0.646 OA
HETATM   14  O3  UNL     1      42.402  -3.500  33.119  1.00  0.00    -0.646 OA
ENDBRANCH  10  12
ENDBRANCH   8  10
ENDBRANCH   1   7
BRANCH   6  15
HETATM   15  O1  UNL     1      42.939  -4.076  29.955  1.00  0.00    -0.360 OA
ATOM     16  H1  UNL     1      42.338  -4.791  29.782  1.00  0.00     0.217 HD
ENDBRANCH   6  15
BRANCH   4  17
HETATM   17  C8  UNL     1      44.168  -3.529  25.283  1.00  0.00     0.120 C 
HETATM   18  N2  UNL     1      44.390  -2.637  24.187  1.00  0.00    -0.082 NA
HETATM   19  N3  UNL     1      44.211  -4.792  25.076  1.00  0.00    -0.387 N 
ATOM     20  H32 UNL     1      44.053  -5.428  25.858  1.00  0.00     0.157 HD
ATOM     21  H31 UNL     1      44.397  -5.199  24.159  1.00  0.00     0.157 HD
ENDBRANCH   4  17
TORSDOF 5
ENDMDL
