MODEL 8
REMARK VINA RESULT: -5.419203648      9.274     11.062
REMARK  5 active torsions:
REMARK  status: ('A' for Active; 'I' for Inactive)
REMARK    1  A    between atoms: C2_2  and  N1_3 
REMARK    2  A    between atoms: C2_2  and  C11_19 
REMARK    3  A    between atoms: C3_5  and  C4_6 
REMARK    4  A    between atoms: C7_9  and  C8_10 
REMARK    5  A    between atoms: C10_16  and  O1_17 
ROOT
HETATM    1  C4  UNL     1      46.054   1.711  37.876  1.00  0.00     0.012 A 
HETATM    2  C5  UNL     1      45.453   2.435  36.872  1.00  0.00     0.016 A 
HETATM    3  C6  UNL     1      44.642   3.518  37.158  1.00  0.00     0.016 A 
HETATM    4  C7  UNL     1      44.439   3.870  38.468  1.00  0.00     0.007 A 
HETATM    5  C9  UNL     1      45.040   3.146  39.491  1.00  0.00     0.052 A 
HETATM    6  C10 UNL     1      45.835   2.084  39.193  1.00  0.00     0.078 A 
ENDROOT
BRANCH   1   7
HETATM    7  C3  UNL     1      46.902   0.576  37.542  1.00  0.00     0.098 C 
HETATM    8  N1  UNL     1      48.130   0.557  37.916  1.00  0.00    -0.384 N 
ATOM      9  H1  UNL     1      48.493   1.349  38.448  1.00  0.00     0.159 HD
BRANCH   8  10
HETATM   10  C2  UNL     1      49.018  -0.544  37.613  1.00  0.00     0.178 C 
HETATM   11  C1  UNL     1      48.328  -1.843  38.006  1.00  0.00     0.043 C 
BRANCH  10  12
HETATM   12  C11 UNL     1      49.292  -0.634  36.153  1.00  0.00     0.196 C 
HETATM   13  O2  UNL     1      49.993   0.219  35.576  1.00  0.00    -0.646 OA
HETATM   14  O3  UNL     1      48.757  -1.676  35.435  1.00  0.00    -0.646 OA
ENDBRANCH  10  12
ENDBRANCH   8  10
ENDBRANCH   1   7
BRANCH   6  15
HETATM   15  O1  UNL     1      46.466   1.319  40.177  1.00  0.00    -0.360 OA
ATOM     16  H1  UNL     1      47.030   0.616  39.877  1.00  0.00     0.217 HD
ENDBRANCH   6  15
BRANCH   4  17
HETATM   17  C8  UNL     1      43.596   5.000  38.817  1.00  0.00     0.120 C 
HETATM   18  N2  UNL     1      42.972   4.998  40.104  1.00  0.00    -0.082 NA
HETATM   19  N3  UNL     1      43.390   5.987  38.028  1.00  0.00    -0.387 N 
ATOM     20  H32 UNL     1      43.835   5.989  37.110  1.00  0.00     0.157 HD
ATOM     21  H31 UNL     1      42.798   6.781  38.273  1.00  0.00     0.157 HD
ENDBRANCH   4  17
TORSDOF 5
ENDMDL
