MODEL 2
REMARK VINA RESULT: -7.047995492      2.527      2.918
REMARK  5 active torsions:
REMARK  status: ('A' for Active; 'I' for Inactive)
REMARK    1  A    between atoms: C2_2  and  N1_3 
REMARK    2  A    between atoms: C2_2  and  C11_19 
REMARK    3  A    between atoms: C3_5  and  C4_6 
REMARK    4  A    between atoms: C7_9  and  C8_10 
REMARK    5  A    between atoms: C10_16  and  O1_17 
ROOT
HETATM    1  C4  UNL     1      42.890  -1.726  28.854  1.00  0.00     0.012 A 
HETATM    2  C5  UNL     1      42.545  -3.036  28.607  1.00  0.00     0.016 A 
HETATM    3  C6  UNL     1      42.956  -3.679  27.455  1.00  0.00     0.016 A 
HETATM    4  C7  UNL     1      43.723  -2.993  26.547  1.00  0.00     0.007 A 
HETATM    5  C9  UNL     1      44.078  -1.671  26.784  1.00  0.00     0.052 A 
HETATM    6  C10 UNL     1      43.666  -1.052  27.922  1.00  0.00     0.078 A 
ENDROOT
BRANCH   1   7
HETATM    7  C3  UNL     1      42.441  -1.076  30.077  1.00  0.00     0.098 C 
HETATM    8  N1  UNL     1      41.304  -0.481  30.110  1.00  0.00    -0.384 N 
ATOM      9  H1  UNL     1      40.729  -0.475  29.267  1.00  0.00     0.159 HD
BRANCH   8  10
HETATM   10  C2  UNL     1      40.808   0.181  31.297  1.00  0.00     0.178 C 
HETATM   11  C1  UNL     1      39.378   0.633  31.036  1.00  0.00     0.043 C 
BRANCH  10  12
HETATM   12  C11 UNL     1      40.754  -0.751  32.455  1.00  0.00     0.196 C 
HETATM   13  O2  UNL     1      39.908  -1.665  32.506  1.00  0.00    -0.646 OA
HETATM   14  O3  UNL     1      41.653  -0.596  33.483  1.00  0.00    -0.646 OA
ENDBRANCH  10  12
ENDBRANCH   8  10
ENDBRANCH   1   7
BRANCH   6  15
HETATM   15  O1  UNL     1      43.990   0.274  28.216  1.00  0.00    -0.360 OA
ATOM     16  H1  UNL     1      44.582   0.713  27.616  1.00  0.00     0.217 HD
ENDBRANCH   6  15
BRANCH   4  17
HETATM   17  C8  UNL     1      44.179  -3.628  25.323  1.00  0.00     0.120 C 
HETATM   18  N2  UNL     1      44.400  -2.797  24.180  1.00  0.00    -0.082 NA
HETATM   19  N3  UNL     1      44.388  -4.888  25.226  1.00  0.00    -0.387 N 
ATOM     20  H32 UNL     1      44.231  -5.480  26.041  1.00  0.00     0.157 HD
ATOM     21  H31 UNL     1      44.709  -5.333  24.366  1.00  0.00     0.157 HD
ENDBRANCH   4  17
TORSDOF 5
ENDMDL
