MODEL 11
REMARK VINA RESULT: -8.090826583      1.771      4.750
REMARK  7 active torsions:
REMARK  status: ('A' for Active; 'I' for Inactive)
REMARK    1  A    between atoms: N5_13  and  C6_14 
REMARK    2  A    between atoms: C7_16  and  C8_17 
REMARK    3  A    between atoms: C8_17  and  O2_18 
REMARK    4  A    between atoms: O2_18  and  P1_19 
REMARK    5  A    between atoms: C9_23  and  O6_24 
REMARK    6  A    between atoms: O6_24  and  P2_25 
REMARK    7  A    between atoms: C10_29  and  O10_30 
ROOT
HETATM    1  C6  UNL     1       3.166 -13.583  40.149  1.00  0.00     0.262 C 
HETATM    2  O1  UNL     1       3.978 -13.081  39.134  1.00  0.00    -0.353 OA
HETATM    3  C7  UNL     1       3.124 -12.374  38.328  1.00  0.00     0.181 C 
HETATM    4  C9  UNL     1       2.335 -11.546  39.332  1.00  0.00     0.199 C 
HETATM    5  C10 UNL     1       2.125 -12.548  40.446  1.00  0.00     0.199 C 
ENDROOT
BRANCH   1   6
HETATM    6  N5  UNL     1       4.026 -13.823  41.292  1.00  0.00    -0.297 N 
HETATM    7  C3  UNL     1       3.959 -14.854  42.150  1.00  0.00     0.142 A 
HETATM    8  N3  UNL     1       3.138 -15.929  42.232  1.00  0.00    -0.336 N 
HETATM    9  C4  UNL     1       4.947 -14.718  43.094  1.00  0.00     0.119 A 
HETATM   10  C2  UNL     1       3.280 -16.840  43.205  1.00  0.00     0.183 A 
ATOM     11  H3  UNL     1       2.399 -16.048  41.539  1.00  0.00     0.168 HD
HETATM   12  N2  UNL     1       4.246 -16.691  44.114  1.00  0.00    -0.339 N 
HETATM   13  C1  UNL     1       5.095 -15.658  44.101  1.00  0.00     0.148 A 
ATOM     14  H2  UNL     1       4.340 -17.393  44.848  1.00  0.00     0.167 HD
HETATM   15  N1  UNL     1       6.116 -15.503  45.063  1.00  0.00    -0.080 NA
HETATM   16  N4  UNL     1       5.609 -13.600  42.801  1.00  0.00    -0.346 N 
HETATM   17  C5  UNL     1       5.048 -13.056  41.707  1.00  0.00     0.188 A 
ATOM     18  H4  UNL     1       6.402 -13.221  43.318  1.00  0.00     0.167 HD
ENDBRANCH   1   6
BRANCH   5  19
HETATM   19  O10 UNL     1       0.852 -13.111  40.307  1.00  0.00    -0.388 OA
ATOM     20  H10 UNL     1       0.272 -12.750  40.965  1.00  0.00     0.210 HD
ENDBRANCH   5  19
BRANCH   3  21
HETATM   21  C8  UNL     1       3.840 -11.430  37.389  1.00  0.00     0.217 C 
BRANCH  21  22
HETATM   22  O2  UNL     1       4.964 -10.916  38.013  1.00  0.00    -0.280 OA
BRANCH  22  23
HETATM   23  P1  UNL     1       6.014 -10.268  36.850  1.00  0.00     0.422 P 
HETATM   24  O3  UNL     1       6.293 -11.266  35.767  1.00  0.00    -0.617 OA
HETATM   25  O4  UNL     1       5.281  -8.894  36.203  1.00  0.00    -0.617 OA
HETATM   26  O5  UNL     1       7.495  -9.857  37.593  1.00  0.00    -0.617 OA
ENDBRANCH  22  23
ENDBRANCH  21  22
ENDBRANCH   3  21
BRANCH   4  27
HETATM   27  O6  UNL     1       1.152 -11.182  38.713  1.00  0.00    -0.272 OA
BRANCH  27  28
HETATM   28  P2  UNL     1       0.642 -12.251  37.538  1.00  0.00     0.422 P 
HETATM   29  O7  UNL     1      -0.887 -12.299  37.599  1.00  0.00    -0.617 OA
HETATM   30  O8  UNL     1       1.196 -13.824  37.785  1.00  0.00    -0.617 OA
HETATM   31  O9  UNL     1       1.037 -11.703  35.982  1.00  0.00    -0.617 OA
ENDBRANCH  27  28
ENDBRANCH   4  27
TORSDOF 7
ENDMDL
