MODEL 12
REMARK VINA RESULT: -8.017451654      1.339      1.785
REMARK  7 active torsions:
REMARK  status: ('A' for Active; 'I' for Inactive)
REMARK    1  A    between atoms: N5_13  and  C6_14 
REMARK    2  A    between atoms: C7_16  and  C8_17 
REMARK    3  A    between atoms: C8_17  and  O2_18 
REMARK    4  A    between atoms: O2_18  and  P1_19 
REMARK    5  A    between atoms: C9_23  and  O6_24 
REMARK    6  A    between atoms: O6_24  and  P2_25 
REMARK    7  A    between atoms: C10_29  and  O10_30 
ROOT
HETATM    1  C6  UNL     1       3.236 -11.975  40.491  1.00  0.00     0.262 C 
HETATM    2  O1  UNL     1       1.931 -11.694  40.092  1.00  0.00    -0.353 OA
HETATM    3  C7  UNL     1       2.072 -10.823  39.043  1.00  0.00     0.181 C 
HETATM    4  C9  UNL     1       3.139 -11.500  38.195  1.00  0.00     0.199 C 
HETATM    5  C10 UNL     1       4.085 -12.011  39.258  1.00  0.00     0.199 C 
ENDROOT
BRANCH   1   6
HETATM    6  N5  UNL     1       3.201 -13.263  41.157  1.00  0.00    -0.297 N 
HETATM    7  C3  UNL     1       4.097 -13.742  42.036  1.00  0.00     0.142 A 
HETATM    8  N3  UNL     1       5.238 -13.228  42.556  1.00  0.00    -0.336 N 
HETATM    9  C4  UNL     1       3.708 -14.995  42.436  1.00  0.00     0.119 A 
HETATM   10  C2  UNL     1       5.973 -13.919  43.438  1.00  0.00     0.183 A 
ATOM     11  H3  UNL     1       5.543 -12.297  42.272  1.00  0.00     0.168 HD
HETATM   12  N2  UNL     1       5.579 -15.138  43.816  1.00  0.00    -0.339 N 
HETATM   13  C1  UNL     1       4.466 -15.712  43.347  1.00  0.00     0.148 A 
ATOM     14  H2  UNL     1       6.150 -15.651  44.488  1.00  0.00     0.167 HD
HETATM   15  N1  UNL     1       4.052 -17.000  43.748  1.00  0.00    -0.080 NA
HETATM   16  N4  UNL     1       2.574 -15.271  41.794  1.00  0.00    -0.346 N 
HETATM   17  C5  UNL     1       2.267 -14.218  41.016  1.00  0.00     0.188 A 
ATOM     18  H4  UNL     1       2.033 -16.131  41.877  1.00  0.00     0.167 HD
ENDBRANCH   1   6
BRANCH   5  19
HETATM   19  O10 UNL     1       5.141 -11.103  39.390  1.00  0.00    -0.388 OA
ATOM     20  H10 UNL     1       4.843 -10.233  39.156  1.00  0.00     0.210 HD
ENDBRANCH   5  19
BRANCH   3  21
HETATM   21  C8  UNL     1       0.817 -10.688  38.211  1.00  0.00     0.217 C 
BRANCH  21  22
HETATM   22  O2  UNL     1       1.005 -11.295  36.981  1.00  0.00    -0.280 OA
BRANCH  22  23
HETATM   23  P1  UNL     1       0.304 -12.839  36.996  1.00  0.00     0.422 P 
HETATM   24  O3  UNL     1       1.116 -13.787  37.823  1.00  0.00    -0.617 OA
HETATM   25  O4  UNL     1      -1.251 -12.692  37.632  1.00  0.00    -0.617 OA
HETATM   26  O5  UNL     1       0.238 -13.443  35.400  1.00  0.00    -0.617 OA
ENDBRANCH  22  23
ENDBRANCH  21  22
ENDBRANCH   3  21
BRANCH   4  27
HETATM   27  O6  UNL     1       3.707 -10.519  37.402  1.00  0.00    -0.272 OA
BRANCH  27  28
HETATM   28  P2  UNL     1       4.942 -11.067  36.423  1.00  0.00     0.422 P 
HETATM   29  O7  UNL     1       4.554 -10.744  34.977  1.00  0.00    -0.617 OA
HETATM   30  O8  UNL     1       5.170 -12.735  36.512  1.00  0.00    -0.617 OA
HETATM   31  O9  UNL     1       6.391 -10.237  36.721  1.00  0.00    -0.617 OA
ENDBRANCH  27  28
ENDBRANCH   4  27
TORSDOF 7
ENDMDL
