MODEL 6
REMARK VINA RESULT: -9.686898637      1.320      4.857
REMARK  7 active torsions:
REMARK  status: ('A' for Active; 'I' for Inactive)
REMARK    1  A    between atoms: N5_13  and  C6_14 
REMARK    2  A    between atoms: C7_16  and  C8_17 
REMARK    3  A    between atoms: C8_17  and  O2_18 
REMARK    4  A    between atoms: O2_18  and  P1_19 
REMARK    5  A    between atoms: C9_23  and  O6_24 
REMARK    6  A    between atoms: O6_24  and  P2_25 
REMARK    7  A    between atoms: C10_29  and  O10_30 
ROOT
HETATM    1  C6  UNL     1       2.640 -14.229  39.227  1.00  0.00     0.262 C 
HETATM    2  O1  UNL     1       3.137 -13.379  38.241  1.00  0.00    -0.353 OA
HETATM    3  C7  UNL     1       2.056 -13.107  37.443  1.00  0.00     0.181 C 
HETATM    4  C9  UNL     1       0.977 -12.762  38.459  1.00  0.00     0.199 C 
HETATM    5  C10 UNL     1       1.244 -13.788  39.538  1.00  0.00     0.199 C 
ENDROOT
BRANCH   1   6
HETATM    6  N5  UNL     1       3.515 -14.093  40.376  1.00  0.00    -0.297 N 
HETATM    7  C3  UNL     1       3.639 -14.951  41.401  1.00  0.00     0.142 A 
HETATM    8  N3  UNL     1       3.042 -16.133  41.687  1.00  0.00    -0.336 N 
HETATM    9  C4  UNL     1       4.569 -14.462  42.285  1.00  0.00     0.119 A 
HETATM   10  C2  UNL     1       3.345 -16.814  42.801  1.00  0.00     0.183 A 
ATOM     11  H3  UNL     1       2.349 -16.513  41.042  1.00  0.00     0.168 HD
HETATM   12  N2  UNL     1       4.252 -16.324  43.650  1.00  0.00    -0.339 N 
HETATM   13  C1  UNL     1       4.883 -15.164  43.438  1.00  0.00     0.148 A 
ATOM     14  H2  UNL     1       4.471 -16.854  44.493  1.00  0.00     0.167 HD
HETATM   15  N1  UNL     1       5.842 -14.648  44.336  1.00  0.00    -0.080 NA
HETATM   16  N4  UNL     1       5.004 -13.306  41.788  1.00  0.00    -0.346 N 
HETATM   17  C5  UNL     1       4.363 -13.082  40.628  1.00  0.00     0.188 A 
ATOM     18  H4  UNL     1       5.702 -12.696  42.214  1.00  0.00     0.167 HD
ENDBRANCH   1   6
BRANCH   5  19
HETATM   19  O10 UNL     1       0.364 -14.861  39.362  1.00  0.00    -0.388 OA
ATOM     20  H10 UNL     1       0.768 -15.516  38.806  1.00  0.00     0.210 HD
ENDBRANCH   5  19
BRANCH   3  21
HETATM   21  C8  UNL     1       2.267 -11.909  36.546  1.00  0.00     0.217 C 
BRANCH  21  22
HETATM   22  O2  UNL     1       3.150 -11.028  37.145  1.00  0.00    -0.280 OA
BRANCH  22  23
HETATM   23  P1  UNL     1       4.520 -10.842  36.164  1.00  0.00     0.422 P 
HETATM   24  O3  UNL     1       4.161 -10.964  34.715  1.00  0.00    -0.617 OA
HETATM   25  O4  UNL     1       5.175  -9.319  36.477  1.00  0.00    -0.617 OA
HETATM   26  O5  UNL     1       5.653 -12.063  36.539  1.00  0.00    -0.617 OA
ENDBRANCH  22  23
ENDBRANCH  21  22
ENDBRANCH   3  21
BRANCH   4  27
HETATM   27  O6  UNL     1      -0.242 -12.951  37.834  1.00  0.00    -0.272 OA
BRANCH  27  28
HETATM   28  P2  UNL     1      -1.495 -12.079  38.507  1.00  0.00     0.422 P 
HETATM   29  O7  UNL     1      -2.585 -11.949  37.439  1.00  0.00    -0.617 OA
HETATM   30  O8  UNL     1      -1.051 -10.514  38.951  1.00  0.00    -0.617 OA
HETATM   31  O9  UNL     1      -2.203 -12.905  39.808  1.00  0.00    -0.617 OA
ENDBRANCH  27  28
ENDBRANCH   4  27
TORSDOF 7
ENDMDL
