MODEL 1
REMARK VINA RESULT: -12.183220891      0.000      0.000
REMARK  7 active torsions:
REMARK  status: ('A' for Active; 'I' for Inactive)
REMARK    1  A    between atoms: N5_13  and  C6_14 
REMARK    2  A    between atoms: C7_16  and  C8_17 
REMARK    3  A    between atoms: C8_17  and  O2_18 
REMARK    4  A    between atoms: O2_18  and  P1_19 
REMARK    5  A    between atoms: C9_23  and  O6_24 
REMARK    6  A    between atoms: O6_24  and  P2_25 
REMARK    7  A    between atoms: C10_29  and  O10_30 
ROOT
HETATM    1  C6  UNL     1       2.359 -12.464  40.381  1.00  0.00     0.262 C 
HETATM    2  O1  UNL     1       1.107 -12.624  39.792  1.00  0.00    -0.353 OA
HETATM    3  C7  UNL     1       1.138 -11.809  38.690  1.00  0.00     0.181 C 
HETATM    4  C9  UNL     1       2.474 -12.165  38.056  1.00  0.00     0.199 C 
HETATM    5  C10 UNL     1       3.357 -12.300  39.277  1.00  0.00     0.199 C 
ENDROOT
BRANCH   1   6
HETATM    6  N5  UNL     1       2.611 -13.663  41.158  1.00  0.00    -0.297 N 
HETATM    7  C3  UNL     1       3.674 -13.908  41.942  1.00  0.00     0.142 A 
HETATM    8  N3  UNL     1       4.777 -13.181  42.248  1.00  0.00    -0.336 N 
HETATM    9  C4  UNL     1       3.541 -15.153  42.504  1.00  0.00     0.119 A 
HETATM   10  C2  UNL     1       5.716 -13.659  43.076  1.00  0.00     0.183 A 
ATOM     11  H3  UNL     1       4.893 -12.253  41.840  1.00  0.00     0.168 HD
HETATM   12  N2  UNL     1       5.569 -14.872  43.613  1.00  0.00    -0.339 N 
HETATM   13  C1  UNL     1       4.511 -15.648  43.359  1.00  0.00     0.148 A 
ATOM     14  H2  UNL     1       6.294 -15.220  44.241  1.00  0.00     0.167 HD
HETATM   15  N1  UNL     1       4.358 -16.930  43.930  1.00  0.00    -0.080 NA
HETATM   16  N4  UNL     1       2.393 -15.658  42.055  1.00  0.00    -0.346 N 
HETATM   17  C5  UNL     1       1.829 -14.752  41.237  1.00  0.00     0.188 A 
ATOM     18  H4  UNL     1       2.008 -16.572  42.291  1.00  0.00     0.167 HD
ENDBRANCH   1   6
BRANCH   5  19
HETATM   19  O10 UNL     1       4.059 -11.103  39.455  1.00  0.00    -0.388 OA
ATOM     20  H10 UNL     1       4.717 -11.017  38.775  1.00  0.00     0.210 HD
ENDBRANCH   5  19
BRANCH   3  21
HETATM   21  C8  UNL     1       0.041 -12.114  37.695  1.00  0.00     0.217 C 
BRANCH  21  22
HETATM   22  O2  UNL     1      -0.880 -11.081  37.686  1.00  0.00    -0.280 OA
BRANCH  22  23
HETATM   23  P1  UNL     1      -2.320 -11.598  38.419  1.00  0.00     0.422 P 
HETATM   24  O3  UNL     1      -2.908 -10.512  39.267  1.00  0.00    -0.617 OA
HETATM   25  O4  UNL     1      -3.395 -12.030  37.193  1.00  0.00    -0.617 OA
HETATM   26  O5  UNL     1      -1.992 -12.940  39.422  1.00  0.00    -0.617 OA
ENDBRANCH  22  23
ENDBRANCH  21  22
ENDBRANCH   3  21
BRANCH   4  27
HETATM   27  O6  UNL     1       2.836 -11.099  37.252  1.00  0.00    -0.272 OA
BRANCH  27  28
HETATM   28  P2  UNL     1       4.293 -11.304  36.466  1.00  0.00     0.422 P 
HETATM   29  O7  UNL     1       4.020 -11.191  34.963  1.00  0.00    -0.617 OA
HETATM   30  O8  UNL     1       4.983 -12.820  36.729  1.00  0.00    -0.617 OA
HETATM   31  O9  UNL     1       5.386 -10.063  36.842  1.00  0.00    -0.617 OA
ENDBRANCH  27  28
ENDBRANCH   4  27
TORSDOF 7
ENDMDL
