MODEL 2
REMARK VINA RESULT: -10.868034283      0.783      1.985
REMARK  7 active torsions:
REMARK  status: ('A' for Active; 'I' for Inactive)
REMARK    1  A    between atoms: N5_13  and  C6_14 
REMARK    2  A    between atoms: C7_16  and  C8_17 
REMARK    3  A    between atoms: C8_17  and  O2_18 
REMARK    4  A    between atoms: O2_18  and  P1_19 
REMARK    5  A    between atoms: C9_23  and  O6_24 
REMARK    6  A    between atoms: O6_24  and  P2_25 
REMARK    7  A    between atoms: C10_29  and  O10_30 
ROOT
HETATM    1  C6  UNL     1       3.017 -12.109  40.361  1.00  0.00     0.262 C 
HETATM    2  O1  UNL     1       1.717 -12.458  40.004  1.00  0.00    -0.353 OA
HETATM    3  C7  UNL     1       1.493 -11.791  38.827  1.00  0.00     0.181 C 
HETATM    4  C9  UNL     1       2.751 -12.101  38.030  1.00  0.00     0.199 C 
HETATM    5  C10 UNL     1       3.816 -11.997  39.099  1.00  0.00     0.199 C 
ENDROOT
BRANCH   1   6
HETATM    6  N5  UNL     1       3.514 -13.170  41.218  1.00  0.00    -0.297 N 
HETATM    7  C3  UNL     1       2.885 -14.315  41.530  1.00  0.00     0.142 A 
HETATM    8  N3  UNL     1       1.679 -14.826  41.182  1.00  0.00    -0.336 N 
HETATM    9  C4  UNL     1       3.686 -15.053  42.366  1.00  0.00     0.119 A 
HETATM   10  C2  UNL     1       1.272 -16.018  41.637  1.00  0.00     0.183 A 
ATOM     11  H3  UNL     1       1.071 -14.293  40.560  1.00  0.00     0.168 HD
HETATM   12  N2  UNL     1       2.064 -16.722  42.449  1.00  0.00    -0.339 N 
HETATM   13  C1  UNL     1       3.266 -16.285  42.838  1.00  0.00     0.148 A 
ATOM     14  H2  UNL     1       1.739 -17.628  42.787  1.00  0.00     0.167 HD
HETATM   15  N1  UNL     1       4.102 -17.032  43.697  1.00  0.00    -0.080 NA
HETATM   16  N4  UNL     1       4.799 -14.347  42.556  1.00  0.00    -0.346 N 
HETATM   17  C5  UNL     1       4.693 -13.202  41.858  1.00  0.00     0.188 A 
ATOM     18  H4  UNL     1       5.594 -14.626  43.132  1.00  0.00     0.167 HD
ENDBRANCH   1   6
BRANCH   5  19
HETATM   19  O10 UNL     1       4.399 -10.728  39.026  1.00  0.00    -0.388 OA
ATOM     20  H10 UNL     1       3.949 -10.208  38.372  1.00  0.00     0.210 HD
ENDBRANCH   5  19
BRANCH   3  21
HETATM   21  C8  UNL     1       0.301 -12.321  38.062  1.00  0.00     0.217 C 
BRANCH  21  22
HETATM   22  O2  UNL     1      -0.613 -11.301  37.860  1.00  0.00    -0.280 OA
BRANCH  22  23
HETATM   23  P1  UNL     1      -2.118 -11.753  38.497  1.00  0.00     0.422 P 
HETATM   24  O3  UNL     1      -3.059 -12.166  37.407  1.00  0.00    -0.617 OA
HETATM   25  O4  UNL     1      -1.862 -13.033  39.565  1.00  0.00    -0.617 OA
HETATM   26  O5  UNL     1      -2.804 -10.423  39.319  1.00  0.00    -0.617 OA
ENDBRANCH  22  23
ENDBRANCH  21  22
ENDBRANCH   3  21
BRANCH   4  27
HETATM   27  O6  UNL     1       2.869 -11.119  37.063  1.00  0.00    -0.272 OA
BRANCH  27  28
HETATM   28  P2  UNL     1       4.303 -11.171  36.211  1.00  0.00     0.422 P 
HETATM   29  O7  UNL     1       3.946 -11.215  34.722  1.00  0.00    -0.617 OA
HETATM   30  O8  UNL     1       5.220 -12.547  36.539  1.00  0.00    -0.617 OA
HETATM   31  O9  UNL     1       5.216  -9.761  36.438  1.00  0.00    -0.617 OA
ENDBRANCH  27  28
ENDBRANCH   4  27
TORSDOF 7
ENDMDL
