MODEL 9
REMARK VINA RESULT: -8.799298035      0.727      1.274
REMARK  7 active torsions:
REMARK  status: ('A' for Active; 'I' for Inactive)
REMARK    1  A    between atoms: N5_13  and  C6_14 
REMARK    2  A    between atoms: C7_16  and  C8_17 
REMARK    3  A    between atoms: C8_17  and  O2_18 
REMARK    4  A    between atoms: O2_18  and  P1_19 
REMARK    5  A    between atoms: C9_23  and  O6_24 
REMARK    6  A    between atoms: O6_24  and  P2_25 
REMARK    7  A    between atoms: C10_29  and  O10_30 
ROOT
HETATM    1  C6  UNL     1       2.308 -12.783  40.462  1.00  0.00     0.262 C 
HETATM    2  O1  UNL     1       1.316 -13.269  39.612  1.00  0.00    -0.353 OA
HETATM    3  C7  UNL     1       1.396 -12.471  38.499  1.00  0.00     0.181 C 
HETATM    4  C9  UNL     1       2.890 -12.458  38.212  1.00  0.00     0.199 C 
HETATM    5  C10 UNL     1       3.462 -12.357  39.609  1.00  0.00     0.199 C 
ENDROOT
BRANCH   1   6
HETATM    6  N5  UNL     1       2.669 -13.874  41.348  1.00  0.00    -0.297 N 
HETATM    7  C3  UNL     1       3.793 -13.985  42.075  1.00  0.00     0.142 A 
HETATM    8  N3  UNL     1       4.877 -13.184  42.217  1.00  0.00    -0.336 N 
HETATM    9  C4  UNL     1       3.757 -15.161  42.780  1.00  0.00     0.119 A 
HETATM   10  C2  UNL     1       5.892 -13.525  43.024  1.00  0.00     0.183 A 
ATOM     11  H3  UNL     1       4.921 -12.305  41.702  1.00  0.00     0.168 HD
HETATM   12  N2  UNL     1       5.840 -14.674  43.702  1.00  0.00    -0.339 N 
HETATM   13  C1  UNL     1       4.805 -15.516  43.613  1.00  0.00     0.148 A 
ATOM     14  H2  UNL     1       6.621 -14.919  44.311  1.00  0.00     0.167 HD
HETATM   15  N1  UNL     1       4.753 -16.730  44.332  1.00  0.00    -0.080 NA
HETATM   16  N4  UNL     1       2.607 -15.760  42.475  1.00  0.00    -0.346 N 
HETATM   17  C5  UNL     1       1.947 -14.977  41.603  1.00  0.00     0.188 A 
ATOM     18  H4  UNL     1       2.284 -16.657  42.837  1.00  0.00     0.167 HD
ENDBRANCH   1   6
BRANCH   5  19
HETATM   19  O10 UNL     1       3.768 -11.018  39.870  1.00  0.00    -0.388 OA
ATOM     20  H10 UNL     1       4.604 -10.800  39.475  1.00  0.00     0.210 HD
ENDBRANCH   5  19
BRANCH   3  21
HETATM   21  C8  UNL     1       0.685 -13.054  37.300  1.00  0.00     0.217 C 
BRANCH  21  22
HETATM   22  O2  UNL     1      -0.313 -12.189  36.885  1.00  0.00    -0.280 OA
BRANCH  22  23
HETATM   23  P1  UNL     1      -1.514 -12.093  38.078  1.00  0.00     0.422 P 
HETATM   24  O3  UNL     1      -2.870 -11.931  37.461  1.00  0.00    -0.617 OA
HETATM   25  O4  UNL     1      -1.452 -13.512  38.987  1.00  0.00    -0.617 OA
HETATM   26  O5  UNL     1      -1.214 -10.737  39.072  1.00  0.00    -0.617 OA
ENDBRANCH  22  23
ENDBRANCH  21  22
ENDBRANCH   3  21
BRANCH   4  27
HETATM   27  O6  UNL     1       3.144 -11.333  37.449  1.00  0.00    -0.272 OA
BRANCH  27  28
HETATM   28  P2  UNL     1       4.626 -11.351  36.682  1.00  0.00     0.422 P 
HETATM   29  O7  UNL     1       4.986 -12.816  36.422  1.00  0.00    -0.617 OA
HETATM   30  O8  UNL     1       5.867 -10.697  37.618  1.00  0.00    -0.617 OA
HETATM   31  O9  UNL     1       4.552 -10.605  35.161  1.00  0.00    -0.617 OA
ENDBRANCH  27  28
ENDBRANCH   4  27
TORSDOF 7
ENDMDL
