MODEL 4
REMARK VINA RESULT: -10.087894718      1.326      4.877
REMARK  7 active torsions:
REMARK  status: ('A' for Active; 'I' for Inactive)
REMARK    1  A    between atoms: N5_13  and  C6_14 
REMARK    2  A    between atoms: C7_16  and  C8_17 
REMARK    3  A    between atoms: C8_17  and  O2_18 
REMARK    4  A    between atoms: O2_18  and  P1_19 
REMARK    5  A    between atoms: C9_23  and  O6_24 
REMARK    6  A    between atoms: O6_24  and  P2_25 
REMARK    7  A    between atoms: C10_29  and  O10_30 
ROOT
HETATM    1  C6  UNL     1       2.766 -14.217  39.287  1.00  0.00     0.262 C 
HETATM    2  O1  UNL     1       3.293 -13.290  38.390  1.00  0.00    -0.353 OA
HETATM    3  C7  UNL     1       2.246 -12.980  37.561  1.00  0.00     0.181 C 
HETATM    4  C9  UNL     1       1.113 -12.726  38.544  1.00  0.00     0.199 C 
HETATM    5  C10 UNL     1       1.348 -13.823  39.560  1.00  0.00     0.199 C 
ENDROOT
BRANCH   1   6
HETATM    6  N5  UNL     1       3.582 -14.149  40.485  1.00  0.00    -0.297 N 
HETATM    7  C3  UNL     1       3.649 -15.061  41.468  1.00  0.00     0.142 A 
HETATM    8  N3  UNL     1       3.033 -16.253  41.659  1.00  0.00    -0.336 N 
HETATM    9  C4  UNL     1       4.535 -14.628  42.423  1.00  0.00     0.119 A 
HETATM   10  C2  UNL     1       3.275 -16.994  42.749  1.00  0.00     0.183 A 
ATOM     11  H3  UNL     1       2.372 -16.593  40.960  1.00  0.00     0.168 HD
HETATM   12  N2  UNL     1       4.139 -16.557  43.667  1.00  0.00    -0.339 N 
HETATM   13  C1  UNL     1       4.786 -15.392  43.551  1.00  0.00     0.148 A 
ATOM     14  H2  UNL     1       4.313 -17.133  44.491  1.00  0.00     0.167 HD
HETATM   15  N1  UNL     1       5.700 -14.932  44.523  1.00  0.00    -0.080 NA
HETATM   16  N4  UNL     1       5.000 -13.450  42.012  1.00  0.00    -0.346 N 
HETATM   17  C5  UNL     1       4.420 -13.159  40.834  1.00  0.00     0.188 A 
ATOM     18  H4  UNL     1       5.678 -12.869  42.504  1.00  0.00     0.167 HD
ENDBRANCH   1   6
BRANCH   5  19
HETATM   19  O10 UNL     1       0.499 -14.894  39.264  1.00  0.00    -0.388 OA
ATOM     20  H10 UNL     1       0.088 -15.204  40.062  1.00  0.00     0.210 HD
ENDBRANCH   5  19
BRANCH   3  21
HETATM   21  C8  UNL     1       2.476 -11.718  36.762  1.00  0.00     0.217 C 
BRANCH  21  22
HETATM   22  O2  UNL     1       3.485 -10.973  37.348  1.00  0.00    -0.280 OA
BRANCH  22  23
HETATM   23  P1  UNL     1       4.725 -10.711  36.221  1.00  0.00     0.422 P 
HETATM   24  O3  UNL     1       5.873 -11.643  36.462  1.00  0.00    -0.617 OA
HETATM   25  O4  UNL     1       4.083 -10.961  34.681  1.00  0.00    -0.617 OA
HETATM   26  O5  UNL     1       5.296  -9.110  36.373  1.00  0.00    -0.617 OA
ENDBRANCH  22  23
ENDBRANCH  21  22
ENDBRANCH   3  21
BRANCH   4  27
HETATM   27  O6  UNL     1      -0.070 -12.891  37.847  1.00  0.00    -0.272 OA
BRANCH  27  28
HETATM   28  P2  UNL     1      -1.379 -12.118  38.537  1.00  0.00     0.422 P 
HETATM   29  O7  UNL     1      -0.922 -10.712  38.932  1.00  0.00    -0.617 OA
HETATM   30  O8  UNL     1      -1.930 -12.871  39.942  1.00  0.00    -0.617 OA
HETATM   31  O9  UNL     1      -2.640 -11.910  37.422  1.00  0.00    -0.617 OA
ENDBRANCH  27  28
ENDBRANCH   4  27
TORSDOF 7
ENDMDL
