MODEL 3
REMARK VINA RESULT: -10.744648109      0.835      2.132
REMARK  7 active torsions:
REMARK  status: ('A' for Active; 'I' for Inactive)
REMARK    1  A    between atoms: N5_13  and  C6_14 
REMARK    2  A    between atoms: C7_16  and  C8_17 
REMARK    3  A    between atoms: C8_17  and  O2_18 
REMARK    4  A    between atoms: O2_18  and  P1_19 
REMARK    5  A    between atoms: C9_23  and  O6_24 
REMARK    6  A    between atoms: O6_24  and  P2_25 
REMARK    7  A    between atoms: C10_29  and  O10_30 
ROOT
HETATM    1  C6  UNL     1       3.046 -12.069  40.303  1.00  0.00     0.262 C 
HETATM    2  O1  UNL     1       1.728 -12.404  39.999  1.00  0.00    -0.353 OA
HETATM    3  C7  UNL     1       1.476 -11.764  38.813  1.00  0.00     0.181 C 
HETATM    4  C9  UNL     1       2.700 -12.116  37.982  1.00  0.00     0.199 C 
HETATM    5  C10 UNL     1       3.802 -12.003  39.013  1.00  0.00     0.199 C 
ENDROOT
BRANCH   1   6
HETATM    6  N5  UNL     1       3.553 -13.116  41.170  1.00  0.00    -0.297 N 
HETATM    7  C3  UNL     1       2.934 -14.261  41.501  1.00  0.00     0.142 A 
HETATM    8  N3  UNL     1       1.729 -14.783  41.166  1.00  0.00    -0.336 N 
HETATM    9  C4  UNL     1       3.744 -14.984  42.341  1.00  0.00     0.119 A 
HETATM   10  C2  UNL     1       1.331 -15.972  41.638  1.00  0.00     0.183 A 
ATOM     11  H3  UNL     1       1.113 -14.261  40.542  1.00  0.00     0.168 HD
HETATM   12  N2  UNL     1       2.132 -16.661  42.455  1.00  0.00    -0.339 N 
HETATM   13  C1  UNL     1       3.335 -16.213  42.831  1.00  0.00     0.148 A 
ATOM     14  H2  UNL     1       1.814 -17.565  42.806  1.00  0.00     0.167 HD
HETATM   15  N1  UNL     1       4.180 -16.943  43.693  1.00  0.00    -0.080 NA
HETATM   16  N4  UNL     1       4.854 -14.269  42.515  1.00  0.00    -0.346 N 
HETATM   17  C5  UNL     1       4.737 -13.134  41.804  1.00  0.00     0.188 A 
ATOM     18  H4  UNL     1       5.654 -14.536  43.089  1.00  0.00     0.167 HD
ENDBRANCH   1   6
BRANCH   5  19
HETATM   19  O10 UNL     1       4.404 -10.747  38.887  1.00  0.00    -0.388 OA
ATOM     20  H10 UNL     1       5.231 -10.835  38.428  1.00  0.00     0.210 HD
ENDBRANCH   5  19
BRANCH   3  21
HETATM   21  C8  UNL     1       0.250 -12.293  38.103  1.00  0.00     0.217 C 
BRANCH  21  22
HETATM   22  O2  UNL     1      -0.663 -11.268  37.925  1.00  0.00    -0.280 OA
BRANCH  22  23
HETATM   23  P1  UNL     1      -2.170 -11.734  38.546  1.00  0.00     0.422 P 
HETATM   24  O3  UNL     1      -2.026 -12.891  39.487  1.00  0.00    -0.617 OA
HETATM   25  O4  UNL     1      -2.829 -10.406  39.351  1.00  0.00    -0.617 OA
HETATM   26  O5  UNL     1      -3.187 -12.214  37.261  1.00  0.00    -0.617 OA
ENDBRANCH  22  23
ENDBRANCH  21  22
ENDBRANCH   3  21
BRANCH   4  27
HETATM   27  O6  UNL     1       2.801 -11.161  36.987  1.00  0.00    -0.272 OA
BRANCH  27  28
HETATM   28  P2  UNL     1       4.031 -11.443  35.895  1.00  0.00     0.422 P 
HETATM   29  O7  UNL     1       4.891 -10.178  35.841  1.00  0.00    -0.617 OA
HETATM   30  O8  UNL     1       3.475 -11.730  34.329  1.00  0.00    -0.617 OA
HETATM   31  O9  UNL     1       5.056 -12.690  36.417  1.00  0.00    -0.617 OA
ENDBRANCH  27  28
ENDBRANCH   4  27
TORSDOF 7
ENDMDL
