MODEL 2
REMARK VINA RESULT: -7.500611010      6.134      8.341
REMARK  5 active torsions:
REMARK  status: ('A' for Active; 'I' for Inactive)
REMARK    1  A    between atoms: N1_1  and  S1_4 
REMARK    2  A    between atoms: S1_4  and  C1_7 
REMARK    3  A    between atoms: C4_10  and  C5_11 
REMARK       I    between atoms: C5_11  and  N2_13 
REMARK    4  A    between atoms: N2_13  and  C6_15 
REMARK    5  A    between atoms: C6_15  and  C7_16 
ROOT
HETATM    1  C1  UNL     1      -2.067   3.213  10.038  1.00  0.00     0.079 A 
HETATM    2  C2  UNL     1      -3.193   3.712  10.701  1.00  0.00     0.026 A 
HETATM    3  C3  UNL     1      -3.809   2.997  11.699  1.00  0.00     0.018 A 
HETATM    4  C4  UNL     1      -3.335   1.761  12.071  1.00  0.00     0.032 A 
HETATM    5  C13 UNL     1      -2.237   1.256  11.439  1.00  0.00     0.018 A 
HETATM    6  C14 UNL     1      -1.595   1.984  10.413  1.00  0.00     0.026 A 
ENDROOT
BRANCH   4   7
HETATM    7  C5  UNL     1      -4.031   1.072  13.135  1.00  0.00     0.251 C 
HETATM    8  O3  UNL     1      -4.548  -0.082  12.856  1.00  0.00    -0.268 OA
HETATM    9  N2  UNL     1      -4.169   1.581  14.442  1.00  0.00    -0.353 N 
ATOM     10  H2  UNL     1      -3.769   2.493  14.669  1.00  0.00     0.163 HD
BRANCH   9  11
HETATM   11  C6  UNL     1      -4.857   0.847  15.457  1.00  0.00     0.164 C 
BRANCH  11  12
HETATM   12  C7  UNL     1      -5.655   1.773  16.332  1.00  0.00    -0.002 A 
HETATM   13  C8  UNL     1      -6.029   3.040  15.908  1.00  0.00     0.012 A 
HETATM   14  C9  UNL     1      -6.712   3.907  16.757  1.00  0.00     0.001 A 
HETATM   15  C10 UNL     1      -7.022   3.506  18.043  1.00  0.00     0.003 A 
HETATM   16  C11 UNL     1      -6.666   2.267  18.483  1.00  0.00     0.043 A 
HETATM   17  C12 UNL     1      -5.990   1.427  17.623  1.00  0.00     0.124 A 
HETATM   18  F1  UNL     1      -5.638   0.160  18.013  1.00  0.00    -0.205 F 
ENDBRANCH  11  12
ENDBRANCH   9  11
ENDBRANCH   4   7
BRANCH   1  19
HETATM   19  S1  UNL     1      -1.289   4.138   8.788  1.00  0.00     0.256 S 
HETATM   20  O1  UNL     1      -2.301   4.831   7.911  1.00  0.00    -0.201 OA
HETATM   21  O2  UNL     1      -0.522   3.183   7.887  1.00  0.00    -0.201 OA
BRANCH  19  22
HETATM   22  N1  UNL     1      -0.197   5.290   9.403  1.00  0.00    -0.324 N 
ATOM     23  H12 UNL     1       0.819   5.209   9.353  1.00  0.00     0.169 HD
ATOM     24  H11 UNL     1      -0.719   6.060   9.821  1.00  0.00     0.169 HD
ENDBRANCH  19  22
ENDBRANCH   1  19
TORSDOF 5
ENDMDL
