MODEL 11
REMARK VINA RESULT: -7.058110179      4.838      7.983
REMARK  5 active torsions:
REMARK  status: ('A' for Active; 'I' for Inactive)
REMARK    1  A    between atoms: N1_1  and  S1_4 
REMARK    2  A    between atoms: S1_4  and  C1_7 
REMARK    3  A    between atoms: C4_10  and  C5_11 
REMARK       I    between atoms: C5_11  and  N2_13 
REMARK    4  A    between atoms: N2_13  and  C6_15 
REMARK    5  A    between atoms: C6_15  and  C7_16 
ROOT
HETATM    1  C1  UNL     1       0.007   4.674  11.689  1.00  0.00     0.079 A 
HETATM    2  C2  UNL     1      -0.636   5.639  12.473  1.00  0.00     0.026 A 
HETATM    3  C3  UNL     1      -1.916   5.448  12.930  1.00  0.00     0.018 A 
HETATM    4  C4  UNL     1      -2.607   4.300  12.625  1.00  0.00     0.032 A 
HETATM    5  C13 UNL     1      -1.999   3.344  11.864  1.00  0.00     0.018 A 
HETATM    6  C14 UNL     1      -0.681   3.529  11.389  1.00  0.00     0.026 A 
ENDROOT
BRANCH   4   7
HETATM    7  C5  UNL     1      -3.948   4.166  13.149  1.00  0.00     0.251 C 
HETATM    8  O3  UNL     1      -4.888   3.872  12.309  1.00  0.00    -0.268 OA
HETATM    9  N2  UNL     1      -4.279   4.332  14.510  1.00  0.00    -0.353 N 
ATOM     10  H2  UNL     1      -3.545   4.569  15.178  1.00  0.00     0.163 HD
BRANCH   9  11
HETATM   11  C6  UNL     1      -5.621   4.174  14.972  1.00  0.00     0.164 C 
BRANCH  11  12
HETATM   12  C7  UNL     1      -5.739   2.964  15.856  1.00  0.00    -0.002 A 
HETATM   13  C8  UNL     1      -5.006   1.810  15.619  1.00  0.00     0.012 A 
HETATM   14  C9  UNL     1      -5.177   0.677  16.411  1.00  0.00     0.001 A 
HETATM   15  C10 UNL     1      -6.091   0.696  17.448  1.00  0.00     0.003 A 
HETATM   16  C11 UNL     1      -6.822   1.816  17.701  1.00  0.00     0.043 A 
HETATM   17  C12 UNL     1      -6.635   2.925  16.903  1.00  0.00     0.124 A 
HETATM   18  F1  UNL     1      -7.328   4.085  17.139  1.00  0.00    -0.205 F 
ENDBRANCH  11  12
ENDBRANCH   9  11
ENDBRANCH   4   7
BRANCH   1  19
HETATM   19  S1  UNL     1       1.635   4.924  11.131  1.00  0.00     0.256 S 
HETATM   20  O1  UNL     1       1.744   6.183  10.311  1.00  0.00    -0.201 OA
HETATM   21  O2  UNL     1       2.010   3.775  10.207  1.00  0.00    -0.201 OA
BRANCH  19  22
HETATM   22  N1  UNL     1       2.766   4.982  12.402  1.00  0.00    -0.324 N 
ATOM     23  H12 UNL     1       2.791   4.329  13.185  1.00  0.00     0.169 HD
ATOM     24  H11 UNL     1       3.402   5.765  12.250  1.00  0.00     0.169 HD
ENDBRANCH  19  22
ENDBRANCH   1  19
TORSDOF 5
ENDMDL
