MODEL 10
REMARK VINA RESULT: -7.101621366      3.156      4.435
REMARK  5 active torsions:
REMARK  status: ('A' for Active; 'I' for Inactive)
REMARK    1  A    between atoms: N1_1  and  S1_4 
REMARK    2  A    between atoms: S1_4  and  C1_7 
REMARK    3  A    between atoms: C4_10  and  C5_11 
REMARK       I    between atoms: C5_11  and  N2_13 
REMARK    4  A    between atoms: N2_13  and  C6_15 
REMARK    5  A    between atoms: C6_15  and  C7_16 
ROOT
HETATM    1  C1  UNL     1      -5.774   2.558  16.385  1.00  0.00     0.079 A 
HETATM    2  C2  UNL     1      -6.495   3.729  16.122  1.00  0.00     0.026 A 
HETATM    3  C3  UNL     1      -6.091   4.612  15.152  1.00  0.00     0.018 A 
HETATM    4  C4  UNL     1      -4.958   4.371  14.412  1.00  0.00     0.032 A 
HETATM    5  C13 UNL     1      -4.241   3.235  14.649  1.00  0.00     0.018 A 
HETATM    6  C14 UNL     1      -4.649   2.318  15.644  1.00  0.00     0.026 A 
ENDROOT
BRANCH   4   7
HETATM    7  C5  UNL     1      -4.600   5.343  13.402  1.00  0.00     0.251 C 
HETATM    8  O3  UNL     1      -3.530   5.114  12.711  1.00  0.00    -0.268 OA
HETATM    9  N2  UNL     1      -5.349   6.506  13.131  1.00  0.00    -0.353 N 
ATOM     10  H2  UNL     1      -6.191   6.696  13.676  1.00  0.00     0.163 HD
BRANCH   9  11
HETATM   11  C6  UNL     1      -4.953   7.424  12.111  1.00  0.00     0.164 C 
BRANCH  11  12
HETATM   12  C7  UNL     1      -5.879   7.334  10.929  1.00  0.00    -0.002 A 
HETATM   13  C8  UNL     1      -5.570   6.570   9.814  1.00  0.00     0.012 A 
HETATM   14  C9  UNL     1      -6.409   6.551   8.702  1.00  0.00     0.001 A 
HETATM   15  C10 UNL     1      -7.566   7.307   8.705  1.00  0.00     0.003 A 
HETATM   16  C11 UNL     1      -7.892   8.066   9.787  1.00  0.00     0.043 A 
HETATM   17  C12 UNL     1      -7.045   8.067  10.875  1.00  0.00     0.124 A 
HETATM   18  F1  UNL     1      -7.346   8.793  11.998  1.00  0.00    -0.205 F 
ENDBRANCH  11  12
ENDBRANCH   9  11
ENDBRANCH   4   7
BRANCH   1  19
HETATM   19  S1  UNL     1      -6.309   1.441  17.606  1.00  0.00     0.256 S 
HETATM   20  O1  UNL     1      -5.381   0.258  17.708  1.00  0.00    -0.201 OA
HETATM   21  O2  UNL     1      -7.665   0.889  17.194  1.00  0.00    -0.201 OA
BRANCH  19  22
HETATM   22  N1  UNL     1      -6.467   2.165  19.139  1.00  0.00    -0.324 N 
ATOM     23  H12 UNL     1      -6.002   1.835  19.985  1.00  0.00     0.169 HD
ATOM     24  H11 UNL     1      -7.093   2.967  19.069  1.00  0.00     0.169 HD
ENDBRANCH  19  22
ENDBRANCH   1  19
TORSDOF 5
ENDMDL
