MODEL 7
REMARK VINA RESULT: -7.212052171      1.456      1.521
REMARK  5 active torsions:
REMARK  status: ('A' for Active; 'I' for Inactive)
REMARK    1  A    between atoms: N1_1  and  S1_4 
REMARK    2  A    between atoms: S1_4  and  C1_7 
REMARK    3  A    between atoms: C4_10  and  C5_11 
REMARK       I    between atoms: C5_11  and  N2_13 
REMARK    4  A    between atoms: N2_13  and  C6_15 
REMARK    5  A    between atoms: C6_15  and  C7_16 
ROOT
HETATM    1  C1  UNL     1      -5.569   2.470  16.321  1.00  0.00     0.079 A 
HETATM    2  C2  UNL     1      -6.441   3.510  15.983  1.00  0.00     0.026 A 
HETATM    3  C3  UNL     1      -5.997   4.623  15.312  1.00  0.00     0.018 A 
HETATM    4  C4  UNL     1      -4.675   4.747  14.957  1.00  0.00     0.032 A 
HETATM    5  C13 UNL     1      -3.807   3.743  15.274  1.00  0.00     0.018 A 
HETATM    6  C14 UNL     1      -4.253   2.593  15.963  1.00  0.00     0.026 A 
ENDROOT
BRANCH   4   7
HETATM    7  C5  UNL     1      -4.284   5.943  14.244  1.00  0.00     0.251 C 
HETATM    8  O3  UNL     1      -5.207   6.818  14.001  1.00  0.00    -0.268 OA
HETATM    9  N2  UNL     1      -2.968   6.205  13.813  1.00  0.00    -0.353 N 
ATOM     10  H2  UNL     1      -2.235   5.519  13.996  1.00  0.00     0.163 HD
BRANCH   9  11
HETATM   11  C6  UNL     1      -2.639   7.413  13.124  1.00  0.00     0.164 C 
BRANCH  11  12
HETATM   12  C7  UNL     1      -1.761   8.287  13.976  1.00  0.00    -0.002 A 
HETATM   13  C8  UNL     1      -2.050   8.535  15.310  1.00  0.00     0.012 A 
HETATM   14  C9  UNL     1      -1.262   9.399  16.066  1.00  0.00     0.001 A 
HETATM   15  C10 UNL     1      -0.176  10.024  15.482  1.00  0.00     0.003 A 
HETATM   16  C11 UNL     1       0.129   9.798  14.175  1.00  0.00     0.043 A 
HETATM   17  C12 UNL     1      -0.667   8.938  13.447  1.00  0.00     0.124 A 
HETATM   18  F1  UNL     1      -0.382   8.657  12.136  1.00  0.00    -0.205 F 
ENDBRANCH  11  12
ENDBRANCH   9  11
ENDBRANCH   4   7
BRANCH   1  19
HETATM   19  S1  UNL     1      -6.150   1.060  17.156  1.00  0.00     0.256 S 
HETATM   20  O1  UNL     1      -5.562   0.963  18.541  1.00  0.00    -0.201 OA
HETATM   21  O2  UNL     1      -5.680  -0.176  16.403  1.00  0.00    -0.201 OA
BRANCH  19  22
HETATM   22  N1  UNL     1      -7.848   1.009  17.264  1.00  0.00    -0.324 N 
ATOM     23  H12 UNL     1      -8.371   0.949  18.137  1.00  0.00     0.169 HD
ATOM     24  H11 UNL     1      -8.246   1.048  16.325  1.00  0.00     0.169 HD
ENDBRANCH  19  22
ENDBRANCH   1  19
TORSDOF 5
ENDMDL
