MODEL 15
REMARK VINA RESULT: -6.959171655      1.472      2.024
REMARK  5 active torsions:
REMARK  status: ('A' for Active; 'I' for Inactive)
REMARK    1  A    between atoms: N1_1  and  S1_4 
REMARK    2  A    between atoms: S1_4  and  C1_7 
REMARK    3  A    between atoms: C4_10  and  C5_11 
REMARK       I    between atoms: C5_11  and  N2_13 
REMARK    4  A    between atoms: N2_13  and  C6_15 
REMARK    5  A    between atoms: C6_15  and  C7_16 
ROOT
HETATM    1  C1  UNL     1      -5.716   2.664  16.546  1.00  0.00     0.079 A 
HETATM    2  C2  UNL     1      -4.422   2.598  16.016  1.00  0.00     0.026 A 
HETATM    3  C3  UNL     1      -3.954   3.563  15.159  1.00  0.00     0.018 A 
HETATM    4  C4  UNL     1      -4.749   4.622  14.792  1.00  0.00     0.032 A 
HETATM    5  C13 UNL     1      -6.012   4.708  15.298  1.00  0.00     0.018 A 
HETATM    6  C14 UNL     1      -6.505   3.723  16.183  1.00  0.00     0.026 A 
ENDROOT
BRANCH   4   7
HETATM    7  C5  UNL     1      -4.182   5.602  13.892  1.00  0.00     0.251 C 
HETATM    8  O3  UNL     1      -3.475   5.160  12.902  1.00  0.00    -0.268 OA
HETATM    9  N2  UNL     1      -4.363   6.993  14.031  1.00  0.00    -0.353 N 
ATOM     10  H2  UNL     1      -4.915   7.350  14.812  1.00  0.00     0.163 HD
BRANCH   9  11
HETATM   11  C6  UNL     1      -3.789   7.914  13.101  1.00  0.00     0.164 C 
BRANCH  11  12
HETATM   12  C7  UNL     1      -2.874   8.878  13.805  1.00  0.00    -0.002 A 
HETATM   13  C8  UNL     1      -3.215  10.209  13.988  1.00  0.00     0.012 A 
HETATM   14  C9  UNL     1      -2.328  11.102  14.585  1.00  0.00     0.001 A 
HETATM   15  C10 UNL     1      -1.086  10.659  15.000  1.00  0.00     0.003 A 
HETATM   16  C11 UNL     1      -0.727   9.356  14.832  1.00  0.00     0.043 A 
HETATM   17  C12 UNL     1      -1.623   8.493  14.238  1.00  0.00     0.124 A 
HETATM   18  F1  UNL     1      -1.317   7.166  14.074  1.00  0.00    -0.205 F 
ENDBRANCH  11  12
ENDBRANCH   9  11
ENDBRANCH   4   7
BRANCH   1  19
HETATM   19  S1  UNL     1      -6.289   1.444  17.644  1.00  0.00     0.256 S 
HETATM   20  O1  UNL     1      -5.370   0.250  17.662  1.00  0.00    -0.201 OA
HETATM   21  O2  UNL     1      -7.636   0.942  17.147  1.00  0.00    -0.201 OA
BRANCH  19  22
HETATM   22  N1  UNL     1      -6.485   2.025  19.233  1.00  0.00    -0.324 N 
ATOM     23  H12 UNL     1      -6.189   1.526  20.072  1.00  0.00     0.169 HD
ATOM     24  H11 UNL     1      -6.940   2.937  19.204  1.00  0.00     0.169 HD
ENDBRANCH  19  22
ENDBRANCH   1  19
TORSDOF 5
ENDMDL
