MODEL 11
REMARK VINA RESULT: -7.321870812      1.732      1.836
REMARK  5 active torsions:
REMARK  status: ('A' for Active; 'I' for Inactive)
REMARK    1  A    between atoms: N1_1  and  S1_4 
REMARK    2  A    between atoms: S1_4  and  C1_7 
REMARK    3  A    between atoms: C4_10  and  C5_11 
REMARK       I    between atoms: C5_11  and  N2_13 
REMARK    4  A    between atoms: N2_13  and  C6_15 
REMARK    5  A    between atoms: C6_15  and  C7_16 
ROOT
HETATM    1  C5  UNL     1      -4.156   5.747  14.060  1.00  0.00     0.251 C 
HETATM    2  O3  UNL     1      -4.991   6.584  13.568  1.00  0.00    -0.268 OA
HETATM    3  N2  UNL     1      -2.785   6.032  13.810  1.00  0.00    -0.353 N 
ATOM      4  H2  UNL     1      -2.087   5.387  14.179  1.00  0.00     0.163 HD
ENDROOT
BRANCH   1   5
HETATM    5  C4  UNL     1      -4.628   4.594  14.816  1.00  0.00     0.032 A 
HETATM    6  C3  UNL     1      -3.706   3.607  15.137  1.00  0.00     0.018 A 
HETATM    7  C2  UNL     1      -4.146   2.499  15.859  1.00  0.00     0.026 A 
HETATM    8  C1  UNL     1      -5.449   2.340  16.268  1.00  0.00     0.079 A 
HETATM    9  C14 UNL     1      -6.360   3.325  15.946  1.00  0.00     0.026 A 
HETATM   10  C13 UNL     1      -5.923   4.418  15.232  1.00  0.00     0.018 A 
BRANCH   8  11
HETATM   11  S1  UNL     1      -6.016   0.966  17.169  1.00  0.00     0.256 S 
HETATM   12  O1  UNL     1      -5.469   0.892  18.546  1.00  0.00    -0.201 OA
HETATM   13  O2  UNL     1      -5.663  -0.293  16.434  1.00  0.00    -0.201 OA
BRANCH  11  14
HETATM   14  N1  UNL     1      -7.761   1.060  17.189  1.00  0.00    -0.324 N 
ATOM     15  H12 UNL     1      -8.282   1.758  17.718  1.00  0.00     0.169 HD
ATOM     16  H11 UNL     1      -8.175   0.331  16.607  1.00  0.00     0.169 HD
ENDBRANCH  11  14
ENDBRANCH   8  11
ENDBRANCH   1   5
BRANCH   3  17
HETATM   17  C6  UNL     1      -2.324   7.178  13.069  1.00  0.00     0.164 C 
BRANCH  17  18
HETATM   18  C7  UNL     1      -1.619   8.161  13.933  1.00  0.00     0.001 A 
HETATM   19  C8  UNL     1      -2.055   8.444  15.207  1.00  0.00     0.012 A 
HETATM   20  C9  UNL     1      -1.340   9.361  15.986  1.00  0.00     0.004 A 
HETATM   21  C10 UNL     1      -0.222   9.962  15.472  1.00  0.00     0.045 A 
HETATM   22  C11 UNL     1       0.211   9.670  14.181  1.00  0.00     0.155 A 
HETATM   23  F1  UNL     1       1.317  10.264  13.669  1.00  0.00    -0.203 F 
HETATM   24  C12 UNL     1      -0.476   8.774  13.402  1.00  0.00     0.162 A 
HETATM   25  F2  UNL     1      -0.057   8.490  12.149  1.00  0.00    -0.202 F 
ENDBRANCH  17  18
ENDBRANCH   3  17
TORSDOF 5
ENDMDL
