MODEL 5
REMARK VINA RESULT: -7.451941321      3.924      5.175
REMARK  5 active torsions:
REMARK  status: ('A' for Active; 'I' for Inactive)
REMARK    1  A    between atoms: N1_1  and  S1_4 
REMARK    2  A    between atoms: S1_4  and  C1_7 
REMARK    3  A    between atoms: C4_10  and  C5_11 
REMARK       I    between atoms: C5_11  and  N2_13 
REMARK    4  A    between atoms: N2_13  and  C6_15 
REMARK    5  A    between atoms: C6_15  and  C7_16 
ROOT
HETATM    1  C5  UNL     1      -5.936   6.276  13.395  1.00  0.00     0.251 C 
HETATM    2  O3  UNL     1      -6.868   7.030  13.848  1.00  0.00    -0.268 OA
HETATM    3  N2  UNL     1      -5.208   6.799  12.292  1.00  0.00    -0.353 N 
ATOM      4  H2  UNL     1      -4.462   6.228  11.897  1.00  0.00     0.163 HD
ENDROOT
BRANCH   1   5
HETATM    5  C4  UNL     1      -5.679   4.978  14.006  1.00  0.00     0.032 A 
HETATM    6  C3  UNL     1      -4.720   4.163  13.418  1.00  0.00     0.018 A 
HETATM    7  C2  UNL     1      -4.466   2.919  13.991  1.00  0.00     0.026 A 
HETATM    8  C1  UNL     1      -5.120   2.462  15.111  1.00  0.00     0.079 A 
HETATM    9  C14 UNL     1      -6.071   3.276  15.690  1.00  0.00     0.026 A 
HETATM   10  C13 UNL     1      -6.321   4.504  15.121  1.00  0.00     0.018 A 
BRANCH   8  11
HETATM   11  S1  UNL     1      -4.816   0.913  15.839  1.00  0.00     0.256 S 
HETATM   12  O1  UNL     1      -3.498   0.822  16.513  1.00  0.00    -0.201 OA
HETATM   13  O2  UNL     1      -4.906  -0.157  14.792  1.00  0.00    -0.201 OA
BRANCH  11  14
HETATM   14  N1  UNL     1      -6.121   0.620  16.965  1.00  0.00    -0.324 N 
ATOM     15  H12 UNL     1      -6.042   0.001  17.771  1.00  0.00     0.169 HD
ATOM     16  H11 UNL     1      -6.956   1.146  16.705  1.00  0.00     0.169 HD
ENDBRANCH  11  14
ENDBRANCH   8  11
ENDBRANCH   1   5
BRANCH   3  17
HETATM   17  C6  UNL     1      -5.462   8.087  11.699  1.00  0.00     0.164 C 
BRANCH  17  18
HETATM   18  C7  UNL     1      -6.046   7.974  10.336  1.00  0.00     0.001 A 
HETATM   19  C8  UNL     1      -5.252   7.824   9.222  1.00  0.00     0.012 A 
HETATM   20  C9  UNL     1      -5.856   7.699   7.965  1.00  0.00     0.004 A 
HETATM   21  C10 UNL     1      -7.222   7.727   7.862  1.00  0.00     0.045 A 
HETATM   22  C11 UNL     1      -8.016   7.879   8.995  1.00  0.00     0.155 A 
HETATM   23  F1  UNL     1      -9.367   7.908   8.896  1.00  0.00    -0.203 F 
HETATM   24  C12 UNL     1      -7.443   8.004  10.235  1.00  0.00     0.162 A 
HETATM   25  F2  UNL     1      -8.213   8.152  11.337  1.00  0.00    -0.202 F 
ENDBRANCH  17  18
ENDBRANCH   3  17
TORSDOF 5
ENDMDL
