MODEL 2
REMARK VINA RESULT: -7.560447051      6.388      8.536
REMARK  5 active torsions:
REMARK  status: ('A' for Active; 'I' for Inactive)
REMARK    1  A    between atoms: N1_1  and  S1_4 
REMARK    2  A    between atoms: S1_4  and  C1_7 
REMARK    3  A    between atoms: C4_10  and  C5_11 
REMARK       I    between atoms: C5_11  and  N2_13 
REMARK    4  A    between atoms: N2_13  and  C6_15 
REMARK    5  A    between atoms: C6_15  and  C7_16 
ROOT
HETATM    1  C5  UNL     1      -4.144   1.568  12.859  1.00  0.00     0.251 C 
HETATM    2  O3  UNL     1      -5.211   0.984  12.458  1.00  0.00    -0.268 OA
HETATM    3  N2  UNL     1      -3.941   1.572  14.266  1.00  0.00    -0.353 N 
ATOM      4  H2  UNL     1      -3.106   2.032  14.628  1.00  0.00     0.163 HD
ENDROOT
BRANCH   1   5
HETATM    5  C4  UNL     1      -3.230   2.173  11.898  1.00  0.00     0.032 A 
HETATM    6  C3  UNL     1      -2.328   1.342  11.248  1.00  0.00     0.018 A 
HETATM    7  C2  UNL     1      -1.448   1.908  10.328  1.00  0.00     0.026 A 
HETATM    8  C1  UNL     1      -1.434   3.251  10.034  1.00  0.00     0.079 A 
HETATM    9  C14 UNL     1      -2.334   4.072  10.682  1.00  0.00     0.026 A 
HETATM   10  C13 UNL     1      -3.201   3.510  11.591  1.00  0.00     0.018 A 
BRANCH   8  11
HETATM   11  S1  UNL     1      -0.345   3.976   8.889  1.00  0.00     0.256 S 
HETATM   12  O1  UNL     1      -0.689   5.377   8.545  1.00  0.00    -0.201 OA
HETATM   13  O2  UNL     1      -0.321   3.155   7.634  1.00  0.00    -0.201 OA
BRANCH  11  14
HETATM   14  N1  UNL     1       1.257   3.873   9.582  1.00  0.00    -0.324 N 
ATOM     15  H12 UNL     1       1.947   4.622   9.523  1.00  0.00     0.169 HD
ATOM     16  H11 UNL     1       1.401   2.975  10.045  1.00  0.00     0.169 HD
ENDBRANCH  11  14
ENDBRANCH   8  11
ENDBRANCH   1   5
BRANCH   3  17
HETATM   17  C6  UNL     1      -4.843   0.965  15.210  1.00  0.00     0.164 C 
BRANCH  17  18
HETATM   18  C7  UNL     1      -5.559   1.974  16.034  1.00  0.00     0.001 A 
HETATM   19  C8  UNL     1      -6.036   3.144  15.488  1.00  0.00     0.012 A 
HETATM   20  C9  UNL     1      -6.724   4.049  16.304  1.00  0.00     0.004 A 
HETATM   21  C10 UNL     1      -6.912   3.759  17.630  1.00  0.00     0.045 A 
HETATM   22  C11 UNL     1      -6.426   2.573  18.174  1.00  0.00     0.155 A 
HETATM   23  F1  UNL     1      -6.611   2.284  19.485  1.00  0.00    -0.203 F 
HETATM   24  C12 UNL     1      -5.750   1.674  17.390  1.00  0.00     0.162 A 
HETATM   25  F2  UNL     1      -5.277   0.522  17.916  1.00  0.00    -0.202 F 
ENDBRANCH  17  18
ENDBRANCH   3  17
TORSDOF 5
ENDMDL
