MODEL 1
REMARK VINA RESULT: -7.691891480      0.000      0.000
REMARK  5 active torsions:
REMARK  status: ('A' for Active; 'I' for Inactive)
REMARK    1  A    between atoms: N1_1  and  S1_4 
REMARK    2  A    between atoms: S1_4  and  C1_7 
REMARK    3  A    between atoms: C4_10  and  C5_11 
REMARK       I    between atoms: C5_11  and  N2_13 
REMARK    4  A    between atoms: N2_13  and  C6_15 
REMARK    5  A    between atoms: C6_15  and  C7_16 
ROOT
HETATM    1  C5  UNL     1      -4.591   6.069  14.263  1.00  0.00     0.251 C 
HETATM    2  O3  UNL     1      -4.039   6.017  13.108  1.00  0.00    -0.268 OA
HETATM    3  N2  UNL     1      -4.801   7.376  14.781  1.00  0.00    -0.353 N 
ATOM      4  H2  UNL     1      -5.232   7.462  15.702  1.00  0.00     0.163 HD
ENDROOT
BRANCH   1   5
HETATM    5  C4  UNL     1      -4.959   4.842  14.958  1.00  0.00     0.032 A 
HETATM    6  C3  UNL     1      -3.975   3.881  15.143  1.00  0.00     0.018 A 
HETATM    7  C2  UNL     1      -4.315   2.703  15.805  1.00  0.00     0.026 A 
HETATM    8  C1  UNL     1      -5.579   2.450  16.284  1.00  0.00     0.079 A 
HETATM    9  C14 UNL     1      -6.552   3.410  16.098  1.00  0.00     0.026 A 
HETATM   10  C13 UNL     1      -6.214   4.572  15.443  1.00  0.00     0.018 A 
BRANCH   8  11
HETATM   11  S1  UNL     1      -6.021   0.987  17.112  1.00  0.00     0.256 S 
HETATM   12  O1  UNL     1      -5.423   0.867  18.465  1.00  0.00    -0.201 OA
HETATM   13  O2  UNL     1      -5.611  -0.196  16.288  1.00  0.00    -0.201 OA
BRANCH  11  14
HETATM   14  N1  UNL     1      -7.767   0.960  17.190  1.00  0.00    -0.324 N 
ATOM     15  H12 UNL     1      -8.295   1.073  18.055  1.00  0.00     0.169 HD
ATOM     16  H11 UNL     1      -8.174   0.817  16.266  1.00  0.00     0.169 HD
ENDBRANCH  11  14
ENDBRANCH   8  11
ENDBRANCH   1   5
BRANCH   3  17
HETATM   17  C6  UNL     1      -4.443   8.585  14.086  1.00  0.00     0.164 C 
BRANCH  17  18
HETATM   18  C7  UNL     1      -3.180   9.178  14.600  1.00  0.00     0.001 A 
HETATM   19  C8  UNL     1      -2.287   8.439  15.343  1.00  0.00     0.012 A 
HETATM   20  C9  UNL     1      -1.103   9.041  15.783  1.00  0.00     0.004 A 
HETATM   21  C10 UNL     1      -0.850  10.350  15.469  1.00  0.00     0.045 A 
HETATM   22  C11 UNL     1      -1.759  11.090  14.718  1.00  0.00     0.155 A 
HETATM   23  F1  UNL     1      -1.511  12.385  14.407  1.00  0.00    -0.203 F 
HETATM   24  C12 UNL     1      -2.925  10.518  14.278  1.00  0.00     0.162 A 
HETATM   25  F2  UNL     1      -3.810  11.234  13.548  1.00  0.00    -0.202 F 
ENDBRANCH  17  18
ENDBRANCH   3  17
TORSDOF 5
ENDMDL
