MODEL 9
REMARK VINA RESULT: -7.337744292      1.052      1.114
REMARK  5 active torsions:
REMARK  status: ('A' for Active; 'I' for Inactive)
REMARK    1  A    between atoms: N1_1  and  S1_4 
REMARK    2  A    between atoms: S1_4  and  C1_7 
REMARK    3  A    between atoms: C4_10  and  C5_11 
REMARK       I    between atoms: C5_11  and  N2_13 
REMARK    4  A    between atoms: N2_13  and  C6_15 
REMARK    5  A    between atoms: C6_15  and  C7_16 
ROOT
HETATM    1  C5  UNL     1      -4.604   5.949  14.046  1.00  0.00     0.251 C 
HETATM    2  O3  UNL     1      -5.480   6.850  13.797  1.00  0.00    -0.268 OA
HETATM    3  N2  UNL     1      -3.299   6.211  13.544  1.00  0.00    -0.353 N 
ATOM      4  H2  UNL     1      -2.572   5.516  13.714  1.00  0.00     0.163 HD
ENDROOT
BRANCH   1   5
HETATM    5  C4  UNL     1      -4.969   4.754  14.795  1.00  0.00     0.032 A 
HETATM    6  C3  UNL     1      -4.009   3.761  14.940  1.00  0.00     0.018 A 
HETATM    7  C2  UNL     1      -4.347   2.612  15.653  1.00  0.00     0.026 A 
HETATM    8  C1  UNL     1      -5.584   2.418  16.220  1.00  0.00     0.079 A 
HETATM    9  C14 UNL     1      -6.533   3.409  16.073  1.00  0.00     0.026 A 
HETATM   10  C13 UNL     1      -6.197   4.542  15.367  1.00  0.00     0.018 A 
BRANCH   8  11
HETATM   11  S1  UNL     1      -6.023   0.993  17.113  1.00  0.00     0.256 S 
HETATM   12  O1  UNL     1      -5.419   0.931  18.467  1.00  0.00    -0.201 OA
HETATM   13  O2  UNL     1      -5.617  -0.226  16.339  1.00  0.00    -0.201 OA
BRANCH  11  14
HETATM   14  N1  UNL     1      -7.768   0.969  17.201  1.00  0.00    -0.324 N 
ATOM     15  H12 UNL     1      -8.374   0.964  16.381  1.00  0.00     0.169 HD
ATOM     16  H11 UNL     1      -8.088   0.962  18.170  1.00  0.00     0.169 HD
ENDBRANCH  11  14
ENDBRANCH   8  11
ENDBRANCH   1   5
BRANCH   3  17
HETATM   17  C6  UNL     1      -2.942   7.398  12.811  1.00  0.00     0.164 C 
BRANCH  17  18
HETATM   18  C7  UNL     1      -2.397   8.463  13.694  1.00  0.00     0.001 A 
HETATM   19  C8  UNL     1      -1.208   8.301  14.368  1.00  0.00     0.012 A 
HETATM   20  C9  UNL     1      -0.729   9.345  15.168  1.00  0.00     0.004 A 
HETATM   21  C10 UNL     1      -1.446  10.507  15.269  1.00  0.00     0.045 A 
HETATM   22  C11 UNL     1      -2.648  10.662  14.583  1.00  0.00     0.155 A 
HETATM   23  F1  UNL     1      -3.360  11.810  14.681  1.00  0.00    -0.203 F 
HETATM   24  C12 UNL     1      -3.134   9.650  13.795  1.00  0.00     0.162 A 
HETATM   25  F2  UNL     1      -4.301   9.798  13.129  1.00  0.00    -0.202 F 
ENDBRANCH  17  18
ENDBRANCH   3  17
TORSDOF 5
ENDMDL
