MODEL 8
REMARK VINA RESULT: -7.379041499      6.605      9.046
REMARK  5 active torsions:
REMARK  status: ('A' for Active; 'I' for Inactive)
REMARK    1  A    between atoms: N1_1  and  S1_4 
REMARK    2  A    between atoms: S1_4  and  C1_7 
REMARK    3  A    between atoms: C4_10  and  C5_11 
REMARK       I    between atoms: C5_11  and  N2_13 
REMARK    4  A    between atoms: N2_13  and  C6_15 
REMARK    5  A    between atoms: C6_15  and  C7_16 
ROOT
HETATM    1  C5  UNL     1      -2.803   2.275  11.383  1.00  0.00     0.251 C 
HETATM    2  O3  UNL     1      -3.589   1.768  10.508  1.00  0.00    -0.268 OA
HETATM    3  N2  UNL     1      -3.212   2.119  12.736  1.00  0.00    -0.353 N 
ATOM      4  H2  UNL     1      -2.618   2.514  13.464  1.00  0.00     0.163 HD
ENDROOT
BRANCH   1   5
HETATM    5  C4  UNL     1      -1.582   2.955  10.969  1.00  0.00     0.032 A 
HETATM    6  C3  UNL     1      -0.842   3.610  11.944  1.00  0.00     0.018 A 
HETATM    7  C2  UNL     1       0.326   4.266  11.562  1.00  0.00     0.026 A 
HETATM    8  C1  UNL     1       0.779   4.293  10.264  1.00  0.00     0.079 A 
HETATM    9  C14 UNL     1       0.039   3.640   9.299  1.00  0.00     0.026 A 
HETATM   10  C13 UNL     1      -1.115   2.994   9.680  1.00  0.00     0.018 A 
BRANCH   8  11
HETATM   11  S1  UNL     1       2.233   5.106   9.767  1.00  0.00     0.256 S 
HETATM   12  O1  UNL     1       2.635   4.806   8.371  1.00  0.00    -0.201 OA
HETATM   13  O2  UNL     1       3.354   4.730  10.691  1.00  0.00    -0.201 OA
BRANCH  11  14
HETATM   14  N1  UNL     1       1.956   6.817   9.990  1.00  0.00    -0.324 N 
ATOM     15  H12 UNL     1       2.048   7.505   9.243  1.00  0.00     0.169 HD
ATOM     16  H11 UNL     1       1.695   7.026  10.953  1.00  0.00     0.169 HD
ENDBRANCH  11  14
ENDBRANCH   8  11
ENDBRANCH   1   5
BRANCH   3  17
HETATM   17  C6  UNL     1      -4.416   1.438  13.139  1.00  0.00     0.164 C 
BRANCH  17  18
HETATM   18  C7  UNL     1      -5.052   2.072  14.324  1.00  0.00     0.001 A 
HETATM   19  C8  UNL     1      -5.699   3.283  14.233  1.00  0.00     0.012 A 
HETATM   20  C9  UNL     1      -6.300   3.823  15.376  1.00  0.00     0.004 A 
HETATM   21  C10 UNL     1      -6.237   3.142  16.563  1.00  0.00     0.045 A 
HETATM   22  C11 UNL     1      -5.580   1.917  16.645  1.00  0.00     0.155 A 
HETATM   23  F1  UNL     1      -5.515   1.241  17.817  1.00  0.00    -0.203 F 
HETATM   24  C12 UNL     1      -4.984   1.372  15.536  1.00  0.00     0.162 A 
HETATM   25  F2  UNL     1      -4.345   0.183  15.614  1.00  0.00    -0.202 F 
ENDBRANCH  17  18
ENDBRANCH   3  17
TORSDOF 5
ENDMDL
