MODEL 4
REMARK VINA RESULT: -7.523981210      0.868      1.466
REMARK  5 active torsions:
REMARK  status: ('A' for Active; 'I' for Inactive)
REMARK    1  A    between atoms: N1_1  and  S1_4 
REMARK    2  A    between atoms: S1_4  and  C1_7 
REMARK    3  A    between atoms: C4_10  and  C5_11 
REMARK       I    between atoms: C5_11  and  N2_13 
REMARK    4  A    between atoms: N2_13  and  C6_15 
REMARK    5  A    between atoms: C6_15  and  C7_16 
ROOT
HETATM    1  C5  UNL     1      -4.611   6.306  14.264  1.00  0.00     0.251 C 
HETATM    2  O3  UNL     1      -4.181   6.376  13.060  1.00  0.00    -0.268 OA
HETATM    3  N2  UNL     1      -4.806   7.554  14.917  1.00  0.00    -0.353 N 
ATOM      4  H2  UNL     1      -5.142   7.543  15.880  1.00  0.00     0.163 HD
ENDROOT
BRANCH   1   5
HETATM    5  C4  UNL     1      -4.869   5.010  14.879  1.00  0.00     0.032 A 
HETATM    6  C3  UNL     1      -6.163   4.738  15.302  1.00  0.00     0.018 A 
HETATM    7  C2  UNL     1      -6.422   3.504  15.893  1.00  0.00     0.026 A 
HETATM    8  C1  UNL     1      -5.456   2.543  16.076  1.00  0.00     0.079 A 
HETATM    9  C14 UNL     1      -4.171   2.819  15.653  1.00  0.00     0.026 A 
HETATM   10  C13 UNL     1      -3.918   4.040  15.071  1.00  0.00     0.018 A 
BRANCH   8  11
HETATM   11  S1  UNL     1      -5.760   0.997  16.811  1.00  0.00     0.256 S 
HETATM   12  O1  UNL     1      -7.175   0.564  16.719  1.00  0.00    -0.201 OA
HETATM   13  O2  UNL     1      -5.355   1.043  18.255  1.00  0.00    -0.201 OA
BRANCH  11  14
HETATM   14  N1  UNL     1      -4.697  -0.150  16.031  1.00  0.00    -0.324 N 
ATOM     15  H12 UNL     1      -4.247  -0.924  16.519  1.00  0.00     0.169 HD
ATOM     16  H11 UNL     1      -4.594   0.060  15.038  1.00  0.00     0.169 HD
ENDBRANCH  11  14
ENDBRANCH   8  11
ENDBRANCH   1   5
BRANCH   3  17
HETATM   17  C6  UNL     1      -4.557   8.832  14.300  1.00  0.00     0.164 C 
BRANCH  17  18
HETATM   18  C7  UNL     1      -3.228   9.386  14.669  1.00  0.00     0.001 A 
HETATM   19  C8  UNL     1      -2.276   8.617  15.299  1.00  0.00     0.012 A 
HETATM   20  C9  UNL     1      -1.033   9.183  15.602  1.00  0.00     0.004 A 
HETATM   21  C10 UNL     1      -0.781  10.487  15.269  1.00  0.00     0.045 A 
HETATM   22  C11 UNL     1      -1.749  11.257  14.631  1.00  0.00     0.155 A 
HETATM   23  F1  UNL     1      -1.503  12.548  14.300  1.00  0.00    -0.203 F 
HETATM   24  C12 UNL     1      -2.975  10.721  14.326  1.00  0.00     0.162 A 
HETATM   25  F2  UNL     1      -3.917  11.467  13.707  1.00  0.00    -0.202 F 
ENDBRANCH  17  18
ENDBRANCH   3  17
TORSDOF 5
ENDMDL
