MODEL 8
REMARK VINA RESULT: -7.583355494      1.752      2.113
REMARK  5 active torsions:
REMARK  status: ('A' for Active; 'I' for Inactive)
REMARK    1  A    between atoms: N1_1  and  S1_4 
REMARK    2  A    between atoms: S1_4  and  C1_7 
REMARK    3  A    between atoms: C4_10  and  C5_11 
REMARK       I    between atoms: C5_11  and  N2_13 
REMARK    4  A    between atoms: N2_13  and  C6_15 
REMARK    5  A    between atoms: C6_15  and  C7_16 
ROOT
HETATM    1  C5  UNL     1      -4.209   5.733  14.017  1.00  0.00     0.251 C 
HETATM    2  O3  UNL     1      -3.568   5.593  12.914  1.00  0.00    -0.268 OA
HETATM    3  N2  UNL     1      -4.446   7.075  14.406  1.00  0.00    -0.352 N 
ATOM      4  H2  UNL     1      -4.963   7.228  15.272  1.00  0.00     0.163 HD
ENDROOT
BRANCH   1   5
HETATM    5  C4  UNL     1      -4.640   4.586  14.778  1.00  0.00     0.032 A 
HETATM    6  C3  UNL     1      -3.757   3.585  15.176  1.00  0.00     0.018 A 
HETATM    7  C2  UNL     1      -4.180   2.491  15.905  1.00  0.00     0.026 A 
HETATM    8  C1  UNL     1      -5.504   2.353  16.268  1.00  0.00     0.079 A 
HETATM    9  C14 UNL     1      -6.389   3.328  15.887  1.00  0.00     0.026 A 
HETATM   10  C13 UNL     1      -5.941   4.431  15.147  1.00  0.00     0.018 A 
BRANCH   8  11
HETATM   11  S1  UNL     1      -6.056   0.980  17.188  1.00  0.00     0.256 S 
HETATM   12  O1  UNL     1      -5.479   0.983  18.575  1.00  0.00    -0.201 OA
HETATM   13  O2  UNL     1      -5.637  -0.286  16.462  1.00  0.00    -0.201 OA
BRANCH  11  14
HETATM   14  N1  UNL     1      -7.780   0.975  17.244  1.00  0.00    -0.324 N 
ATOM     15  H12 UNL     1      -8.334   1.670  17.745  1.00  0.00     0.169 HD
ATOM     16  H11 UNL     1      -8.156   0.191  16.712  1.00  0.00     0.169 HD
ENDBRANCH  11  14
ENDBRANCH   8  11
ENDBRANCH   1   5
BRANCH   3  17
HETATM   17  C6  UNL     1      -4.021   8.224  13.687  1.00  0.00     0.167 C 
BRANCH  17  18
HETATM   18  C7  UNL     1      -2.897   8.977  14.224  1.00  0.00     0.037 A 
HETATM   19  C8  UNL     1      -3.000  10.371  14.206  1.00  0.00     0.127 A 
HETATM   20  F1  UNL     1      -4.104  10.983  13.678  1.00  0.00    -0.205 F 
HETATM   21  C9  UNL     1      -2.006  11.178  14.713  1.00  0.00     0.043 A 
HETATM   22  C10 UNL     1      -0.865  10.644  15.262  1.00  0.00     0.006 A 
HETATM   23  C11 UNL     1      -0.745   9.275  15.290  1.00  0.00     0.043 A 
HETATM   24  C12 UNL     1      -1.754   8.456  14.775  1.00  0.00     0.127 A 
HETATM   25  F2  UNL     1      -1.572   7.127  14.867  1.00  0.00    -0.205 F 
ENDBRANCH  17  18
ENDBRANCH   3  17
TORSDOF 5
ENDMDL
