MODEL 2
REMARK VINA RESULT: -7.760344525      6.074      8.388
REMARK  5 active torsions:
REMARK  status: ('A' for Active; 'I' for Inactive)
REMARK    1  A    between atoms: N1_1  and  S1_4 
REMARK    2  A    between atoms: S1_4  and  C1_7 
REMARK    3  A    between atoms: C4_10  and  C5_11 
REMARK       I    between atoms: C5_11  and  N2_13 
REMARK    4  A    between atoms: N2_13  and  C6_15 
REMARK    5  A    between atoms: C6_15  and  C7_16 
ROOT
HETATM    1  C5  UNL     1      -4.001   1.059  12.971  1.00  0.00     0.251 C 
HETATM    2  O3  UNL     1      -4.849   0.158  12.629  1.00  0.00    -0.268 OA
HETATM    3  N2  UNL     1      -4.001   1.389  14.350  1.00  0.00    -0.352 N 
ATOM      4  H2  UNL     1      -3.333   2.093  14.663  1.00  0.00     0.163 HD
ENDROOT
BRANCH   1   5
HETATM    5  C4  UNL     1      -3.128   1.669  11.998  1.00  0.00     0.032 A 
HETATM    6  C3  UNL     1      -2.326   0.914  11.145  1.00  0.00     0.018 A 
HETATM    7  C2  UNL     1      -1.495   1.507  10.215  1.00  0.00     0.026 A 
HETATM    8  C1  UNL     1      -1.431   2.880  10.099  1.00  0.00     0.079 A 
HETATM    9  C14 UNL     1      -2.213   3.641  10.930  1.00  0.00     0.026 A 
HETATM   10  C13 UNL     1      -3.050   3.021  11.867  1.00  0.00     0.018 A 
BRANCH   8  11
HETATM   11  S1  UNL     1      -0.388   3.646   8.933  1.00  0.00     0.256 S 
HETATM   12  O1  UNL     1      -0.403   2.914   7.621  1.00  0.00    -0.201 OA
HETATM   13  O2  UNL     1       1.024   3.669   9.491  1.00  0.00    -0.201 OA
BRANCH  11  14
HETATM   14  N1  UNL     1      -0.866   5.290   8.720  1.00  0.00    -0.324 N 
ATOM     15  H12 UNL     1      -1.810   5.578   8.458  1.00  0.00     0.169 HD
ATOM     16  H11 UNL     1      -0.082   5.919   8.890  1.00  0.00     0.169 HD
ENDBRANCH  11  14
ENDBRANCH   8  11
ENDBRANCH   1   5
BRANCH   3  17
HETATM   17  C6  UNL     1      -4.857   0.818  15.329  1.00  0.00     0.167 C 
BRANCH  17  18
HETATM   18  C7  UNL     1      -5.634   1.729  16.157  1.00  0.00     0.037 A 
HETATM   19  C8  UNL     1      -5.899   1.324  17.469  1.00  0.00     0.127 A 
HETATM   20  F1  UNL     1      -5.464   0.111  17.927  1.00  0.00    -0.205 F 
HETATM   21  C9  UNL     1      -6.602   2.120  18.345  1.00  0.00     0.043 A 
HETATM   22  C10 UNL     1      -7.074   3.354  17.965  1.00  0.00     0.006 A 
HETATM   23  C11 UNL     1      -6.823   3.771  16.679  1.00  0.00     0.043 A 
HETATM   24  C12 UNL     1      -6.110   2.961  15.791  1.00  0.00     0.127 A 
HETATM   25  F2  UNL     1      -5.881   3.455  14.561  1.00  0.00    -0.205 F 
ENDBRANCH  17  18
ENDBRANCH   3  17
TORSDOF 5
ENDMDL
