MODEL 6
REMARK VINA RESULT: -7.644134535      2.237      2.585
REMARK  5 active torsions:
REMARK  status: ('A' for Active; 'I' for Inactive)
REMARK    1  A    between atoms: N1_1  and  S1_4 
REMARK    2  A    between atoms: S1_4  and  C1_7 
REMARK    3  A    between atoms: C4_10  and  C5_11 
REMARK       I    between atoms: C5_11  and  N2_13 
REMARK    4  A    between atoms: N2_13  and  C6_15 
REMARK    5  A    between atoms: C6_15  and  C7_16 
ROOT
HETATM    1  C5  UNL     1      -4.064   5.809  14.236  1.00  0.00     0.251 C 
HETATM    2  O3  UNL     1      -4.876   6.699  13.792  1.00  0.00    -0.268 OA
HETATM    3  N2  UNL     1      -2.694   6.066  13.979  1.00  0.00    -0.352 N 
ATOM      4  H2  UNL     1      -2.017   5.387  14.326  1.00  0.00     0.163 HD
ENDROOT
BRANCH   1   5
HETATM    5  C4  UNL     1      -4.547   4.647  14.941  1.00  0.00     0.032 A 
HETATM    6  C3  UNL     1      -5.876   4.520  15.339  1.00  0.00     0.018 A 
HETATM    7  C2  UNL     1      -6.329   3.402  16.012  1.00  0.00     0.026 A 
HETATM    8  C1  UNL     1      -5.471   2.365  16.316  1.00  0.00     0.079 A 
HETATM    9  C14 UNL     1      -4.159   2.471  15.933  1.00  0.00     0.026 A 
HETATM   10  C13 UNL     1      -3.718   3.613  15.251  1.00  0.00     0.018 A 
BRANCH   8  11
HETATM   11  S1  UNL     1      -6.024   0.948  17.166  1.00  0.00     0.256 S 
HETATM   12  O1  UNL     1      -5.445   0.879  18.550  1.00  0.00    -0.201 OA
HETATM   13  O2  UNL     1      -5.610  -0.280  16.375  1.00  0.00    -0.201 OA
BRANCH  11  14
HETATM   14  N1  UNL     1      -7.749   0.944  17.225  1.00  0.00    -0.324 N 
ATOM     15  H12 UNL     1      -8.296   0.304  17.801  1.00  0.00     0.169 HD
ATOM     16  H11 UNL     1      -8.132   1.663  16.611  1.00  0.00     0.169 HD
ENDBRANCH  11  14
ENDBRANCH   8  11
ENDBRANCH   1   5
BRANCH   3  17
HETATM   17  C6  UNL     1      -2.189   7.193  13.275  1.00  0.00     0.167 C 
BRANCH  17  18
HETATM   18  C7  UNL     1      -1.474   8.200  14.045  1.00  0.00     0.037 A 
HETATM   19  C8  UNL     1      -0.331   8.752  13.459  1.00  0.00     0.127 A 
HETATM   20  F1  UNL     1       0.097   8.331  12.230  1.00  0.00    -0.205 F 
HETATM   21  C9  UNL     1       0.405   9.731  14.089  1.00  0.00     0.043 A 
HETATM   22  C10 UNL     1       0.044  10.211  15.325  1.00  0.00     0.006 A 
HETATM   23  C11 UNL     1      -1.078   9.682  15.917  1.00  0.00     0.043 A 
HETATM   24  C12 UNL     1      -1.825   8.688  15.278  1.00  0.00     0.127 A 
HETATM   25  F2  UNL     1      -2.925   8.244  15.911  1.00  0.00    -0.205 F 
ENDBRANCH  17  18
ENDBRANCH   3  17
TORSDOF 5
ENDMDL
