MODEL 5
REMARK VINA RESULT: -7.658445184      6.148      8.279
REMARK  5 active torsions:
REMARK  status: ('A' for Active; 'I' for Inactive)
REMARK    1  A    between atoms: N1_1  and  S1_4 
REMARK    2  A    between atoms: S1_4  and  C1_7 
REMARK    3  A    between atoms: C4_10  and  C5_11 
REMARK       I    between atoms: C5_11  and  N2_13 
REMARK    4  A    between atoms: N2_13  and  C6_15 
REMARK    5  A    between atoms: C6_15  and  C7_16 
ROOT
HETATM    1  C5  UNL     1      -3.970   0.925  13.003  1.00  0.00     0.251 C 
HETATM    2  O3  UNL     1      -4.576  -0.180  12.757  1.00  0.00    -0.268 OA
HETATM    3  N2  UNL     1      -4.105   1.399  14.333  1.00  0.00    -0.352 N 
ATOM      4  H2  UNL     1      -3.628   2.268  14.571  1.00  0.00     0.163 HD
ENDROOT
BRANCH   1   5
HETATM    5  C4  UNL     1      -3.217   1.605  11.979  1.00  0.00     0.032 A 
HETATM    6  C3  UNL     1      -2.296   0.941  11.171  1.00  0.00     0.018 A 
HETATM    7  C2  UNL     1      -1.580   1.602  10.191  1.00  0.00     0.026 A 
HETATM    8  C1  UNL     1      -1.755   2.954   9.979  1.00  0.00     0.079 A 
HETATM    9  C14 UNL     1      -2.657   3.626  10.764  1.00  0.00     0.026 A 
HETATM   10  C13 UNL     1      -3.374   2.938  11.753  1.00  0.00     0.018 A 
BRANCH   8  11
HETATM   11  S1  UNL     1      -0.861   3.804   8.749  1.00  0.00     0.256 S 
HETATM   12  O1  UNL     1      -1.720   4.821   8.052  1.00  0.00    -0.201 OA
HETATM   13  O2  UNL     1      -0.346   2.791   7.742  1.00  0.00    -0.201 OA
BRANCH  11  14
HETATM   14  N1  UNL     1       0.524   4.554   9.454  1.00  0.00    -0.324 N 
ATOM     15  H12 UNL     1       0.727   4.545  10.453  1.00  0.00     0.169 HD
ATOM     16  H11 UNL     1       1.096   5.000   8.738  1.00  0.00     0.169 HD
ENDBRANCH  11  14
ENDBRANCH   8  11
ENDBRANCH   1   5
BRANCH   3  17
HETATM   17  C6  UNL     1      -4.851   0.759  15.359  1.00  0.00     0.167 C 
BRANCH  17  18
HETATM   18  C7  UNL     1      -5.571   1.610  16.295  1.00  0.00     0.037 A 
HETATM   19  C8  UNL     1      -6.038   2.835  15.810  1.00  0.00     0.127 A 
HETATM   20  F1  UNL     1      -5.795   3.213  14.518  1.00  0.00    -0.205 F 
HETATM   21  C9  UNL     1      -6.754   3.704  16.603  1.00  0.00     0.043 A 
HETATM   22  C10 UNL     1      -7.042   3.401  17.913  1.00  0.00     0.006 A 
HETATM   23  C11 UNL     1      -6.593   2.200  18.409  1.00  0.00     0.043 A 
HETATM   24  C12 UNL     1      -5.866   1.319  17.603  1.00  0.00     0.127 A 
HETATM   25  F2  UNL     1      -5.489   0.152  18.156  1.00  0.00    -0.205 F 
ENDBRANCH  17  18
ENDBRANCH   3  17
TORSDOF 5
ENDMDL
