MODEL 11
REMARK VINA RESULT: -7.484342201      4.218      5.376
REMARK  5 active torsions:
REMARK  status: ('A' for Active; 'I' for Inactive)
REMARK    1  A    between atoms: N1_1  and  S1_4 
REMARK    2  A    between atoms: S1_4  and  C1_7 
REMARK    3  A    between atoms: C4_10  and  C5_11 
REMARK       I    between atoms: C5_11  and  N2_13 
REMARK    4  A    between atoms: N2_13  and  C6_15 
REMARK    5  A    between atoms: C6_15  and  C7_16 
ROOT
HETATM    1  C5  UNL     1      -5.057   5.855  13.388  1.00  0.00     0.251 C 
HETATM    2  O3  UNL     1      -5.012   7.066  13.811  1.00  0.00    -0.268 OA
HETATM    3  N2  UNL     1      -4.892   5.703  11.988  1.00  0.00    -0.352 N 
ATOM      4  H2  UNL     1      -4.910   4.754  11.615  1.00  0.00     0.163 HD
ENDROOT
BRANCH   1   5
HETATM    5  C4  UNL     1      -5.260   4.756  14.299  1.00  0.00     0.032 A 
HETATM    6  C3  UNL     1      -4.419   3.646  14.322  1.00  0.00     0.018 A 
HETATM    7  C2  UNL     1      -4.621   2.598  15.199  1.00  0.00     0.026 A 
HETATM    8  C1  UNL     1      -5.675   2.617  16.090  1.00  0.00     0.079 A 
HETATM    9  C14 UNL     1      -6.515   3.701  16.084  1.00  0.00     0.026 A 
HETATM   10  C13 UNL     1      -6.292   4.754  15.186  1.00  0.00     0.018 A 
BRANCH   8  11
HETATM   11  S1  UNL     1      -5.947   1.305  17.204  1.00  0.00     0.256 S 
HETATM   12  O1  UNL     1      -4.780   0.359  17.230  1.00  0.00    -0.201 OA
HETATM   13  O2  UNL     1      -7.200   0.562  16.776  1.00  0.00    -0.201 OA
BRANCH  11  14
HETATM   14  N1  UNL     1      -6.255   1.937  18.779  1.00  0.00    -0.324 N 
ATOM     15  H12 UNL     1      -6.736   1.418  19.515  1.00  0.00     0.169 HD
ATOM     16  H11 UNL     1      -5.893   2.886  18.865  1.00  0.00     0.169 HD
ENDBRANCH  11  14
ENDBRANCH   8  11
ENDBRANCH   1   5
BRANCH   3  17
HETATM   17  C6  UNL     1      -4.704   6.766  11.065  1.00  0.00     0.167 C 
BRANCH  17  18
HETATM   18  C7  UNL     1      -5.800   7.066  10.154  1.00  0.00     0.037 A 
HETATM   19  C8  UNL     1      -5.667   6.625   8.834  1.00  0.00     0.127 A 
HETATM   20  F1  UNL     1      -4.538   5.968   8.428  1.00  0.00    -0.205 F 
HETATM   21  C9  UNL     1      -6.654   6.833   7.897  1.00  0.00     0.043 A 
HETATM   22  C10 UNL     1      -7.820   7.485   8.223  1.00  0.00     0.006 A 
HETATM   23  C11 UNL     1      -7.970   7.926   9.516  1.00  0.00     0.043 A 
HETATM   24  C12 UNL     1      -6.967   7.714  10.466  1.00  0.00     0.127 A 
HETATM   25  F2  UNL     1      -7.205   8.150  11.716  1.00  0.00    -0.205 F 
ENDBRANCH  17  18
ENDBRANCH   3  17
TORSDOF 5
ENDMDL
