MODEL 12
REMARK VINA RESULT: -6.909235209      1.759      2.341
REMARK  5 active torsions:
REMARK  status: ('A' for Active; 'I' for Inactive)
REMARK    1  A    between atoms: N1_1  and  S1_4 
REMARK    2  A    between atoms: S1_4  and  C1_7 
REMARK    3  A    between atoms: C4_10  and  C5_11 
REMARK       I    between atoms: C5_11  and  N2_13 
REMARK    4  A    between atoms: N2_13  and  C6_15 
REMARK    5  A    between atoms: C6_15  and  C7_16 
ROOT
HETATM    1  C1  UNL     1      -5.680   2.584  16.084  1.00  0.00     0.079 A 
HETATM    2  C2  UNL     1      -6.635   3.508  15.720  1.00  0.00     0.026 A 
HETATM    3  C3  UNL     1      -6.359   4.551  14.845  1.00  0.00     0.018 A 
HETATM    4  C4  UNL     1      -5.103   4.676  14.319  1.00  0.00     0.032 A 
HETATM    5  C13 UNL     1      -4.111   3.745  14.675  1.00  0.00     0.018 A 
HETATM    6  C14 UNL     1      -4.424   2.726  15.546  1.00  0.00     0.026 A 
ENDROOT
BRANCH   4   7
HETATM    7  C5  UNL     1      -4.794   5.741  13.409  1.00  0.00     0.251 C 
HETATM    8  O3  UNL     1      -3.598   5.910  13.034  1.00  0.00    -0.268 OA
HETATM    9  N2  UNL     1      -5.761   6.614  12.906  1.00  0.00    -0.353 N 
ATOM     10  H2  UNL     1      -6.730   6.490  13.198  1.00  0.00     0.163 HD
BRANCH   9  11
HETATM   11  C6  UNL     1      -5.444   7.700  11.977  1.00  0.00     0.161 C 
BRANCH  11  12
HETATM   12  C7  UNL     1      -6.268   7.589  10.742  1.00  0.00    -0.041 A 
HETATM   13  C8  UNL     1      -5.929   6.801   9.686  1.00  0.00     0.009 A 
HETATM   14  C9  UNL     1      -6.710   6.723   8.558  1.00  0.00     0.001 A 
HETATM   15  C10 UNL     1      -7.879   7.469   8.494  1.00  0.00     0.000 A 
HETATM   16  C11 UNL     1      -8.253   8.274   9.537  1.00  0.00     0.001 A 
HETATM   17  C12 UNL     1      -7.434   8.319  10.651  1.00  0.00     0.009 A 
ENDBRANCH  11  12
ENDBRANCH   9  11
ENDBRANCH   4   7
BRANCH   1  18
HETATM   18  S1  UNL     1      -6.129   1.314  17.190  1.00  0.00     0.256 S 
HETATM   19  O1  UNL     1      -5.028   0.311  17.245  1.00  0.00    -0.201 OA
HETATM   20  O2  UNL     1      -7.370   0.649  16.665  1.00  0.00    -0.201 OA
BRANCH  18  21
HETATM   21  N1  UNL     1      -6.392   1.929  18.775  1.00  0.00    -0.324 N 
ATOM     22  H12 UNL     1      -5.809   2.631  19.232  1.00  0.00     0.169 HD
ATOM     23  H11 UNL     1      -7.218   1.478  19.167  1.00  0.00     0.169 HD
ENDBRANCH  18  21
ENDBRANCH   1  18
TORSDOF 5
ENDMDL
