MODEL 4
REMARK VINA RESULT: -7.239282096      1.474      1.882
REMARK  5 active torsions:
REMARK  status: ('A' for Active; 'I' for Inactive)
REMARK    1  A    between atoms: N1_1  and  S1_4 
REMARK    2  A    between atoms: S1_4  and  C1_7 
REMARK    3  A    between atoms: C4_10  and  C5_11 
REMARK       I    between atoms: C5_11  and  N2_13 
REMARK    4  A    between atoms: N2_13  and  C6_15 
REMARK    5  A    between atoms: C6_15  and  C7_16 
ROOT
HETATM    1  C1  UNL     1      -5.204   2.395  15.300  1.00  0.00     0.079 A 
HETATM    2  C2  UNL     1      -4.525   2.838  14.185  1.00  0.00     0.026 A 
HETATM    3  C3  UNL     1      -4.782   4.074  13.606  1.00  0.00     0.018 A 
HETATM    4  C4  UNL     1      -5.736   4.888  14.149  1.00  0.00     0.032 A 
HETATM    5  C13 UNL     1      -6.443   4.459  15.287  1.00  0.00     0.018 A 
HETATM    6  C14 UNL     1      -6.160   3.228  15.832  1.00  0.00     0.026 A 
ENDROOT
BRANCH   4   7
HETATM    7  C5  UNL     1      -6.017   6.172  13.572  1.00  0.00     0.251 C 
HETATM    8  O3  UNL     1      -6.819   6.955  14.159  1.00  0.00    -0.268 OA
HETATM    9  N2  UNL     1      -5.440   6.610  12.378  1.00  0.00    -0.353 N 
ATOM     10  H2  UNL     1      -4.791   5.991  11.894  1.00  0.00     0.163 HD
BRANCH   9  11
HETATM   11  C6  UNL     1      -5.728   7.920  11.792  1.00  0.00     0.161 C 
BRANCH  11  12
HETATM   12  C7  UNL     1      -6.522   7.769  10.541  1.00  0.00    -0.041 A 
HETATM   13  C8  UNL     1      -6.235   6.849   9.580  1.00  0.00     0.009 A 
HETATM   14  C9  UNL     1      -6.986   6.737   8.434  1.00  0.00     0.001 A 
HETATM   15  C10 UNL     1      -8.069   7.588   8.252  1.00  0.00     0.000 A 
HETATM   16  C11 UNL     1      -8.388   8.526   9.197  1.00  0.00     0.001 A 
HETATM   17  C12 UNL     1      -7.602   8.600  10.334  1.00  0.00     0.009 A 
ENDBRANCH  11  12
ENDBRANCH   9  11
ENDBRANCH   4   7
BRANCH   1  18
HETATM   18  S1  UNL     1      -4.807   0.827  15.949  1.00  0.00     0.256 S 
HETATM   19  O1  UNL     1      -3.415   0.864  16.480  1.00  0.00    -0.201 OA
HETATM   20  O2  UNL     1      -4.878  -0.177  14.833  1.00  0.00    -0.201 OA
BRANCH  18  21
HETATM   21  N1  UNL     1      -5.872   0.392  17.228  1.00  0.00    -0.324 N 
ATOM     22  H12 UNL     1      -5.856   0.798  18.164  1.00  0.00     0.169 HD
ATOM     23  H11 UNL     1      -6.510  -0.329  16.891  1.00  0.00     0.169 HD
ENDBRANCH  18  21
ENDBRANCH   1  18
TORSDOF 5
ENDMDL
