MODEL 10
REMARK VINA RESULT: -7.035711753      2.953      4.129
REMARK  5 active torsions:
REMARK  status: ('A' for Active; 'I' for Inactive)
REMARK    1  A    between atoms: N1_1  and  S1_4 
REMARK    2  A    between atoms: S1_4  and  C1_7 
REMARK    3  A    between atoms: C4_10  and  C5_11 
REMARK       I    between atoms: C5_11  and  N2_13 
REMARK    4  A    between atoms: N2_13  and  C6_15 
REMARK    5  A    between atoms: C6_15  and  C7_16 
ROOT
HETATM    1  C1  UNL     1      -5.546   2.404  16.177  1.00  0.00     0.079 A 
HETATM    2  C2  UNL     1      -6.459   3.378  15.832  1.00  0.00     0.026 A 
HETATM    3  C3  UNL     1      -6.091   4.523  15.137  1.00  0.00     0.018 A 
HETATM    4  C4  UNL     1      -4.784   4.702  14.776  1.00  0.00     0.032 A 
HETATM    5  C13 UNL     1      -3.834   3.722  15.116  1.00  0.00     0.018 A 
HETATM    6  C14 UNL     1      -4.238   2.602  15.805  1.00  0.00     0.026 A 
ENDROOT
BRANCH   4   7
HETATM    7  C5  UNL     1      -4.379   5.873  14.053  1.00  0.00     0.251 C 
HETATM    8  O3  UNL     1      -3.799   5.744  12.936  1.00  0.00    -0.268 OA
HETATM    9  N2  UNL     1      -4.597   7.170  14.525  1.00  0.00    -0.353 N 
ATOM     10  H2  UNL     1      -5.064   7.290  15.423  1.00  0.00     0.163 HD
BRANCH   9  11
HETATM   11  C6  UNL     1      -4.183   8.363  13.786  1.00  0.00     0.161 C 
BRANCH  11  12
HETATM   12  C7  UNL     1      -3.063   9.049  14.487  1.00  0.00    -0.041 A 
HETATM   13  C8  UNL     1      -2.588  10.271  14.120  1.00  0.00     0.009 A 
HETATM   14  C9  UNL     1      -1.549  10.876  14.786  1.00  0.00     0.001 A 
HETATM   15  C10 UNL     1      -0.967  10.222  15.864  1.00  0.00     0.000 A 
HETATM   16  C11 UNL     1      -1.418   8.992  16.262  1.00  0.00     0.001 A 
HETATM   17  C12 UNL     1      -2.465   8.423  15.560  1.00  0.00     0.009 A 
ENDBRANCH  11  12
ENDBRANCH   9  11
ENDBRANCH   4   7
BRANCH   1  18
HETATM   18  S1  UNL     1      -6.111   1.005  17.050  1.00  0.00     0.256 S 
HETATM   19  O1  UNL     1      -5.522   1.021  18.419  1.00  0.00    -0.201 OA
HETATM   20  O2  UNL     1      -5.637  -0.224  16.327  1.00  0.00    -0.201 OA
BRANCH  18  21
HETATM   21  N1  UNL     1      -7.826   1.006  17.189  1.00  0.00    -0.324 N 
ATOM     22  H12 UNL     1      -8.361   1.621  17.802  1.00  0.00     0.169 HD
ATOM     23  H11 UNL     1      -8.204   0.296  16.562  1.00  0.00     0.169 HD
ENDBRANCH  18  21
ENDBRANCH   1  18
TORSDOF 5
ENDMDL
