MODEL 3
REMARK VINA RESULT: -7.270461097      1.454      1.962
REMARK  5 active torsions:
REMARK  status: ('A' for Active; 'I' for Inactive)
REMARK    1  A    between atoms: N1_1  and  S1_4 
REMARK    2  A    between atoms: S1_4  and  C1_7 
REMARK    3  A    between atoms: C4_10  and  C5_11 
REMARK       I    between atoms: C5_11  and  N2_13 
REMARK    4  A    between atoms: N2_13  and  C6_15 
REMARK    5  A    between atoms: C6_15  and  C7_16 
ROOT
HETATM    1  C1  UNL     1      -5.209   2.412  15.312  1.00  0.00     0.079 A 
HETATM    2  C2  UNL     1      -4.458   2.893  14.261  1.00  0.00     0.026 A 
HETATM    3  C3  UNL     1      -4.702   4.133  13.686  1.00  0.00     0.018 A 
HETATM    4  C4  UNL     1      -5.716   4.913  14.167  1.00  0.00     0.032 A 
HETATM    5  C13 UNL     1      -6.497   4.444  15.240  1.00  0.00     0.018 A 
HETATM    6  C14 UNL     1      -6.224   3.209  15.783  1.00  0.00     0.026 A 
ENDROOT
BRANCH   4   7
HETATM    7  C5  UNL     1      -5.985   6.200  13.593  1.00  0.00     0.251 C 
HETATM    8  O3  UNL     1      -6.806   6.975  14.164  1.00  0.00    -0.268 OA
HETATM    9  N2  UNL     1      -5.377   6.649  12.419  1.00  0.00    -0.353 N 
ATOM     10  H2  UNL     1      -4.713   6.036  11.948  1.00  0.00     0.163 HD
BRANCH   9  11
HETATM   11  C6  UNL     1      -5.653   7.963  11.835  1.00  0.00     0.161 C 
BRANCH  11  12
HETATM   12  C7  UNL     1      -6.499   7.826  10.617  1.00  0.00    -0.041 A 
HETATM   13  C8  UNL     1      -7.611   8.578  10.392  1.00  0.00     0.009 A 
HETATM   14  C9  UNL     1      -8.373   8.425   9.258  1.00  0.00     0.001 A 
HETATM   15  C10 UNL     1      -7.998   7.476   8.316  1.00  0.00     0.000 A 
HETATM   16  C11 UNL     1      -6.886   6.701   8.509  1.00  0.00     0.001 A 
HETATM   17  C12 UNL     1      -6.151   6.891   9.665  1.00  0.00     0.009 A 
ENDBRANCH  11  12
ENDBRANCH   9  11
ENDBRANCH   4   7
BRANCH   1  18
HETATM   18  S1  UNL     1      -4.821   0.842  15.963  1.00  0.00     0.256 S 
HETATM   19  O1  UNL     1      -3.426   0.866  16.484  1.00  0.00    -0.201 OA
HETATM   20  O2  UNL     1      -4.910  -0.164  14.850  1.00  0.00    -0.201 OA
BRANCH  18  21
HETATM   21  N1  UNL     1      -5.882   0.420  17.250  1.00  0.00    -0.324 N 
ATOM     22  H12 UNL     1      -6.824   0.048  17.132  1.00  0.00     0.169 HD
ATOM     23  H11 UNL     1      -5.410   0.605  18.136  1.00  0.00     0.169 HD
ENDBRANCH  18  21
ENDBRANCH   1  18
TORSDOF 5
ENDMDL
