MODEL 11
REMARK VINA RESULT: -6.930428660      3.548      4.561
REMARK  5 active torsions:
REMARK  status: ('A' for Active; 'I' for Inactive)
REMARK    1  A    between atoms: N1_1  and  S1_4 
REMARK    2  A    between atoms: S1_4  and  C1_7 
REMARK    3  A    between atoms: C4_10  and  C5_11 
REMARK       I    between atoms: C5_11  and  N2_13 
REMARK    4  A    between atoms: N2_13  and  C6_15 
REMARK    5  A    between atoms: C6_15  and  C7_16 
ROOT
HETATM    1  C1  UNL     1      -5.561   2.384  16.149  1.00  0.00     0.079 A 
HETATM    2  C2  UNL     1      -4.205   2.485  15.928  1.00  0.00     0.026 A 
HETATM    3  C3  UNL     1      -3.651   3.525  15.192  1.00  0.00     0.018 A 
HETATM    4  C4  UNL     1      -4.467   4.487  14.664  1.00  0.00     0.032 A 
HETATM    5  C13 UNL     1      -5.855   4.406  14.877  1.00  0.00     0.018 A 
HETATM    6  C14 UNL     1      -6.365   3.360  15.612  1.00  0.00     0.026 A 
ENDROOT
BRANCH   4   7
HETATM    7  C5  UNL     1      -3.920   5.574  13.904  1.00  0.00     0.251 C 
HETATM    8  O3  UNL     1      -4.674   6.233  13.132  1.00  0.00    -0.268 OA
HETATM    9  N2  UNL     1      -2.576   5.948  13.975  1.00  0.00    -0.353 N 
ATOM     10  H2  UNL     1      -1.956   5.427  14.594  1.00  0.00     0.163 HD
BRANCH   9  11
HETATM   11  C6  UNL     1      -2.020   7.058  13.199  1.00  0.00     0.161 C 
BRANCH  11  12
HETATM   12  C7  UNL     1      -1.474   8.106  14.104  1.00  0.00    -0.041 A 
HETATM   13  C8  UNL     1      -0.449   8.932  13.758  1.00  0.00     0.009 A 
HETATM   14  C9  UNL     1       0.035   9.889  14.618  1.00  0.00     0.001 A 
HETATM   15  C10 UNL     1      -0.539  10.016  15.877  1.00  0.00     0.000 A 
HETATM   16  C11 UNL     1      -1.572   9.203  16.260  1.00  0.00     0.001 A 
HETATM   17  C12 UNL     1      -2.024   8.255  15.360  1.00  0.00     0.009 A 
ENDBRANCH  11  12
ENDBRANCH   9  11
ENDBRANCH   4   7
BRANCH   1  18
HETATM   18  S1  UNL     1      -6.154   1.039  17.087  1.00  0.00     0.256 S 
HETATM   19  O1  UNL     1      -5.595   1.127  18.464  1.00  0.00    -0.201 OA
HETATM   20  O2  UNL     1      -5.674  -0.231  16.443  1.00  0.00    -0.201 OA
BRANCH  18  21
HETATM   21  N1  UNL     1      -7.872   1.058  17.188  1.00  0.00    -0.324 N 
ATOM     22  H12 UNL     1      -8.429   0.419  17.755  1.00  0.00     0.169 HD
ATOM     23  H11 UNL     1      -8.226   1.807  16.593  1.00  0.00     0.169 HD
ENDBRANCH  18  21
ENDBRANCH   1  18
TORSDOF 5
ENDMDL
