MODEL 6
REMARK VINA RESULT: -7.490594055      3.468      4.685
REMARK  5 active torsions:
REMARK  status: ('A' for Active; 'I' for Inactive)
REMARK    1  A    between atoms: N1_1  and  S1_4 
REMARK    2  A    between atoms: S1_4  and  C1_7 
REMARK    3  A    between atoms: C4_10  and  C5_11 
REMARK       I    between atoms: C5_11  and  N2_13 
REMARK    4  A    between atoms: N2_13  and  C6_15 
REMARK    5  A    between atoms: C6_15  and  C7_16 
ROOT
HETATM    1  C5  UNL     1      -4.495   5.404  13.535  1.00  0.00     0.251 C 
HETATM    2  O3  UNL     1      -5.242   5.844  12.592  1.00  0.00    -0.268 OA
HETATM    3  N2  UNL     1      -3.204   5.993  13.616  1.00  0.00    -0.353 N 
ATOM      4  H2  UNL     1      -2.574   5.667  14.349  1.00  0.00     0.163 HD
ENDROOT
BRANCH   1   5
HETATM    5  C4  UNL     1      -4.982   4.368  14.437  1.00  0.00     0.032 A 
HETATM    6  C3  UNL     1      -4.123   3.323  14.748  1.00  0.00     0.018 A 
HETATM    7  C2  UNL     1      -4.576   2.325  15.609  1.00  0.00     0.026 A 
HETATM    8  C1  UNL     1      -5.835   2.329  16.163  1.00  0.00     0.079 A 
HETATM    9  C14 UNL     1      -6.684   3.371  15.850  1.00  0.00     0.026 A 
HETATM   10  C13 UNL     1      -6.233   4.354  14.999  1.00  0.00     0.018 A 
BRANCH   8  11
HETATM   11  S1  UNL     1      -6.418   1.094  17.238  1.00  0.00     0.256 S 
HETATM   12  O1  UNL     1      -5.687  -0.191  17.119  1.00  0.00    -0.201 OA
HETATM   13  O2  UNL     1      -7.876   0.855  16.980  1.00  0.00    -0.201 OA
BRANCH  11  14
HETATM   14  N1  UNL     1      -6.298   1.738  18.859  1.00  0.00    -0.324 N 
ATOM     15  H12 UNL     1      -5.669   1.365  19.570  1.00  0.00     0.169 HD
ATOM     16  H11 UNL     1      -6.934   2.525  18.990  1.00  0.00     0.169 HD
ENDBRANCH  11  14
ENDBRANCH   8  11
ENDBRANCH   1   5
BRANCH   3  17
HETATM   17  C6  UNL     1      -2.732   7.023  12.727  1.00  0.00     0.164 C 
BRANCH  17  18
HETATM   18  C7  UNL     1      -2.309   8.247  13.457  1.00  0.00     0.001 A 
HETATM   19  C8  UNL     1      -1.985   8.214  14.794  1.00  0.00     0.012 A 
HETATM   20  C9  UNL     1      -1.571   9.392  15.426  1.00  0.00     0.004 A 
HETATM   21  C10 UNL     1      -1.493  10.556  14.708  1.00  0.00     0.045 A 
HETATM   22  C11 UNL     1      -1.823  10.580  13.356  1.00  0.00     0.155 A 
HETATM   23  F1  UNL     1      -1.748  11.731  12.644  1.00  0.00    -0.203 F 
HETATM   24  C12 UNL     1      -2.232   9.436  12.719  1.00  0.00     0.162 A 
HETATM   25  F2  UNL     1      -2.553   9.458  11.406  1.00  0.00    -0.202 F 
ENDBRANCH  17  18
ENDBRANCH   3  17
TORSDOF 5
ENDMDL
