MODEL 2
REMARK VINA RESULT: -7.890950072      0.096      1.010
REMARK  5 active torsions:
REMARK  status: ('A' for Active; 'I' for Inactive)
REMARK    1  A    between atoms: N1_1  and  S1_4 
REMARK    2  A    between atoms: S1_4  and  C1_7 
REMARK    3  A    between atoms: C4_10  and  C5_11 
REMARK       I    between atoms: C5_11  and  N2_13 
REMARK    4  A    between atoms: N2_13  and  C6_15 
REMARK    5  A    between atoms: C6_15  and  C7_16 
ROOT
HETATM    1  C5  UNL     1      -4.638   5.751  13.377  1.00  0.00     0.251 C 
HETATM    2  O3  UNL     1      -3.410   6.100  13.270  1.00  0.00    -0.268 OA
HETATM    3  N2  UNL     1      -5.550   6.468  12.556  1.00  0.00    -0.353 N 
ATOM      4  H2  UNL     1      -6.539   6.227  12.615  1.00  0.00     0.163 HD
ENDROOT
BRANCH   1   5
HETATM    5  C4  UNL     1      -5.023   4.685  14.293  1.00  0.00     0.032 A 
HETATM    6  C3  UNL     1      -4.092   3.691  14.560  1.00  0.00     0.018 A 
HETATM    7  C2  UNL     1      -4.448   2.665  15.434  1.00  0.00     0.026 A 
HETATM    8  C1  UNL     1      -5.679   2.594  16.042  1.00  0.00     0.079 A 
HETATM    9  C14 UNL     1      -6.600   3.586  15.773  1.00  0.00     0.026 A 
HETATM   10  C13 UNL     1      -6.245   4.597  14.910  1.00  0.00     0.018 A 
BRANCH   8  11
HETATM   11  S1  UNL     1      -6.142   1.323  17.134  1.00  0.00     0.256 S 
HETATM   12  O1  UNL     1      -5.110   0.269  17.291  1.00  0.00    -0.201 OA
HETATM   13  O2  UNL     1      -7.416   0.693  16.656  1.00  0.00    -0.201 OA
BRANCH  11  14
HETATM   14  N1  UNL     1      -6.505   2.082  18.667  1.00  0.00    -0.324 N 
ATOM     15  H12 UNL     1      -7.137   2.876  18.767  1.00  0.00     0.169 HD
ATOM     16  H11 UNL     1      -6.005   1.626  19.431  1.00  0.00     0.169 HD
ENDBRANCH  11  14
ENDBRANCH   8  11
ENDBRANCH   1   5
BRANCH   3  17
HETATM   17  C6  UNL     1      -5.162   7.515  11.646  1.00  0.00     0.164 C 
BRANCH  17  18
HETATM   18  C7  UNL     1      -5.851   7.404  10.333  1.00  0.00     0.001 A 
HETATM   19  C8  UNL     1      -5.191   6.964   9.208  1.00  0.00     0.012 A 
HETATM   20  C9  UNL     1      -5.894   6.856   8.003  1.00  0.00     0.004 A 
HETATM   21  C10 UNL     1      -7.222   7.188   7.959  1.00  0.00     0.045 A 
HETATM   22  C11 UNL     1      -7.881   7.633   9.102  1.00  0.00     0.155 A 
HETATM   23  F1  UNL     1      -9.195   7.963   9.062  1.00  0.00    -0.203 F 
HETATM   24  C12 UNL     1      -7.209   7.746  10.293  1.00  0.00     0.162 A 
HETATM   25  F2  UNL     1      -7.847   8.177  11.404  1.00  0.00    -0.202 F 
ENDBRANCH  17  18
ENDBRANCH   3  17
TORSDOF 5
ENDMDL
