MODEL 17
REMARK VINA RESULT: -7.144767600      3.614      4.959
REMARK  5 active torsions:
REMARK  status: ('A' for Active; 'I' for Inactive)
REMARK    1  A    between atoms: N1_1  and  S1_4 
REMARK    2  A    between atoms: S1_4  and  C1_7 
REMARK    3  A    between atoms: C4_10  and  C5_11 
REMARK       I    between atoms: C5_11  and  N2_13 
REMARK    4  A    between atoms: N2_13  and  C6_15 
REMARK    5  A    between atoms: C6_15  and  C7_16 
ROOT
HETATM    1  C5  UNL     1      -4.469   5.274  13.473  1.00  0.00     0.251 C 
HETATM    2  O3  UNL     1      -5.252   5.793  12.603  1.00  0.00    -0.268 OA
HETATM    3  N2  UNL     1      -3.127   5.743  13.444  1.00  0.00    -0.353 N 
ATOM      4  H2  UNL     1      -2.468   5.351  14.116  1.00  0.00     0.163 HD
ENDROOT
BRANCH   1   5
HETATM    5  C4  UNL     1      -4.966   4.271  14.407  1.00  0.00     0.032 A 
HETATM    6  C3  UNL     1      -4.106   3.247  14.778  1.00  0.00     0.018 A 
HETATM    7  C2  UNL     1      -4.570   2.282  15.669  1.00  0.00     0.026 A 
HETATM    8  C1  UNL     1      -5.839   2.298  16.197  1.00  0.00     0.079 A 
HETATM    9  C14 UNL     1      -6.690   3.319  15.825  1.00  0.00     0.026 A 
HETATM   10  C13 UNL     1      -6.229   4.270  14.943  1.00  0.00     0.018 A 
BRANCH   8  11
HETATM   11  S1  UNL     1      -6.436   1.103  17.310  1.00  0.00     0.256 S 
HETATM   12  O1  UNL     1      -5.679  -0.172  17.275  1.00  0.00    -0.201 OA
HETATM   13  O2  UNL     1      -7.880   0.825  17.017  1.00  0.00    -0.201 OA
BRANCH  11  14
HETATM   14  N1  UNL     1      -6.380   1.824  18.902  1.00  0.00    -0.324 N 
ATOM     15  H12 UNL     1      -5.519   1.954  19.433  1.00  0.00     0.169 HD
ATOM     16  H11 UNL     1      -7.313   2.091  19.218  1.00  0.00     0.169 HD
ENDBRANCH  11  14
ENDBRANCH   8  11
ENDBRANCH   1   5
BRANCH   3  17
HETATM   17  C6  UNL     1      -2.643   6.740  12.524  1.00  0.00     0.164 C 
BRANCH  17  18
HETATM   18  C7  UNL     1      -1.671   7.669  13.160  1.00  0.00     0.001 A 
HETATM   19  C8  UNL     1      -0.478   7.989  12.553  1.00  0.00     0.012 A 
HETATM   20  C9  UNL     1       0.390   8.887  13.186  1.00  0.00     0.004 A 
HETATM   21  C10 UNL     1       0.041   9.432  14.393  1.00  0.00     0.045 A 
HETATM   22  C11 UNL     1      -1.168   9.103  14.998  1.00  0.00     0.155 A 
HETATM   23  F1  UNL     1      -1.516   9.640  16.193  1.00  0.00    -0.203 F 
HETATM   24  C12 UNL     1      -2.032   8.224  14.395  1.00  0.00     0.162 A 
HETATM   25  F2  UNL     1      -3.207   7.902  14.981  1.00  0.00    -0.202 F 
ENDBRANCH  17  18
ENDBRANCH   3  17
TORSDOF 5
ENDMDL
