MODEL 3
REMARK VINA RESULT: -7.802151164      1.341      1.682
REMARK  5 active torsions:
REMARK  status: ('A' for Active; 'I' for Inactive)
REMARK    1  A    between atoms: N1_1  and  S1_4 
REMARK    2  A    between atoms: S1_4  and  C1_7 
REMARK    3  A    between atoms: C4_10  and  C5_11 
REMARK       I    between atoms: C5_11  and  N2_13 
REMARK    4  A    between atoms: N2_13  and  C6_15 
REMARK    5  A    between atoms: C6_15  and  C7_16 
ROOT
HETATM    1  C5  UNL     1      -4.668   5.412  13.167  1.00  0.00     0.251 C 
HETATM    2  O3  UNL     1      -3.509   5.387  12.622  1.00  0.00    -0.268 OA
HETATM    3  N2  UNL     1      -5.525   6.460  12.733  1.00  0.00    -0.353 N 
ATOM      4  H2  UNL     1      -6.456   6.520  13.146  1.00  0.00     0.163 HD
ENDROOT
BRANCH   1   5
HETATM    5  C4  UNL     1      -5.036   4.410  14.160  1.00  0.00     0.032 A 
HETATM    6  C3  UNL     1      -6.283   4.520  14.761  1.00  0.00     0.018 A 
HETATM    7  C2  UNL     1      -6.646   3.570  15.713  1.00  0.00     0.026 A 
HETATM    8  C1  UNL     1      -5.827   2.529  16.083  1.00  0.00     0.079 A 
HETATM    9  C14 UNL     1      -4.589   2.426  15.482  1.00  0.00     0.026 A 
HETATM   10  C13 UNL     1      -4.233   3.366  14.543  1.00  0.00     0.018 A 
BRANCH   8  11
HETATM   11  S1  UNL     1      -6.262   1.335  17.269  1.00  0.00     0.256 S 
HETATM   12  O1  UNL     1      -5.318   0.193  17.336  1.00  0.00    -0.201 OA
HETATM   13  O2  UNL     1      -7.638   0.816  16.972  1.00  0.00    -0.201 OA
BRANCH  11  14
HETATM   14  N1  UNL     1      -6.362   2.162  18.805  1.00  0.00    -0.324 N 
ATOM     15  H12 UNL     1      -7.241   2.369  19.279  1.00  0.00     0.169 HD
ATOM     16  H11 UNL     1      -5.434   2.403  19.154  1.00  0.00     0.169 HD
ENDBRANCH  11  14
ENDBRANCH   8  11
ENDBRANCH   1   5
BRANCH   3  17
HETATM   17  C6  UNL     1      -5.159   7.441  11.745  1.00  0.00     0.164 C 
BRANCH  17  18
HETATM   18  C7  UNL     1      -6.079   7.435  10.576  1.00  0.00     0.001 A 
HETATM   19  C8  UNL     1      -7.304   8.060  10.621  1.00  0.00     0.012 A 
HETATM   20  C9  UNL     1      -8.121   8.043   9.484  1.00  0.00     0.004 A 
HETATM   21  C10 UNL     1      -7.691   7.408   8.349  1.00  0.00     0.045 A 
HETATM   22  C11 UNL     1      -6.450   6.779   8.314  1.00  0.00     0.155 A 
HETATM   23  F1  UNL     1      -6.022   6.150   7.192  1.00  0.00    -0.203 F 
HETATM   24  C12 UNL     1      -5.635   6.784   9.417  1.00  0.00     0.162 A 
HETATM   25  F2  UNL     1      -4.430   6.173   9.385  1.00  0.00    -0.202 F 
ENDBRANCH  17  18
ENDBRANCH   3  17
TORSDOF 5
ENDMDL
