MODEL 5
REMARK VINA RESULT: -7.495063950      4.107      5.429
REMARK  5 active torsions:
REMARK  status: ('A' for Active; 'I' for Inactive)
REMARK    1  A    between atoms: N1_1  and  S1_4 
REMARK    2  A    between atoms: S1_4  and  C1_7 
REMARK    3  A    between atoms: C4_10  and  C5_11 
REMARK       I    between atoms: C5_11  and  N2_13 
REMARK    4  A    between atoms: N2_13  and  C6_15 
REMARK    5  A    between atoms: C6_15  and  C7_16 
ROOT
HETATM    1  C5  UNL     1      -4.229   5.415  13.752  1.00  0.00     0.251 C 
HETATM    2  O3  UNL     1      -4.987   6.103  12.983  1.00  0.00    -0.268 OA
HETATM    3  N2  UNL     1      -2.849   5.757  13.716  1.00  0.00    -0.353 N 
ATOM      4  H2  UNL     1      -2.209   5.228  14.308  1.00  0.00     0.163 HD
ENDROOT
BRANCH   1   5
HETATM    5  C4  UNL     1      -4.790   4.361  14.589  1.00  0.00     0.032 A 
HETATM    6  C3  UNL     1      -3.964   3.302  14.939  1.00  0.00     0.018 A 
HETATM    7  C2  UNL     1      -4.489   2.287  15.737  1.00  0.00     0.026 A 
HETATM    8  C1  UNL     1      -5.786   2.289  16.194  1.00  0.00     0.079 A 
HETATM    9  C14 UNL     1      -6.602   3.345  15.843  1.00  0.00     0.026 A 
HETATM   10  C13 UNL     1      -6.081   4.345  15.053  1.00  0.00     0.018 A 
BRANCH   8  11
HETATM   11  S1  UNL     1      -6.458   1.033  17.190  1.00  0.00     0.256 S 
HETATM   12  O1  UNL     1      -5.809  -0.287  17.002  1.00  0.00    -0.201 OA
HETATM   13  O2  UNL     1      -7.925   0.903  16.907  1.00  0.00    -0.201 OA
BRANCH  11  14
HETATM   14  N1  UNL     1      -6.317   1.574  18.847  1.00  0.00    -0.324 N 
ATOM     15  H12 UNL     1      -6.031   0.968  19.615  1.00  0.00     0.169 HD
ATOM     16  H11 UNL     1      -6.557   2.562  18.933  1.00  0.00     0.169 HD
ENDBRANCH  11  14
ENDBRANCH   8  11
ENDBRANCH   1   5
BRANCH   3  17
HETATM   17  C6  UNL     1      -2.302   6.804  12.893  1.00  0.00     0.164 C 
BRANCH  17  18
HETATM   18  C7  UNL     1      -1.682   7.889  13.700  1.00  0.00     0.001 A 
HETATM   19  C8  UNL     1      -2.304   8.402  14.815  1.00  0.00     0.012 A 
HETATM   20  C9  UNL     1      -1.665   9.406  15.552  1.00  0.00     0.004 A 
HETATM   21  C10 UNL     1      -0.436   9.861  15.155  1.00  0.00     0.045 A 
HETATM   22  C11 UNL     1       0.185   9.336  14.025  1.00  0.00     0.155 A 
HETATM   23  F1  UNL     1       1.401   9.785  13.630  1.00  0.00    -0.203 F 
HETATM   24  C12 UNL     1      -0.425   8.352  13.290  1.00  0.00     0.162 A 
HETATM   25  F2  UNL     1       0.176   7.841  12.193  1.00  0.00    -0.202 F 
ENDBRANCH  17  18
ENDBRANCH   3  17
TORSDOF 5
ENDMDL
