MODEL 1
REMARK VINA RESULT: -7.941760335      0.000      0.000
REMARK  5 active torsions:
REMARK  status: ('A' for Active; 'I' for Inactive)
REMARK    1  A    between atoms: N1_1  and  S1_4 
REMARK    2  A    between atoms: S1_4  and  C1_7 
REMARK    3  A    between atoms: C4_10  and  C5_11 
REMARK       I    between atoms: C5_11  and  N2_13 
REMARK    4  A    between atoms: N2_13  and  C6_15 
REMARK    5  A    between atoms: C6_15  and  C7_16 
ROOT
HETATM    1  C5  UNL     1      -4.569   5.676  13.316  1.00  0.00     0.251 C 
HETATM    2  O3  UNL     1      -3.337   5.951  13.098  1.00  0.00    -0.268 OA
HETATM    3  N2  UNL     1      -5.508   6.473  12.607  1.00  0.00    -0.353 N 
ATOM      4  H2  UNL     1      -6.500   6.291  12.757  1.00  0.00     0.163 HD
ENDROOT
BRANCH   1   5
HETATM    5  C4  UNL     1      -4.932   4.607  14.239  1.00  0.00     0.032 A 
HETATM    6  C3  UNL     1      -6.225   4.599  14.745  1.00  0.00     0.018 A 
HETATM    7  C2  UNL     1      -6.584   3.584  15.629  1.00  0.00     0.026 A 
HETATM    8  C1  UNL     1      -5.718   2.591  16.022  1.00  0.00     0.079 A 
HETATM    9  C14 UNL     1      -4.435   2.604  15.514  1.00  0.00     0.026 A 
HETATM   10  C13 UNL     1      -4.082   3.609  14.642  1.00  0.00     0.018 A 
BRANCH   8  11
HETATM   11  S1  UNL     1      -6.148   1.316  17.123  1.00  0.00     0.256 S 
HETATM   12  O1  UNL     1      -5.105   0.270  17.257  1.00  0.00    -0.201 OA
HETATM   13  O2  UNL     1      -7.428   0.678  16.672  1.00  0.00    -0.201 OA
BRANCH  11  14
HETATM   14  N1  UNL     1      -6.484   2.072  18.663  1.00  0.00    -0.324 N 
ATOM     15  H12 UNL     1      -5.889   2.787  19.082  1.00  0.00     0.169 HD
ATOM     16  H11 UNL     1      -7.342   1.704  19.074  1.00  0.00     0.169 HD
ENDBRANCH  11  14
ENDBRANCH   8  11
ENDBRANCH   1   5
BRANCH   3  17
HETATM   17  C6  UNL     1      -5.143   7.522  11.690  1.00  0.00     0.164 C 
BRANCH  17  18
HETATM   18  C7  UNL     1      -5.832   7.390  10.379  1.00  0.00     0.001 A 
HETATM   19  C8  UNL     1      -5.178   6.914   9.266  1.00  0.00     0.012 A 
HETATM   20  C9  UNL     1      -5.882   6.788   8.063  1.00  0.00     0.004 A 
HETATM   21  C10 UNL     1      -7.205   7.137   8.010  1.00  0.00     0.045 A 
HETATM   22  C11 UNL     1      -7.859   7.617   9.142  1.00  0.00     0.155 A 
HETATM   23  F1  UNL     1      -9.167   7.964   9.093  1.00  0.00    -0.203 F 
HETATM   24  C12 UNL     1      -7.186   7.749  10.330  1.00  0.00     0.162 A 
HETATM   25  F2  UNL     1      -7.819   8.215  11.430  1.00  0.00    -0.202 F 
ENDBRANCH  17  18
ENDBRANCH   3  17
TORSDOF 5
ENDMDL
