MODEL 2
REMARK VINA RESULT: -7.882448775      0.068      1.753
REMARK  5 active torsions:
REMARK  status: ('A' for Active; 'I' for Inactive)
REMARK    1  A    between atoms: N1_1  and  S1_4 
REMARK    2  A    between atoms: S1_4  and  C1_7 
REMARK    3  A    between atoms: C4_10  and  C5_11 
REMARK       I    between atoms: C5_11  and  N2_13 
REMARK    4  A    between atoms: N2_13  and  C6_15 
REMARK    5  A    between atoms: C6_15  and  C7_16 
ROOT
HETATM    1  C5  UNL     1      -4.746   5.155  13.191  1.00  0.00     0.251 C 
HETATM    2  O3  UNL     1      -3.761   4.927  12.399  1.00  0.00    -0.268 OA
HETATM    3  N2  UNL     1      -5.444   6.364  12.945  1.00  0.00    -0.352 N 
ATOM      4  H2  UNL     1      -6.240   6.576  13.546  1.00  0.00     0.163 HD
ENDROOT
BRANCH   1   5
HETATM    5  C4  UNL     1      -5.087   4.228  14.241  1.00  0.00     0.032 A 
HETATM    6  C3  UNL     1      -4.185   3.277  14.713  1.00  0.00     0.018 A 
HETATM    7  C2  UNL     1      -4.521   2.394  15.721  1.00  0.00     0.026 A 
HETATM    8  C1  UNL     1      -5.774   2.425  16.298  1.00  0.00     0.079 A 
HETATM    9  C14 UNL     1      -6.676   3.354  15.848  1.00  0.00     0.026 A 
HETATM   10  C13 UNL     1      -6.316   4.242  14.825  1.00  0.00     0.018 A 
BRANCH   8  11
HETATM   11  S1  UNL     1      -6.216   1.319  17.570  1.00  0.00     0.256 S 
HETATM   12  O1  UNL     1      -5.217   0.204  17.698  1.00  0.00    -0.201 OA
HETATM   13  O2  UNL     1      -7.586   0.746  17.255  1.00  0.00    -0.201 OA
BRANCH  11  14
HETATM   14  N1  UNL     1      -6.366   2.178  19.059  1.00  0.00    -0.324 N 
ATOM     15  H12 UNL     1      -5.906   3.069  19.249  1.00  0.00     0.169 HD
ATOM     16  H11 UNL     1      -6.970   1.673  19.707  1.00  0.00     0.169 HD
ENDBRANCH  11  14
ENDBRANCH   8  11
ENDBRANCH   1   5
BRANCH   3  17
HETATM   17  C6  UNL     1      -5.123   7.304  11.929  1.00  0.00     0.167 C 
BRANCH  17  18
HETATM   18  C7  UNL     1      -5.956   7.315  10.736  1.00  0.00     0.037 A 
HETATM   19  C8  UNL     1      -7.096   8.125  10.765  1.00  0.00     0.127 A 
HETATM   20  F1  UNL     1      -7.412   8.846  11.884  1.00  0.00    -0.205 F 
HETATM   21  C9  UNL     1      -7.939   8.229   9.681  1.00  0.00     0.043 A 
HETATM   22  C10 UNL     1      -7.693   7.538   8.518  1.00  0.00     0.006 A 
HETATM   23  C11 UNL     1      -6.578   6.737   8.469  1.00  0.00     0.043 A 
HETATM   24  C12 UNL     1      -5.722   6.632   9.570  1.00  0.00     0.127 A 
HETATM   25  F2  UNL     1      -4.637   5.850   9.430  1.00  0.00    -0.205 F 
ENDBRANCH  17  18
ENDBRANCH   3  17
TORSDOF 5
ENDMDL
