MODEL 5
REMARK VINA RESULT: -7.300325001      3.775      5.068
REMARK  5 active torsions:
REMARK  status: ('A' for Active; 'I' for Inactive)
REMARK    1  A    between atoms: N1_1  and  S1_4 
REMARK    2  A    between atoms: S1_4  and  C1_7 
REMARK    3  A    between atoms: C4_10  and  C5_11 
REMARK       I    between atoms: C5_11  and  N2_13 
REMARK    4  A    between atoms: N2_13  and  C6_15 
REMARK    5  A    between atoms: C6_15  and  C7_16 
ROOT
HETATM    1  C5  UNL     1      -3.943   5.679  14.051  1.00  0.00     0.251 C 
HETATM    2  O3  UNL     1      -4.723   6.475  13.414  1.00  0.00    -0.268 OA
HETATM    3  N2  UNL     1      -2.564   5.998  13.968  1.00  0.00    -0.352 N 
ATOM      4  H2  UNL     1      -1.912   5.396  14.470  1.00  0.00     0.163 HD
ENDROOT
BRANCH   1   5
HETATM    5  C4  UNL     1      -4.465   4.554  14.786  1.00  0.00     0.032 A 
HETATM    6  C3  UNL     1      -5.814   4.446  15.117  1.00  0.00     0.018 A 
HETATM    7  C2  UNL     1      -6.306   3.363  15.820  1.00  0.00     0.026 A 
HETATM    8  C1  UNL     1      -5.468   2.343  16.221  1.00  0.00     0.079 A 
HETATM    9  C14 UNL     1      -4.136   2.430  15.905  1.00  0.00     0.026 A 
HETATM   10  C13 UNL     1      -3.657   3.537  15.191  1.00  0.00     0.018 A 
BRANCH   8  11
HETATM   11  S1  UNL     1      -6.069   0.970  17.110  1.00  0.00     0.256 S 
HETATM   12  O1  UNL     1      -5.521   0.940  18.508  1.00  0.00    -0.201 OA
HETATM   13  O2  UNL     1      -5.666  -0.295  16.373  1.00  0.00    -0.201 OA
BRANCH  11  14
HETATM   14  N1  UNL     1      -7.794   1.005  17.131  1.00  0.00    -0.324 N 
ATOM     15  H12 UNL     1      -8.379   0.610  16.395  1.00  0.00     0.169 HD
ATOM     16  H11 UNL     1      -8.135   1.469  17.973  1.00  0.00     0.169 HD
ENDBRANCH  11  14
ENDBRANCH   8  11
ENDBRANCH   1   5
BRANCH   3  17
HETATM   17  C6  UNL     1      -2.018   7.090  13.241  1.00  0.00     0.167 C 
BRANCH  17  18
HETATM   18  C7  UNL     1      -1.310   8.114  13.996  1.00  0.00     0.037 A 
HETATM   19  C8  UNL     1      -0.046   8.486  13.529  1.00  0.00     0.127 A 
HETATM   20  F1  UNL     1       0.497   7.884  12.427  1.00  0.00    -0.205 F 
HETATM   21  C9  UNL     1       0.698   9.463  14.153  1.00  0.00     0.043 A 
HETATM   22  C10 UNL     1       0.226  10.118  15.265  1.00  0.00     0.006 A 
HETATM   23  C11 UNL     1      -1.016   9.766  15.739  1.00  0.00     0.043 A 
HETATM   24  C12 UNL     1      -1.770   8.775  15.106  1.00  0.00     0.127 A 
HETATM   25  F2  UNL     1      -2.987   8.511  15.615  1.00  0.00    -0.205 F 
ENDBRANCH  17  18
ENDBRANCH   3  17
TORSDOF 5
ENDMDL
