MODEL 1
REMARK VINA RESULT: -7.884924482      0.000      0.000
REMARK  5 active torsions:
REMARK  status: ('A' for Active; 'I' for Inactive)
REMARK    1  A    between atoms: N1_1  and  S1_4 
REMARK    2  A    between atoms: S1_4  and  C1_7 
REMARK    3  A    between atoms: C4_10  and  C5_11 
REMARK       I    between atoms: C5_11  and  N2_13 
REMARK    4  A    between atoms: N2_13  and  C6_15 
REMARK    5  A    between atoms: C6_15  and  C7_16 
ROOT
HETATM    1  C5  UNL     1      -4.690   5.125  13.199  1.00  0.00     0.251 C 
HETATM    2  O3  UNL     1      -3.675   4.907  12.443  1.00  0.00    -0.268 OA
HETATM    3  N2  UNL     1      -5.404   6.316  12.914  1.00  0.00    -0.352 N 
ATOM      4  H2  UNL     1      -6.223   6.519  13.486  1.00  0.00     0.163 HD
ENDROOT
BRANCH   1   5
HETATM    5  C4  UNL     1      -5.046   4.205  14.251  1.00  0.00     0.032 A 
HETATM    6  C3  UNL     1      -4.161   3.235  14.719  1.00  0.00     0.018 A 
HETATM    7  C2  UNL     1      -4.512   2.359  15.728  1.00  0.00     0.026 A 
HETATM    8  C1  UNL     1      -5.761   2.415  16.309  1.00  0.00     0.079 A 
HETATM    9  C14 UNL     1      -6.647   3.362  15.863  1.00  0.00     0.026 A 
HETATM   10  C13 UNL     1      -6.273   4.243  14.838  1.00  0.00     0.018 A 
BRANCH   8  11
HETATM   11  S1  UNL     1      -6.221   1.318  17.582  1.00  0.00     0.256 S 
HETATM   12  O1  UNL     1      -5.230   0.197  17.723  1.00  0.00    -0.201 OA
HETATM   13  O2  UNL     1      -7.592   0.752  17.259  1.00  0.00    -0.201 OA
BRANCH  11  14
HETATM   14  N1  UNL     1      -6.378   2.184  19.066  1.00  0.00    -0.324 N 
ATOM     15  H12 UNL     1      -7.242   2.630  19.375  1.00  0.00     0.169 HD
ATOM     16  H11 UNL     1      -5.497   2.185  19.578  1.00  0.00     0.169 HD
ENDBRANCH  11  14
ENDBRANCH   8  11
ENDBRANCH   1   5
BRANCH   3  17
HETATM   17  C6  UNL     1      -5.070   7.249  11.896  1.00  0.00     0.167 C 
BRANCH  17  18
HETATM   18  C7  UNL     1      -6.005   7.402  10.792  1.00  0.00     0.037 A 
HETATM   19  C8  UNL     1      -5.753   6.653   9.638  1.00  0.00     0.127 A 
HETATM   20  F1  UNL     1      -4.655   5.839   9.560  1.00  0.00    -0.205 F 
HETATM   21  C9  UNL     1      -6.588   6.703   8.544  1.00  0.00     0.043 A 
HETATM   22  C10 UNL     1      -7.712   7.494   8.541  1.00  0.00     0.006 A 
HETATM   23  C11 UNL     1      -7.977   8.238   9.666  1.00  0.00     0.043 A 
HETATM   24  C12 UNL     1      -7.129   8.187  10.776  1.00  0.00     0.127 A 
HETATM   25  F2  UNL     1      -7.476   8.923  11.847  1.00  0.00    -0.205 F 
ENDBRANCH  17  18
ENDBRANCH   3  17
TORSDOF 5
ENDMDL
