MODEL 9
REMARK VINA RESULT: -7.084561482      3.512      5.065
REMARK  5 active torsions:
REMARK  status: ('A' for Active; 'I' for Inactive)
REMARK    1  A    between atoms: N1_1  and  S1_4 
REMARK    2  A    between atoms: S1_4  and  C1_7 
REMARK    3  A    between atoms: C4_10  and  C5_11 
REMARK       I    between atoms: C5_11  and  N2_13 
REMARK    4  A    between atoms: N2_13  and  C6_15 
REMARK    5  A    between atoms: C6_15  and  C7_16 
ROOT
HETATM    1  C5  UNL     1      -4.474   5.582  14.015  1.00  0.00     0.251 C 
HETATM    2  O3  UNL     1      -5.289   6.248  13.280  1.00  0.00    -0.268 OA
HETATM    3  N2  UNL     1      -3.139   6.059  14.013  1.00  0.00    -0.352 N 
ATOM      4  H2  UNL     1      -2.464   5.563  14.595  1.00  0.00     0.163 HD
ENDROOT
BRANCH   1   5
HETATM    5  C4  UNL     1      -4.920   4.440  14.774  1.00  0.00     0.032 A 
HETATM    6  C3  UNL     1      -6.248   4.280  15.163  1.00  0.00     0.018 A 
HETATM    7  C2  UNL     1      -6.666   3.182  15.889  1.00  0.00     0.026 A 
HETATM    8  C1  UNL     1      -5.772   2.197  16.256  1.00  0.00     0.079 A 
HETATM    9  C14 UNL     1      -4.460   2.335  15.883  1.00  0.00     0.026 A 
HETATM   10  C13 UNL     1      -4.055   3.458  15.147  1.00  0.00     0.018 A 
BRANCH   8  11
HETATM   11  S1  UNL     1      -6.280   0.804  17.172  1.00  0.00     0.256 S 
HETATM   12  O1  UNL     1      -5.615  -0.448  16.677  1.00  0.00    -0.201 OA
HETATM   13  O2  UNL     1      -7.787   0.669  17.047  1.00  0.00    -0.201 OA
BRANCH  11  14
HETATM   14  N1  UNL     1      -5.940   1.056  18.845  1.00  0.00    -0.324 N 
ATOM     15  H12 UNL     1      -5.366   0.428  19.408  1.00  0.00     0.169 HD
ATOM     16  H11 UNL     1      -6.388   1.908  19.180  1.00  0.00     0.169 HD
ENDBRANCH  11  14
ENDBRANCH   8  11
ENDBRANCH   1   5
BRANCH   3  17
HETATM   17  C6  UNL     1      -2.667   7.171  13.266  1.00  0.00     0.167 C 
BRANCH  17  18
HETATM   18  C7  UNL     1      -1.754   8.089  13.931  1.00  0.00     0.037 A 
HETATM   19  C8  UNL     1      -2.131   8.555  15.194  1.00  0.00     0.127 A 
HETATM   20  F1  UNL     1      -3.321   8.177  15.752  1.00  0.00    -0.205 F 
HETATM   21  C9  UNL     1      -1.329   9.406  15.922  1.00  0.00     0.043 A 
HETATM   22  C10 UNL     1      -0.117   9.834  15.435  1.00  0.00     0.006 A 
HETATM   23  C11 UNL     1       0.272   9.387  14.195  1.00  0.00     0.043 A 
HETATM   24  C12 UNL     1      -0.542   8.523  13.457  1.00  0.00     0.127 A 
HETATM   25  F2  UNL     1      -0.075   8.108  12.266  1.00  0.00    -0.205 F 
ENDBRANCH  17  18
ENDBRANCH   3  17
TORSDOF 5
ENDMDL
