MODEL 15
REMARK VINA RESULT: -7.034717381      3.441      4.642
REMARK  5 active torsions:
REMARK  status: ('A' for Active; 'I' for Inactive)
REMARK    1  A    between atoms: N1_1  and  S1_4 
REMARK    2  A    between atoms: S1_4  and  C1_7 
REMARK    3  A    between atoms: C4_10  and  C5_11 
REMARK       I    between atoms: C5_11  and  N2_13 
REMARK    4  A    between atoms: N2_13  and  C6_15 
REMARK    5  A    between atoms: C6_15  and  C7_16 
ROOT
HETATM    1  C5  UNL     1      -4.515   5.535  13.860  1.00  0.00     0.251 C 
HETATM    2  O3  UNL     1      -5.097   5.809  12.749  1.00  0.00    -0.268 OA
HETATM    3  N2  UNL     1      -3.468   6.420  14.220  1.00  0.00    -0.352 N 
ATOM      4  H2  UNL     1      -2.988   6.243  15.102  1.00  0.00     0.163 HD
ENDROOT
BRANCH   1   5
HETATM    5  C4  UNL     1      -4.924   4.404  14.656  1.00  0.00     0.032 A 
HETATM    6  C3  UNL     1      -4.056   3.355  14.954  1.00  0.00     0.018 A 
HETATM    7  C2  UNL     1      -4.456   2.277  15.718  1.00  0.00     0.026 A 
HETATM    8  C1  UNL     1      -5.741   2.202  16.216  1.00  0.00     0.079 A 
HETATM    9  C14 UNL     1      -6.610   3.225  15.934  1.00  0.00     0.026 A 
HETATM   10  C13 UNL     1      -6.185   4.311  15.157  1.00  0.00     0.018 A 
BRANCH   8  11
HETATM   11  S1  UNL     1      -6.264   0.849  17.182  1.00  0.00     0.256 S 
HETATM   12  O1  UNL     1      -5.599  -0.425  16.744  1.00  0.00    -0.201 OA
HETATM   13  O2  UNL     1      -7.770   0.715  17.047  1.00  0.00    -0.201 OA
BRANCH  11  14
HETATM   14  N1  UNL     1      -5.939   1.166  18.847  1.00  0.00    -0.324 N 
ATOM     15  H12 UNL     1      -5.276   0.630  19.408  1.00  0.00     0.169 HD
ATOM     16  H11 UNL     1      -6.496   1.952  19.180  1.00  0.00     0.169 HD
ENDBRANCH  11  14
ENDBRANCH   8  11
ENDBRANCH   1   5
BRANCH   3  17
HETATM   17  C6  UNL     1      -3.033   7.533  13.451  1.00  0.00     0.167 C 
BRANCH  17  18
HETATM   18  C7  UNL     1      -1.949   8.341  13.991  1.00  0.00     0.037 A 
HETATM   19  C8  UNL     1      -0.843   8.554  13.162  1.00  0.00     0.127 A 
HETATM   20  F1  UNL     1      -0.789   7.997  11.914  1.00  0.00    -0.205 F 
HETATM   21  C9  UNL     1       0.225   9.324  13.563  1.00  0.00     0.043 A 
HETATM   22  C10 UNL     1       0.249   9.921  14.801  1.00  0.00     0.006 A 
HETATM   23  C11 UNL     1      -0.829   9.724  15.631  1.00  0.00     0.043 A 
HETATM   24  C12 UNL     1      -1.913   8.941  15.223  1.00  0.00     0.127 A 
HETATM   25  F2  UNL     1      -2.941   8.823  16.083  1.00  0.00    -0.205 F 
ENDBRANCH  17  18
ENDBRANCH   3  17
TORSDOF 5
ENDMDL
