MODEL 3
REMARK VINA RESULT: -7.839726439      0.188      2.019
REMARK  5 active torsions:
REMARK  status: ('A' for Active; 'I' for Inactive)
REMARK    1  A    between atoms: N1_1  and  S1_4 
REMARK    2  A    between atoms: S1_4  and  C1_7 
REMARK    3  A    between atoms: C4_10  and  C5_11 
REMARK       I    between atoms: C5_11  and  N2_13 
REMARK    4  A    between atoms: N2_13  and  C6_15 
REMARK    5  A    between atoms: C6_15  and  C7_16 
ROOT
HETATM    1  C5  UNL     1      -4.786   5.093  13.085  1.00  0.00     0.251 C 
HETATM    2  O3  UNL     1      -3.823   4.822  12.281  1.00  0.00    -0.268 OA
HETATM    3  N2  UNL     1      -5.450   6.320  12.830  1.00  0.00    -0.352 N 
ATOM      4  H2  UNL     1      -6.230   6.566  13.440  1.00  0.00     0.163 HD
ENDROOT
BRANCH   1   5
HETATM    5  C4  UNL     1      -5.139   4.194  14.155  1.00  0.00     0.032 A 
HETATM    6  C3  UNL     1      -6.263   4.397  14.954  1.00  0.00     0.018 A 
HETATM    7  C2  UNL     1      -6.593   3.529  15.976  1.00  0.00     0.026 A 
HETATM    8  C1  UNL     1      -5.814   2.422  16.243  1.00  0.00     0.079 A 
HETATM    9  C14 UNL     1      -4.703   2.204  15.468  1.00  0.00     0.026 A 
HETATM   10  C13 UNL     1      -4.385   3.097  14.435  1.00  0.00     0.018 A 
BRANCH   8  11
HETATM   11  S1  UNL     1      -6.214   1.316  17.529  1.00  0.00     0.256 S 
HETATM   12  O1  UNL     1      -5.200   0.214  17.638  1.00  0.00    -0.201 OA
HETATM   13  O2  UNL     1      -7.585   0.727  17.248  1.00  0.00    -0.201 OA
BRANCH  11  14
HETATM   14  N1  UNL     1      -6.340   2.180  19.017  1.00  0.00    -0.324 N 
ATOM     15  H12 UNL     1      -6.610   1.751  19.902  1.00  0.00     0.169 HD
ATOM     16  H11 UNL     1      -6.108   3.164  18.884  1.00  0.00     0.169 HD
ENDBRANCH  11  14
ENDBRANCH   8  11
ENDBRANCH   1   5
BRANCH   3  17
HETATM   17  C6  UNL     1      -5.117   7.233  11.794  1.00  0.00     0.167 C 
BRANCH  17  18
HETATM   18  C7  UNL     1      -5.986   7.271  10.627  1.00  0.00     0.037 A 
HETATM   19  C8  UNL     1      -7.119   8.087  10.705  1.00  0.00     0.127 A 
HETATM   20  F1  UNL     1      -7.397   8.788  11.847  1.00  0.00    -0.205 F 
HETATM   21  C9  UNL     1      -7.994   8.217   9.650  1.00  0.00     0.043 A 
HETATM   22  C10 UNL     1      -7.788   7.548   8.467  1.00  0.00     0.006 A 
HETATM   23  C11 UNL     1      -6.679   6.741   8.369  1.00  0.00     0.043 A 
HETATM   24  C12 UNL     1      -5.792   6.610   9.441  1.00  0.00     0.127 A 
HETATM   25  F2  UNL     1      -4.716   5.824   9.254  1.00  0.00    -0.205 F 
ENDBRANCH  17  18
ENDBRANCH   3  17
TORSDOF 5
ENDMDL
