MODEL 1
REMARK VINA RESULT: -8.687256347      0.000      0.000
REMARK  5 active torsions:
REMARK  status: ('A' for Active; 'I' for Inactive)
REMARK    1  A    between atoms: N1_1  and  S1_4 
REMARK    2  A    between atoms: S1_4  and  C1_7 
REMARK    3  A    between atoms: C4_10  and  C5_11 
REMARK       I    between atoms: C5_11  and  N2_13 
REMARK    4  A    between atoms: N2_13  and  C6_15 
REMARK    5  A    between atoms: C6_15  and  C7_16 
ROOT
HETATM    1  C5  UNL     1      -5.916   5.933  13.168  1.00  0.00     0.251 C 
HETATM    2  O3  UNL     1      -7.042   6.464  13.385  1.00  0.00    -0.268 OA
HETATM    3  N2  UNL     1      -4.932   6.485  12.345  1.00  0.00    -0.352 N 
ATOM      4  H2  UNL     1      -4.098   5.904  12.253  1.00  0.00     0.163 HD
ENDROOT
BRANCH   1   5
HETATM    5  C4  UNL     1      -5.741   4.635  13.886  1.00  0.00     0.032 A 
HETATM    6  C3  UNL     1      -5.098   3.616  13.280  1.00  0.00     0.018 A 
HETATM    7  C2  UNL     1      -4.851   2.447  13.914  1.00  0.00     0.026 A 
HETATM    8  C1  UNL     1      -5.292   2.327  15.225  1.00  0.00     0.079 A 
HETATM    9  C14 UNL     1      -5.974   3.335  15.903  1.00  0.00     0.026 A 
HETATM   10  C13 UNL     1      -6.185   4.511  15.188  1.00  0.00     0.018 A 
BRANCH   8  11
HETATM   11  S1  UNL     1      -4.793   0.889  16.120  1.00  0.00     0.256 S 
HETATM   12  O1  UNL     1      -3.401   1.103  16.584  1.00  0.00    -0.201 OA
HETATM   13  O2  UNL     1      -4.797  -0.307  15.170  1.00  0.00    -0.201 OA
BRANCH  11  14
HETATM   14  N1  UNL     1      -5.825   0.628  17.477  1.00  0.00    -0.324 N 
ATOM     15  H12 UNL     1      -6.512  -0.123  17.542  1.00  0.00     0.169 HD
ATOM     16  H11 UNL     1      -5.640   1.334  18.191  1.00  0.00     0.169 HD
ENDBRANCH  11  14
ENDBRANCH   8  11
ENDBRANCH   1   5
BRANCH   3  17
HETATM   17  C6  UNL     1      -4.867   7.704  11.607  1.00  0.00     0.168 C 
BRANCH  17  18
HETATM   18  C7  UNL     1      -5.840   7.865  10.535  1.00  0.00     0.043 A 
HETATM   19  C8  UNL     1      -6.379   9.147  10.318  1.00  0.00     0.169 A 
HETATM   20  F1  UNL     1      -5.888  10.160  11.019  1.00  0.00    -0.202 F 
HETATM   21  C9  UNL     1      -7.355   9.283   9.394  1.00  0.00     0.197 A 
HETATM   22  F2  UNL     1      -7.859  10.564   9.189  1.00  0.00    -0.199 F 
HETATM   23  C10 UNL     1      -7.825   8.221   8.686  1.00  0.00     0.199 A 
HETATM   24  F3  UNL     1      -8.820   8.458   7.767  1.00  0.00    -0.199 F 
HETATM   25  C11 UNL     1      -7.311   6.939   8.886  1.00  0.00     0.197 A 
HETATM   26  F4  UNL     1      -7.753   5.900   8.209  1.00  0.00    -0.199 F 
HETATM   27  C12 UNL     1      -6.300   6.774   9.835  1.00  0.00     0.169 A 
HETATM   28  F5  UNL     1      -5.889   5.471  10.104  1.00  0.00    -0.202 F 
ENDBRANCH  17  18
ENDBRANCH   3  17
TORSDOF 5
ENDMDL
