MODEL 2
REMARK VINA RESULT: -8.515416661      1.284      1.313
REMARK  5 active torsions:
REMARK  status: ('A' for Active; 'I' for Inactive)
REMARK    1  A    between atoms: N1_1  and  S1_4 
REMARK    2  A    between atoms: S1_4  and  C1_7 
REMARK    3  A    between atoms: C4_10  and  C5_11 
REMARK       I    between atoms: C5_11  and  N2_13 
REMARK    4  A    between atoms: N2_13  and  C6_15 
REMARK    5  A    between atoms: C6_15  and  C7_16 
ROOT
HETATM    1  C5  UNL     1      -4.424   6.158  13.813  1.00  0.00     0.251 C 
HETATM    2  O3  UNL     1      -3.409   6.714  14.322  1.00  0.00    -0.268 OA
HETATM    3  N2  UNL     1      -5.055   6.592  12.645  1.00  0.00    -0.352 N 
ATOM      4  H2  UNL     1      -5.883   6.049  12.398  1.00  0.00     0.163 HD
ENDROOT
BRANCH   1   5
HETATM    5  C4  UNL     1      -4.891   4.977  14.599  1.00  0.00     0.032 A 
HETATM    6  C3  UNL     1      -4.301   3.777  14.418  1.00  0.00     0.018 A 
HETATM    7  C2  UNL     1      -4.638   2.695  15.155  1.00  0.00     0.026 A 
HETATM    8  C1  UNL     1      -5.628   2.861  16.114  1.00  0.00     0.079 A 
HETATM    9  C14 UNL     1      -6.286   4.068  16.342  1.00  0.00     0.026 A 
HETATM   10  C13 UNL     1      -5.881   5.138  15.548  1.00  0.00     0.018 A 
BRANCH   8  11
HETATM   11  S1  UNL     1      -5.924   1.512  17.215  1.00  0.00     0.256 S 
HETATM   12  O1  UNL     1      -4.724   0.641  17.202  1.00  0.00    -0.201 OA
HETATM   13  O2  UNL     1      -7.106   0.700  16.689  1.00  0.00    -0.201 OA
BRANCH  11  14
HETATM   14  N1  UNL     1      -6.209   2.085  18.818  1.00  0.00    -0.324 N 
ATOM     15  H12 UNL     1      -6.052   1.535  19.662  1.00  0.00     0.169 HD
ATOM     16  H11 UNL     1      -6.551   3.045  18.783  1.00  0.00     0.169 HD
ENDBRANCH  11  14
ENDBRANCH   8  11
ENDBRANCH   1   5
BRANCH   3  17
HETATM   17  C6  UNL     1      -4.766   7.649  11.731  1.00  0.00     0.168 C 
BRANCH  17  18
HETATM   18  C7  UNL     1      -5.728   7.857  10.657  1.00  0.00     0.043 A 
HETATM   19  C8  UNL     1      -6.161   9.173  10.402  1.00  0.00     0.169 A 
HETATM   20  F1  UNL     1      -5.584  10.162  11.072  1.00  0.00    -0.202 F 
HETATM   21  C9  UNL     1      -7.126   9.360   9.476  1.00  0.00     0.197 A 
HETATM   22  F2  UNL     1      -7.524  10.672   9.234  1.00  0.00    -0.199 F 
HETATM   23  C10 UNL     1      -7.685   8.321   8.802  1.00  0.00     0.199 A 
HETATM   24  F3  UNL     1      -8.661   8.611   7.879  1.00  0.00    -0.199 F 
HETATM   25  C11 UNL     1      -7.278   7.007   9.040  1.00  0.00     0.197 A 
HETATM   26  F4  UNL     1      -7.807   5.988   8.396  1.00  0.00    -0.199 F 
HETATM   27  C12 UNL     1      -6.280   6.788   9.991  1.00  0.00     0.169 A 
HETATM   28  F5  UNL     1      -5.976   5.464  10.298  1.00  0.00    -0.202 F 
ENDBRANCH  17  18
ENDBRANCH   3  17
TORSDOF 5
ENDMDL
