MODEL 3
REMARK VINA RESULT: -8.495437815      5.906      8.695
REMARK  5 active torsions:
REMARK  status: ('A' for Active; 'I' for Inactive)
REMARK    1  A    between atoms: N1_1  and  S1_4 
REMARK    2  A    between atoms: S1_4  and  C1_7 
REMARK    3  A    between atoms: C4_10  and  C5_11 
REMARK       I    between atoms: C5_11  and  N2_13 
REMARK    4  A    between atoms: N2_13  and  C6_15 
REMARK    5  A    between atoms: C6_15  and  C7_16 
ROOT
HETATM    1  C5  UNL     1      -2.925   2.536  11.465  1.00  0.00     0.251 C 
HETATM    2  O3  UNL     1      -3.621   2.280  10.441  1.00  0.00    -0.268 OA
HETATM    3  N2  UNL     1      -3.305   2.224  12.772  1.00  0.00    -0.352 N 
ATOM      4  H2  UNL     1      -2.640   2.536  13.480  1.00  0.00     0.163 HD
ENDROOT
BRANCH   1   5
HETATM    5  C4  UNL     1      -1.639   3.219  11.133  1.00  0.00     0.032 A 
HETATM    6  C3  UNL     1      -0.913   3.793  12.114  1.00  0.00     0.018 A 
HETATM    7  C2  UNL     1       0.291   4.360  11.876  1.00  0.00     0.026 A 
HETATM    8  C1  UNL     1       0.760   4.336  10.570  1.00  0.00     0.079 A 
HETATM    9  C14 UNL     1       0.054   3.773   9.508  1.00  0.00     0.026 A 
HETATM   10  C13 UNL     1      -1.174   3.203   9.832  1.00  0.00     0.018 A 
BRANCH   8  11
HETATM   11  S1  UNL     1       2.415   4.887  10.291  1.00  0.00     0.256 S 
HETATM   12  O1  UNL     1       3.082   3.896   9.413  1.00  0.00    -0.201 OA
HETATM   13  O2  UNL     1       3.155   4.912  11.627  1.00  0.00    -0.201 OA
BRANCH  11  14
HETATM   14  N1  UNL     1       2.421   6.436   9.530  1.00  0.00    -0.324 N 
ATOM     15  H12 UNL     1       3.013   6.685   8.738  1.00  0.00     0.169 HD
ATOM     16  H11 UNL     1       1.749   7.048   9.992  1.00  0.00     0.169 HD
ENDBRANCH  11  14
ENDBRANCH   8  11
ENDBRANCH   1   5
BRANCH   3  17
HETATM   17  C6  UNL     1      -4.444   1.554  13.309  1.00  0.00     0.168 C 
BRANCH  17  18
HETATM   18  C7  UNL     1      -4.889   1.986  14.627  1.00  0.00     0.043 A 
HETATM   19  C8  UNL     1      -4.952   1.023  15.652  1.00  0.00     0.169 A 
HETATM   20  F1  UNL     1      -4.495  -0.195  15.396  1.00  0.00    -0.202 F 
HETATM   21  C9  UNL     1      -5.458   1.395  16.848  1.00  0.00     0.197 A 
HETATM   22  F2  UNL     1      -5.495   0.428  17.848  1.00  0.00    -0.199 F 
HETATM   23  C10 UNL     1      -5.906   2.658  17.075  1.00  0.00     0.199 A 
HETATM   24  F3  UNL     1      -6.404   2.942  18.325  1.00  0.00    -0.199 F 
HETATM   25  C11 UNL     1      -5.860   3.630  16.075  1.00  0.00     0.197 A 
HETATM   26  F4  UNL     1      -6.288   4.857  16.277  1.00  0.00    -0.199 F 
HETATM   27  C12 UNL     1      -5.339   3.269  14.830  1.00  0.00     0.169 A 
HETATM   28  F5  UNL     1      -5.414   4.218  13.813  1.00  0.00    -0.202 F 
ENDBRANCH  17  18
ENDBRANCH   3  17
TORSDOF 5
ENDMDL
