MODEL 4
REMARK VINA RESULT: -5.742084550      2.018      5.118
REMARK  15 active torsions:
REMARK  status: ('A' for Active; 'I' for Inactive)
REMARK    1  A    between atoms: C2_2  and  C3_3 
REMARK    2  A    between atoms: C3_3  and  C4_4 
REMARK    3  A    between atoms: C4_4  and  C5_5 
REMARK    4  A    between atoms: C5_5  and  C6_6 
REMARK    5  A    between atoms: C6_6  and  C7_7 
REMARK    6  A    between atoms: C7_7  and  C8_8 
REMARK    7  A    between atoms: C8_8  and  C9_9 
REMARK    8  A    between atoms: C10_10  and  C11_11 
REMARK    9  A    between atoms: C11_11  and  C12_12 
REMARK   10  A    between atoms: C12_12  and  C13_13 
REMARK   11  A    between atoms: C13_13  and  C14_14 
REMARK   12  A    between atoms: C14_14  and  C15_15 
REMARK   13  A    between atoms: C15_15  and  C16_16 
REMARK   14  A    between atoms: C16_16  and  C17_17 
REMARK   15  A    between atoms: C17_17  and  C18_18 
ROOT
HETATM    1  C9  UNL     1     -44.497  73.005  -8.663  1.00  0.00    -0.031 C 
HETATM    2  C10 UNL     1     -43.924  72.187  -9.498  1.00  0.00    -0.031 C 
ENDROOT
BRANCH   2   3
HETATM    3  C11 UNL     1     -44.517  70.969 -10.026  1.00  0.00     0.027 C 
BRANCH   3   4
HETATM    4  C12 UNL     1     -43.804  69.798  -9.318  1.00  0.00     0.007 C 
BRANCH   4   5
HETATM    5  C13 UNL     1     -44.744  68.714  -8.990  1.00  0.00     0.027 C 
BRANCH   5   6
HETATM    6  C14 UNL     1     -46.148  69.106  -8.860  1.00  0.00    -0.031 C 
BRANCH   6   7
HETATM    7  C15 UNL     1     -47.181  68.253  -8.278  1.00  0.00    -0.030 C 
BRANCH   7   8
HETATM    8  C16 UNL     1     -47.742  67.097  -8.989  1.00  0.00     0.037 C 
BRANCH   8   9
HETATM    9  C17 UNL     1     -48.524  67.620 -10.211  1.00  0.00     0.117 C 
BRANCH   9  10
HETATM   10  C18 UNL     1     -48.008  67.142 -11.493  1.00  0.00     0.172 C 
HETATM   11  O1  UNL     1     -46.793  67.085 -11.749  1.00  0.00    -0.648 OA
HETATM   12  O2  UNL     1     -48.919  66.728 -12.476  1.00  0.00    -0.648 OA
ENDBRANCH   9  10
ENDBRANCH   8   9
ENDBRANCH   7   8
ENDBRANCH   6   7
ENDBRANCH   5   6
ENDBRANCH   4   5
ENDBRANCH   3   4
ENDBRANCH   2   3
BRANCH   1  13
HETATM   13  C8  UNL     1     -45.858  72.794  -8.133  1.00  0.00     0.027 C 
BRANCH  13  14
HETATM   14  C7  UNL     1     -45.714  72.639  -6.615  1.00  0.00     0.004 C 
BRANCH  14  15
HETATM   15  C6  UNL     1     -46.656  71.577  -6.153  1.00  0.00     0.000 C 
BRANCH  15  16
HETATM   16  C5  UNL     1     -45.983  70.475  -5.369  1.00  0.00     0.000 C 
BRANCH  16  17
HETATM   17  C4  UNL     1     -44.512  70.401  -5.626  1.00  0.00     0.000 C 
BRANCH  17  18
HETATM   18  C3  UNL     1     -43.957  69.019  -5.313  1.00  0.00    -0.000 C 
BRANCH  18  19
HETATM   19  C2  UNL     1     -45.066  68.031  -5.166  1.00  0.00    -0.005 C 
HETATM   20  C1  UNL     1     -44.544  66.671  -5.633  1.00  0.00     0.005 C 
ENDBRANCH  18  19
ENDBRANCH  17  18
ENDBRANCH  16  17
ENDBRANCH  15  16
ENDBRANCH  14  15
ENDBRANCH  13  14
ENDBRANCH   1  13
TORSDOF 15
ENDMDL
