MODEL 3
REMARK VINA RESULT: -6.589226636      2.458      9.656
REMARK  16 active torsions:
REMARK  status: ('A' for Active; 'I' for Inactive)
REMARK    1  A    between atoms: C2_2  and  C3_3 
REMARK    2  A    between atoms: C3_3  and  C4_4 
REMARK    3  A    between atoms: C4_4  and  C5_5 
REMARK    4  A    between atoms: C5_5  and  N1_6 
REMARK       I    between atoms: N1_6  and  C6_8 
REMARK    5  A    between atoms: C6_8  and  C7_10 
REMARK    6  A    between atoms: C7_10  and  C8_11 
REMARK    7  A    between atoms: C7_10  and  N2_26 
REMARK    8  A    between atoms: C8_11  and  C9_12 
REMARK    9  A    between atoms: C12_15  and  O2_16 
REMARK   10  A    between atoms: O2_16  and  C13_17 
REMARK   11  A    between atoms: C13_17  and  C14_18 
REMARK   12  A    between atoms: C13_17  and  C15_21 
REMARK       I    between atoms: N2_26  and  C18_28 
REMARK       I    between atoms: C18_28  and  N3_30 
REMARK   13  A    between atoms: N3_30  and  C19_32 
REMARK   14  A    between atoms: C19_32  and  C20_33 
REMARK   15  A    between atoms: C19_32  and  C27_40 
REMARK   16  A    between atoms: C20_33  and  C21_34 
ROOT
HETATM    1  C7  UNL     1      10.707  17.977   7.535  1.00  0.00     0.182 C 
ENDROOT
BRANCH   1   2
HETATM    2  C6  UNL     1      10.813  19.422   7.842  1.00  0.00     0.240 C 
HETATM    3  N1  UNL     1      12.033  20.115   8.029  1.00  0.00    -0.359 N 
ATOM      4  H1  UNL     1      12.902  19.588   7.945  1.00  0.00     0.162 HD
HETATM    5  O1  UNL     1       9.756  20.095   7.950  1.00  0.00    -0.271 OA
BRANCH   3   6
HETATM    6  C5  UNL     1      12.122  21.526   8.332  1.00  0.00     0.122 C 
BRANCH   6   7
HETATM    7  C4  UNL     1      13.210  21.824   9.344  1.00  0.00     0.020 C 
BRANCH   7   8
HETATM    8  C3  UNL     1      13.317  20.600  10.229  1.00  0.00     0.001 C 
BRANCH   8   9
HETATM    9  C2  UNL     1      14.532  20.664  11.127  1.00  0.00    -0.004 C 
HETATM   10  C1  UNL     1      14.050  21.087  12.498  1.00  0.00     0.005 C 
ENDBRANCH   8   9
ENDBRANCH   7   8
ENDBRANCH   6   7
ENDBRANCH   3   6
ENDBRANCH   1   2
BRANCH   1  11
HETATM   11  C8  UNL     1      10.353  17.167   8.763  1.00  0.00     0.073 C 
BRANCH  11  12
HETATM   12  C9  UNL     1      11.291  17.264   9.870  1.00  0.00    -0.056 A 
HETATM   13  C10 UNL     1      10.890  17.735  11.100  1.00  0.00     0.010 A 
HETATM   14  C11 UNL     1      11.768  17.835  12.160  1.00  0.00     0.037 A 
HETATM   15  C12 UNL     1      13.115  17.460  12.032  1.00  0.00     0.070 A 
HETATM   16  C16 UNL     1      13.512  16.990  10.803  1.00  0.00     0.037 A 
HETATM   17  C17 UNL     1      12.597  16.900   9.747  1.00  0.00     0.010 A 
BRANCH  15  18
HETATM   18  O2  UNL     1      13.949  17.582  13.127  1.00  0.00    -0.324 OA
BRANCH  18  19
HETATM   19  C13 UNL     1      15.104  16.880  13.389  1.00  0.00     0.329 C 
BRANCH  19  20
HETATM   20  C14 UNL     1      14.798  15.639  14.158  1.00  0.00     0.214 C 
HETATM   21  O3  UNL     1      14.298  14.647  13.559  1.00  0.00    -0.646 OA
HETATM   22  O4  UNL     1      15.068  15.603  15.505  1.00  0.00    -0.646 OA
ENDBRANCH  19  20
BRANCH  19  23
HETATM   23  C15 UNL     1      16.037  17.759  14.144  1.00  0.00     0.214 C 
HETATM   24  O5  UNL     1      17.277  17.557  14.078  1.00  0.00    -0.646 OA
HETATM   25  O6  UNL     1      15.598  18.807  14.931  1.00  0.00    -0.646 OA
ENDBRANCH  19  23
ENDBRANCH  18  19
ENDBRANCH  15  18
ENDBRANCH  11  12
ENDBRANCH   1  11
BRANCH   1  26
HETATM   26  N2  UNL     1      11.895  17.468   6.886  1.00  0.00    -0.330 N 
HETATM   27  C18 UNL     1      11.998  17.284   5.486  1.00  0.00     0.317 C 
HETATM   28  O7  UNL     1      11.011  17.578   4.764  1.00  0.00    -0.247 OA
HETATM   29  N3  UNL     1      13.150  16.789   4.839  1.00  0.00    -0.328 N 
ATOM     30  H3  UNL     1      13.970  16.540   5.392  1.00  0.00     0.165 HD
ATOM     31  H2  UNL     1      12.699  17.229   7.467  1.00  0.00     0.165 HD
BRANCH  29  32
HETATM   32  C19 UNL     1      13.184  16.626   3.368  1.00  0.00     0.191 C 
BRANCH  32  33
HETATM   33  C20 UNL     1      14.615  16.617   2.907  1.00  0.00     0.074 C 
BRANCH  33  34
HETATM   34  C21 UNL     1      14.694  16.884   1.467  1.00  0.00    -0.056 A 
HETATM   35  C22 UNL     1      15.494  16.114   0.662  1.00  0.00     0.007 A 
HETATM   36  C23 UNL     1      15.565  16.327  -0.715  1.00  0.00     0.001 A 
HETATM   37  C24 UNL     1      14.818  17.328  -1.275  1.00  0.00     0.000 A 
HETATM   38  C25 UNL     1      14.012  18.106  -0.478  1.00  0.00     0.001 A 
HETATM   39  C26 UNL     1      13.949  17.885   0.897  1.00  0.00     0.007 A 
ENDBRANCH  33  34
ENDBRANCH  32  33
BRANCH  32  40
HETATM   40  C27 UNL     1      12.558  15.323   3.063  1.00  0.00     0.197 C 
HETATM   41  O8  UNL     1      12.925  14.253   3.624  1.00  0.00    -0.646 OA
HETATM   42  O9  UNL     1      11.531  15.232   2.141  1.00  0.00    -0.646 OA
ENDBRANCH  32  40
ENDBRANCH  29  32
ENDBRANCH   1  26
TORSDOF 16
ENDMDL
