MODEL 1
REMARK VINA RESULT: -6.809109502      0.000      0.000
REMARK  16 active torsions:
REMARK  status: ('A' for Active; 'I' for Inactive)
REMARK    1  A    between atoms: C2_2  and  C3_3 
REMARK    2  A    between atoms: C3_3  and  C4_4 
REMARK    3  A    between atoms: C4_4  and  C5_5 
REMARK    4  A    between atoms: C5_5  and  N1_6 
REMARK       I    between atoms: N1_6  and  C6_8 
REMARK    5  A    between atoms: C6_8  and  C7_10 
REMARK    6  A    between atoms: C7_10  and  C8_11 
REMARK    7  A    between atoms: C7_10  and  N2_26 
REMARK    8  A    between atoms: C8_11  and  C9_12 
REMARK    9  A    between atoms: C12_15  and  O2_16 
REMARK   10  A    between atoms: O2_16  and  C13_17 
REMARK   11  A    between atoms: C13_17  and  C14_18 
REMARK   12  A    between atoms: C13_17  and  C15_21 
REMARK       I    between atoms: N2_26  and  C18_28 
REMARK       I    between atoms: C18_28  and  N3_30 
REMARK   13  A    between atoms: N3_30  and  C19_32 
REMARK   14  A    between atoms: C19_32  and  C20_33 
REMARK   15  A    between atoms: C19_32  and  C27_40 
REMARK   16  A    between atoms: C20_33  and  C21_34 
ROOT
HETATM    1  C7  UNL     1      11.778  18.903   8.994  1.00  0.00     0.182 C 
ENDROOT
BRANCH   1   2
HETATM    2  C6  UNL     1      11.233  20.077   9.713  1.00  0.00     0.240 C 
HETATM    3  N1  UNL     1      12.019  21.113  10.272  1.00  0.00    -0.359 N 
ATOM      4  H1  UNL     1      13.032  21.052  10.173  1.00  0.00     0.162 HD
HETATM    5  O1  UNL     1       9.986  20.176   9.848  1.00  0.00    -0.271 OA
BRANCH   3   6
HETATM    6  C5  UNL     1      11.473  22.253  10.974  1.00  0.00     0.122 C 
BRANCH   6   7
HETATM    7  C4  UNL     1      12.147  22.473  12.313  1.00  0.00     0.020 C 
BRANCH   7   8
HETATM    8  C3  UNL     1      12.322  21.103  12.933  1.00  0.00     0.001 C 
BRANCH   8   9
HETATM    9  C2  UNL     1      11.117  20.702  13.755  1.00  0.00    -0.004 C 
HETATM   10  C1  UNL     1      10.744  19.295  13.339  1.00  0.00     0.005 C 
ENDBRANCH   8   9
ENDBRANCH   7   8
ENDBRANCH   6   7
ENDBRANCH   3   6
ENDBRANCH   1   2
BRANCH   1  11
HETATM   11  C8  UNL     1      10.887  18.485   7.845  1.00  0.00     0.073 C 
BRANCH  11  12
HETATM   12  C9  UNL     1      11.571  18.187   6.597  1.00  0.00    -0.056 A 
HETATM   13  C10 UNL     1      11.737  16.888   6.173  1.00  0.00     0.010 A 
HETATM   14  C11 UNL     1      12.386  16.587   4.992  1.00  0.00     0.037 A 
HETATM   15  C12 UNL     1      12.908  17.595   4.167  1.00  0.00     0.070 A 
HETATM   16  C16 UNL     1      12.740  18.892   4.593  1.00  0.00     0.037 A 
HETATM   17  C17 UNL     1      12.077  19.165   5.796  1.00  0.00     0.010 A 
BRANCH  15  18
HETATM   18  O2  UNL     1      13.548  17.236   2.997  1.00  0.00    -0.324 OA
BRANCH  18  19
HETATM   19  C13 UNL     1      14.279  16.096   2.751  1.00  0.00     0.329 C 
BRANCH  19  20
HETATM   20  C14 UNL     1      15.740  16.379   2.850  1.00  0.00     0.214 C 
HETATM   21  O3  UNL     1      16.458  16.296   1.817  1.00  0.00    -0.646 OA
HETATM   22  O4  UNL     1      16.273  16.726   4.069  1.00  0.00    -0.646 OA
ENDBRANCH  19  20
BRANCH  19  23
HETATM   23  C15 UNL     1      13.925  15.584   1.400  1.00  0.00     0.214 C 
HETATM   24  O5  UNL     1      13.517  16.380   0.516  1.00  0.00    -0.646 OA
HETATM   25  O6  UNL     1      14.025  14.247   1.063  1.00  0.00    -0.646 OA
ENDBRANCH  19  23
ENDBRANCH  18  19
ENDBRANCH  15  18
ENDBRANCH  11  12
ENDBRANCH   1  11
BRANCH   1  26
HETATM   26  N2  UNL     1      12.051  17.796   9.885  1.00  0.00    -0.330 N 
HETATM   27  C18 UNL     1      13.102  17.803  10.833  1.00  0.00     0.317 C 
HETATM   28  O7  UNL     1      13.839  18.819  10.911  1.00  0.00    -0.247 OA
HETATM   29  N3  UNL     1      13.381  16.731  11.709  1.00  0.00    -0.328 N 
ATOM     30  H3  UNL     1      12.805  15.890  11.674  1.00  0.00     0.165 HD
ATOM     31  H2  UNL     1      11.456  16.969   9.826  1.00  0.00     0.165 HD
BRANCH  29  32
HETATM   32  C19 UNL     1      14.498  16.811  12.676  1.00  0.00     0.191 C 
BRANCH  32  33
HETATM   33  C20 UNL     1      13.944  16.745  14.072  1.00  0.00     0.074 C 
BRANCH  33  34
HETATM   34  C21 UNL     1      14.094  18.038  14.748  1.00  0.00    -0.056 A 
HETATM   35  C22 UNL     1      13.303  18.354  15.823  1.00  0.00     0.007 A 
HETATM   36  C23 UNL     1      13.445  19.563  16.504  1.00  0.00     0.001 A 
HETATM   37  C24 UNL     1      14.396  20.455  16.088  1.00  0.00     0.000 A 
HETATM   38  C25 UNL     1      15.196  20.150  15.012  1.00  0.00     0.001 A 
HETATM   39  C26 UNL     1      15.045  18.938  14.339  1.00  0.00     0.007 A 
ENDBRANCH  33  34
ENDBRANCH  32  33
BRANCH  32  40
HETATM   40  C27 UNL     1      15.366  15.642  12.432  1.00  0.00     0.197 C 
HETATM   41  O8  UNL     1      15.072  14.751  11.586  1.00  0.00    -0.646 OA
HETATM   42  O9  UNL     1      16.550  15.484  13.130  1.00  0.00    -0.646 OA
ENDBRANCH  32  40
ENDBRANCH  29  32
ENDBRANCH   1  26
TORSDOF 16
ENDMDL
