MODEL 2
REMARK VINA RESULT: -6.624168251      1.058      1.659
REMARK  16 active torsions:
REMARK  status: ('A' for Active; 'I' for Inactive)
REMARK    1  A    between atoms: C2_2  and  C3_3 
REMARK    2  A    between atoms: C3_3  and  C4_4 
REMARK    3  A    between atoms: C4_4  and  C5_5 
REMARK    4  A    between atoms: C5_5  and  N1_6 
REMARK       I    between atoms: N1_6  and  C6_8 
REMARK    5  A    between atoms: C6_8  and  C7_10 
REMARK    6  A    between atoms: C7_10  and  C8_11 
REMARK    7  A    between atoms: C7_10  and  N2_26 
REMARK    8  A    between atoms: C8_11  and  C9_12 
REMARK    9  A    between atoms: C12_15  and  O2_16 
REMARK   10  A    between atoms: O2_16  and  C13_17 
REMARK   11  A    between atoms: C13_17  and  C14_18 
REMARK   12  A    between atoms: C13_17  and  C15_21 
REMARK       I    between atoms: N2_26  and  C18_28 
REMARK       I    between atoms: C18_28  and  N3_30 
REMARK   13  A    between atoms: N3_30  and  C19_32 
REMARK   14  A    between atoms: C19_32  and  C20_33 
REMARK   15  A    between atoms: C19_32  and  C27_40 
REMARK   16  A    between atoms: C20_33  and  C21_34 
ROOT
HETATM    1  C7  UNL     1      11.542  18.287   8.780  1.00  0.00     0.182 C 
ENDROOT
BRANCH   1   2
HETATM    2  C6  UNL     1      10.704  19.353   9.377  1.00  0.00     0.240 C 
HETATM    3  N1  UNL     1       9.797  19.158  10.446  1.00  0.00    -0.359 N 
ATOM      4  H1  UNL     1       9.713  18.220  10.838  1.00  0.00     0.162 HD
HETATM    5  O1  UNL     1      10.789  20.519   8.912  1.00  0.00    -0.271 OA
BRANCH   3   6
HETATM    6  C5  UNL     1       8.983  20.208  11.017  1.00  0.00     0.122 C 
BRANCH   6   7
HETATM    7  C4  UNL     1       9.040  20.212  12.532  1.00  0.00     0.020 C 
BRANCH   7   8
HETATM    8  C3  UNL     1      10.354  19.565  12.912  1.00  0.00     0.001 C 
BRANCH   8   9
HETATM    9  C2  UNL     1      11.257  20.526  13.653  1.00  0.00    -0.004 C 
HETATM   10  C1  UNL     1      12.230  21.092  12.641  1.00  0.00     0.005 C 
ENDBRANCH   8   9
ENDBRANCH   7   8
ENDBRANCH   6   7
ENDBRANCH   3   6
ENDBRANCH   1   2
BRANCH   1  11
HETATM   11  C8  UNL     1      10.884  17.673   7.563  1.00  0.00     0.073 C 
BRANCH  11  12
HETATM   12  C9  UNL     1      11.670  17.711   6.340  1.00  0.00    -0.056 A 
HETATM   13  C10 UNL     1      12.092  18.908   5.806  1.00  0.00     0.010 A 
HETATM   14  C11 UNL     1      12.836  18.962   4.645  1.00  0.00     0.037 A 
HETATM   15  C12 UNL     1      13.199  17.796   3.954  1.00  0.00     0.070 A 
HETATM   16  C16 UNL     1      12.777  16.602   4.489  1.00  0.00     0.037 A 
HETATM   17  C17 UNL     1      12.022  16.580   5.669  1.00  0.00     0.010 A 
BRANCH  15  18
HETATM   18  O2  UNL     1      13.945  17.909   2.796  1.00  0.00    -0.324 OA
BRANCH  18  19
HETATM   19  C13 UNL     1      14.125  16.963   1.813  1.00  0.00     0.329 C 
BRANCH  19  20
HETATM   20  C14 UNL     1      15.536  16.480   1.805  1.00  0.00     0.214 C 
HETATM   21  O3  UNL     1      16.028  16.024   0.736  1.00  0.00    -0.646 OA
HETATM   22  O4  UNL     1      16.272  16.543   2.964  1.00  0.00    -0.646 OA
ENDBRANCH  19  20
BRANCH  19  23
HETATM   23  C15 UNL     1      13.757  17.559   0.501  1.00  0.00     0.214 C 
HETATM   24  O5  UNL     1      12.995  16.933  -0.279  1.00  0.00    -0.646 OA
HETATM   25  O6  UNL     1      14.222  18.794   0.090  1.00  0.00    -0.646 OA
ENDBRANCH  19  23
ENDBRANCH  18  19
ENDBRANCH  15  18
ENDBRANCH  11  12
ENDBRANCH   1  11
BRANCH   1  26
HETATM   26  N2  UNL     1      11.915  17.280   9.749  1.00  0.00    -0.330 N 
HETATM   27  C18 UNL     1      12.949  17.462  10.699  1.00  0.00     0.317 C 
HETATM   28  O7  UNL     1      13.577  18.551  10.708  1.00  0.00    -0.247 OA
HETATM   29  N3  UNL     1      13.324  16.489  11.650  1.00  0.00    -0.328 N 
ATOM     30  H3  UNL     1      12.838  15.594  11.673  1.00  0.00     0.165 HD
ATOM     31  H2  UNL     1      11.408  16.394   9.747  1.00  0.00     0.165 HD
BRANCH  29  32
HETATM   32  C19 UNL     1      14.416  16.752  12.615  1.00  0.00     0.191 C 
BRANCH  32  33
HETATM   33  C20 UNL     1      13.858  16.715  14.010  1.00  0.00     0.074 C 
BRANCH  33  34
HETATM   34  C21 UNL     1      14.023  18.017  14.666  1.00  0.00    -0.056 A 
HETATM   35  C22 UNL     1      13.299  18.324  15.789  1.00  0.00     0.007 A 
HETATM   36  C23 UNL     1      13.458  19.542  16.451  1.00  0.00     0.001 A 
HETATM   37  C24 UNL     1      14.359  20.451  15.966  1.00  0.00     0.000 A 
HETATM   38  C25 UNL     1      15.092  20.155  14.841  1.00  0.00     0.001 A 
HETATM   39  C26 UNL     1      14.924  18.934  14.188  1.00  0.00     0.007 A 
ENDBRANCH  33  34
ENDBRANCH  32  33
BRANCH  32  40
HETATM   40  C27 UNL     1      15.408  15.670  12.450  1.00  0.00     0.197 C 
HETATM   41  O8  UNL     1      15.198  14.672  11.705  1.00  0.00    -0.646 OA
HETATM   42  O9  UNL     1      16.621  15.719  13.114  1.00  0.00    -0.646 OA
ENDBRANCH  32  40
ENDBRANCH  29  32
ENDBRANCH   1  26
TORSDOF 16
ENDMDL
