MODEL 20
REMARK VINA RESULT: -6.219606404      4.363     10.205
REMARK  16 active torsions:
REMARK  status: ('A' for Active; 'I' for Inactive)
REMARK    1  A    between atoms: C2_2  and  C3_3 
REMARK    2  A    between atoms: C3_3  and  C4_4 
REMARK    3  A    between atoms: C4_4  and  C5_5 
REMARK    4  A    between atoms: C5_5  and  N1_6 
REMARK       I    between atoms: N1_6  and  C6_8 
REMARK    5  A    between atoms: C6_8  and  C7_10 
REMARK    6  A    between atoms: C7_10  and  C8_11 
REMARK    7  A    between atoms: C7_10  and  N2_26 
REMARK    8  A    between atoms: C8_11  and  C9_12 
REMARK    9  A    between atoms: C12_15  and  O2_16 
REMARK   10  A    between atoms: O2_16  and  C13_17 
REMARK   11  A    between atoms: C13_17  and  C14_18 
REMARK   12  A    between atoms: C13_17  and  C15_21 
REMARK       I    between atoms: N2_26  and  C18_28 
REMARK       I    between atoms: C18_28  and  N3_30 
REMARK   13  A    between atoms: N3_30  and  C19_32 
REMARK   14  A    between atoms: C19_32  and  C20_33 
REMARK   15  A    between atoms: C19_32  and  C27_40 
REMARK   16  A    between atoms: C20_33  and  C21_34 
ROOT
HETATM    1  C7  UNL     1       9.397  18.771   9.212  1.00  0.00     0.182 C 
ENDROOT
BRANCH   1   2
HETATM    2  C6  UNL     1      10.289  19.527   8.302  1.00  0.00     0.240 C 
HETATM    3  N1  UNL     1      10.746  19.054   7.049  1.00  0.00    -0.359 N 
ATOM      4  H1  UNL     1      10.440  18.129   6.746  1.00  0.00     0.162 HD
HETATM    5  O1  UNL     1      10.680  20.670   8.654  1.00  0.00    -0.271 OA
BRANCH   3   6
HETATM    6  C5  UNL     1      11.619  19.802   6.173  1.00  0.00     0.122 C 
BRANCH   6   7
HETATM    7  C4  UNL     1      12.266  18.919   5.125  1.00  0.00     0.020 C 
BRANCH   7   8
HETATM    8  C3  UNL     1      11.768  17.513   5.383  1.00  0.00     0.001 C 
BRANCH   8   9
HETATM    9  C2  UNL     1      12.542  16.488   4.585  1.00  0.00    -0.004 C 
HETATM   10  C1  UNL     1      13.549  17.247   3.746  1.00  0.00     0.005 C 
ENDBRANCH   8   9
ENDBRANCH   7   8
ENDBRANCH   6   7
ENDBRANCH   3   6
ENDBRANCH   1   2
BRANCH   1  11
HETATM   11  C8  UNL     1      10.007  17.449   9.624  1.00  0.00     0.073 C 
BRANCH  11  12
HETATM   12  C9  UNL     1      11.138  17.537  10.534  1.00  0.00    -0.056 A 
HETATM   13  C10 UNL     1      10.971  17.961  11.834  1.00  0.00     0.010 A 
HETATM   14  C11 UNL     1      12.033  18.053  12.709  1.00  0.00     0.037 A 
HETATM   15  C12 UNL     1      13.337  17.717  12.315  1.00  0.00     0.070 A 
HETATM   16  C16 UNL     1      13.502  17.294  11.017  1.00  0.00     0.037 A 
HETATM   17  C17 UNL     1      12.403  17.211  10.152  1.00  0.00     0.010 A 
BRANCH  15  18
HETATM   18  O2  UNL     1      14.364  17.828  13.233  1.00  0.00    -0.324 OA
BRANCH  18  19
HETATM   19  C13 UNL     1      15.059  16.811  13.848  1.00  0.00     0.329 C 
BRANCH  19  20
HETATM   20  C14 UNL     1      14.610  16.651  15.261  1.00  0.00     0.214 C 
HETATM   21  O3  UNL     1      13.889  17.542  15.787  1.00  0.00    -0.646 OA
HETATM   22  O4  UNL     1      14.992  15.531  15.961  1.00  0.00    -0.646 OA
ENDBRANCH  19  20
BRANCH  19  23
HETATM   23  C15 UNL     1      16.513  17.118  13.782  1.00  0.00     0.214 C 
HETATM   24  O5  UNL     1      17.007  17.978  14.555  1.00  0.00    -0.646 OA
HETATM   25  O6  UNL     1      17.364  16.490  12.892  1.00  0.00    -0.646 OA
ENDBRANCH  19  23
ENDBRANCH  18  19
ENDBRANCH  15  18
ENDBRANCH  11  12
ENDBRANCH   1  11
BRANCH   1  26
HETATM   26  N2  UNL     1       8.073  18.595   8.656  1.00  0.00    -0.330 N 
HETATM   27  C18 UNL     1       6.920  19.229   9.180  1.00  0.00     0.317 C 
HETATM   28  O7  UNL     1       7.047  19.983  10.178  1.00  0.00    -0.247 OA
HETATM   29  N3  UNL     1       5.623  19.068   8.649  1.00  0.00    -0.328 N 
ATOM     30  H3  UNL     1       5.482  18.463   7.840  1.00  0.00     0.165 HD
ATOM     31  H2  UNL     1       7.965  17.984   7.845  1.00  0.00     0.165 HD
BRANCH  29  32
HETATM   32  C19 UNL     1       4.464  19.765   9.251  1.00  0.00     0.191 C 
BRANCH  32  33
HETATM   33  C20 UNL     1       3.823  20.641   8.211  1.00  0.00     0.074 C 
BRANCH  33  34
HETATM   34  C21 UNL     1       4.233  20.227   6.865  1.00  0.00    -0.056 A 
HETATM   35  C22 UNL     1       3.603  19.181   6.240  1.00  0.00     0.007 A 
HETATM   36  C23 UNL     1       3.951  18.786   4.948  1.00  0.00     0.001 A 
HETATM   37  C24 UNL     1       4.945  19.458   4.290  1.00  0.00     0.000 A 
HETATM   38  C25 UNL     1       5.583  20.509   4.905  1.00  0.00     0.001 A 
HETATM   39  C26 UNL     1       5.227  20.895   6.197  1.00  0.00     0.007 A 
ENDBRANCH  33  34
ENDBRANCH  32  33
BRANCH  32  40
HETATM   40  C27 UNL     1       3.507  18.723   9.677  1.00  0.00     0.197 C 
HETATM   41  O8  UNL     1       3.869  17.703  10.328  1.00  0.00    -0.646 OA
HETATM   42  O9  UNL     1       2.161  18.836   9.375  1.00  0.00    -0.646 OA
ENDBRANCH  32  40
ENDBRANCH  29  32
ENDBRANCH   1  26
TORSDOF 16
ENDMDL
