MODEL 5
REMARK VINA RESULT: -8.427195723      4.686      8.536
REMARK  19 active torsions:
REMARK  status: ('A' for Active; 'I' for Inactive)
REMARK    1  A    between atoms: C2_2  and  C3_3 
REMARK    2  A    between atoms: C3_3  and  C4_4 
REMARK    3  A    between atoms: C4_4  and  C5_5 
REMARK    4  A    between atoms: C5_5  and  N1_6 
REMARK       I    between atoms: N1_6  and  C6_8 
REMARK    5  A    between atoms: C6_8  and  C7_10 
REMARK    6  A    between atoms: C7_10  and  C8_11 
REMARK    7  A    between atoms: C7_10  and  N2_26 
REMARK    8  A    between atoms: C8_11  and  C9_12 
REMARK    9  A    between atoms: C12_15  and  O2_16 
REMARK   10  A    between atoms: O2_16  and  C13_17 
REMARK   11  A    between atoms: C13_17  and  C14_18 
REMARK   12  A    between atoms: C15_21  and  C16_22 
REMARK       I    between atoms: N2_26  and  C18_28 
REMARK   13  A    between atoms: C18_28  and  C19_30 
REMARK   14  A    between atoms: C19_30  and  C20_31 
REMARK   15  A    between atoms: C19_30  and  N3_38 
REMARK   16  A    between atoms: C20_31  and  C21_32 
REMARK       I    between atoms: N3_38  and  C27_40 
REMARK   17  A    between atoms: C27_40  and  C28_42 
REMARK   18  A    between atoms: C28_42  and  C29_43 
REMARK   19  A    between atoms: C29_43  and  C30_44 
ROOT
HETATM    1  C7  UNL     1       9.008  18.575   9.764  1.00  0.00     0.200 C 
ENDROOT
BRANCH   1   2
HETATM    2  C6  UNL     1       9.799  19.665   8.974  1.00  0.00     0.244 C 
HETATM    3  N1  UNL     1      10.166  19.334   7.654  1.00  0.00    -0.359 N 
ATOM      4  H1  UNL     1       9.826  18.447   7.282  1.00  0.00     0.162 HD
HETATM    5  O1  UNL     1      10.087  20.738   9.467  1.00  0.00    -0.271 OA
BRANCH   3   6
HETATM    6  C5  UNL     1      10.992  20.157   6.775  1.00  0.00     0.122 C 
BRANCH   6   7
HETATM    7  C4  UNL     1      11.941  19.243   6.007  1.00  0.00     0.020 C 
BRANCH   7   8
HETATM    8  C3  UNL     1      11.479  17.848   5.823  1.00  0.00     0.001 C 
BRANCH   8   9
HETATM    9  C2  UNL     1      12.503  16.764   5.916  1.00  0.00    -0.004 C 
HETATM   10  C1  UNL     1      13.021  16.505   4.496  1.00  0.00     0.005 C 
ENDBRANCH   8   9
ENDBRANCH   7   8
ENDBRANCH   6   7
ENDBRANCH   3   6
ENDBRANCH   1   2
BRANCH   1  11
HETATM   11  C8  UNL     1       9.875  17.399   9.588  1.00  0.00     0.019 C 
BRANCH  11  12
HETATM   12  C9  UNL     1      11.096  17.159  10.263  1.00  0.00    -0.036 A 
HETATM   13  C10 UNL     1      12.283  17.015   9.546  1.00  0.00     0.014 A 
HETATM   14  C11 UNL     1      13.491  16.717  10.114  1.00  0.00     0.039 A 
HETATM   15  C12 UNL     1      13.563  16.545  11.475  1.00  0.00     0.086 A 
HETATM   16  C15 UNL     1      12.407  16.687  12.227  1.00  0.00     0.074 A 
HETATM   17  C17 UNL     1      11.192  16.991  11.622  1.00  0.00     0.032 A 
BRANCH  15  18
HETATM   18  O2  UNL     1      14.736  16.234  12.144  1.00  0.00    -0.340 OA
BRANCH  18  19
HETATM   19  C13 UNL     1      15.872  17.062  12.217  1.00  0.00     0.288 C 
BRANCH  19  20
HETATM   20  C14 UNL     1      16.946  16.404  13.031  1.00  0.00     0.198 C 
HETATM   21  O3  UNL     1      16.574  15.317  13.620  1.00  0.00    -0.646 OA
HETATM   22  O4  UNL     1      18.183  16.850  13.167  1.00  0.00    -0.646 OA
ENDBRANCH  19  20
ENDBRANCH  18  19
ENDBRANCH  15  18
BRANCH  16  23
HETATM   23  C16 UNL     1      12.486  16.526  13.669  1.00  0.00     0.212 C 
HETATM   24  O5  UNL     1      11.777  17.282  14.417  1.00  0.00    -0.644 OA
HETATM   25  O6  UNL     1      13.287  15.601  14.246  1.00  0.00    -0.644 OA
ENDBRANCH  16  23
ENDBRANCH  11  12
ENDBRANCH   1  11
BRANCH   1  26
HETATM   26  N2  UNL     1       7.726  18.551   9.161  1.00  0.00    -0.343 N 
HETATM   27  C18 UNL     1       6.565  19.317   9.447  1.00  0.00     0.241 C 
HETATM   28  O7  UNL     1       6.556  20.145  10.325  1.00  0.00    -0.271 OA
ATOM     29  H2  UNL     1       7.621  17.877   8.401  1.00  0.00     0.163 HD
BRANCH  27  30
HETATM   30  C19 UNL     1       5.340  19.055   8.633  1.00  0.00     0.180 C 
BRANCH  30  31
HETATM   31  C20 UNL     1       5.015  20.223   7.728  1.00  0.00     0.073 C 
BRANCH  31  32
HETATM   32  C21 UNL     1       4.084  19.895   6.628  1.00  0.00    -0.056 A 
HETATM   33  C22 UNL     1       2.847  20.488   6.547  1.00  0.00     0.007 A 
HETATM   34  C23 UNL     1       2.015  20.132   5.498  1.00  0.00     0.001 A 
HETATM   35  C24 UNL     1       2.368  19.219   4.532  1.00  0.00     0.000 A 
HETATM   36  C25 UNL     1       3.606  18.622   4.606  1.00  0.00     0.001 A 
HETATM   37  C26 UNL     1       4.425  18.975   5.645  1.00  0.00     0.007 A 
ENDBRANCH  31  32
ENDBRANCH  30  31
BRANCH  30  38
HETATM   38  N3  UNL     1       4.192  18.605   9.294  1.00  0.00    -0.347 N 
HETATM   39  C27 UNL     1       3.241  19.215  10.110  1.00  0.00     0.218 C 
HETATM   40  O8  UNL     1       3.326  20.409  10.383  1.00  0.00    -0.274 OA
ATOM     41  H3  UNL     1       4.012  17.612   9.147  1.00  0.00     0.163 HD
BRANCH  39  42
HETATM   42  C28 UNL     1       2.131  18.360  10.618  1.00  0.00     0.113 C 
BRANCH  42  43
HETATM   43  C29 UNL     1       2.459  16.944  10.885  1.00  0.00     0.122 C 
BRANCH  43  44
HETATM   44  C30 UNL     1       1.387  15.968  10.616  1.00  0.00     0.172 C 
HETATM   45  O9  UNL     1       0.206  16.367  10.717  1.00  0.00    -0.648 OA
HETATM   46  O10 UNL     1       1.635  14.669  10.265  1.00  0.00    -0.648 OA
ENDBRANCH  43  44
ENDBRANCH  42  43
ENDBRANCH  39  42
ENDBRANCH  30  38
ENDBRANCH  27  30
ENDBRANCH   1  26
TORSDOF 19
ENDMDL
