MODEL 3
REMARK VINA RESULT: -8.471691507      1.499      1.996
REMARK  19 active torsions:
REMARK  status: ('A' for Active; 'I' for Inactive)
REMARK    1  A    between atoms: C2_2  and  C3_3 
REMARK    2  A    between atoms: C3_3  and  C4_4 
REMARK    3  A    between atoms: C4_4  and  C5_5 
REMARK    4  A    between atoms: C5_5  and  N1_6 
REMARK       I    between atoms: N1_6  and  C6_8 
REMARK    5  A    between atoms: C6_8  and  C7_10 
REMARK    6  A    between atoms: C7_10  and  C8_11 
REMARK    7  A    between atoms: C7_10  and  N2_26 
REMARK    8  A    between atoms: C8_11  and  C9_12 
REMARK    9  A    between atoms: C12_15  and  O2_16 
REMARK   10  A    between atoms: O2_16  and  C13_17 
REMARK   11  A    between atoms: C13_17  and  C14_18 
REMARK   12  A    between atoms: C15_21  and  C16_22 
REMARK       I    between atoms: N2_26  and  C18_28 
REMARK   13  A    between atoms: C18_28  and  C19_30 
REMARK   14  A    between atoms: C19_30  and  C20_31 
REMARK   15  A    between atoms: C19_30  and  N3_38 
REMARK   16  A    between atoms: C20_31  and  C21_32 
REMARK       I    between atoms: N3_38  and  C27_40 
REMARK   17  A    between atoms: C27_40  and  C28_42 
REMARK   18  A    between atoms: C28_42  and  C29_43 
REMARK   19  A    between atoms: C29_43  and  C30_44 
ROOT
HETATM    1  C7  UNL     1       9.498  18.782   9.116  1.00  0.00     0.200 C 
ENDROOT
BRANCH   1   2
HETATM    2  C6  UNL     1       9.183  19.567  10.428  1.00  0.00     0.244 C 
HETATM    3  N1  UNL     1      10.181  20.457  10.877  1.00  0.00    -0.359 N 
ATOM      4  H1  UNL     1      10.997  20.584  10.279  1.00  0.00     0.162 HD
HETATM    5  O1  UNL     1       8.140  19.420  11.034  1.00  0.00    -0.271 OA
BRANCH   3   6
HETATM    6  C5  UNL     1      10.140  21.211  12.126  1.00  0.00     0.122 C 
BRANCH   6   7
HETATM    7  C4  UNL     1      10.547  20.281  13.266  1.00  0.00     0.020 C 
BRANCH   7   8
HETATM    8  C3  UNL     1       9.759  20.412  14.513  1.00  0.00     0.001 C 
BRANCH   8   9
HETATM    9  C2  UNL     1       8.318  20.023  14.462  1.00  0.00    -0.004 C 
HETATM   10  C1  UNL     1       7.801  20.002  15.906  1.00  0.00     0.005 C 
ENDBRANCH   8   9
ENDBRANCH   7   8
ENDBRANCH   6   7
ENDBRANCH   3   6
ENDBRANCH   1   2
BRANCH   1  11
HETATM   11  C8  UNL     1       9.932  17.482   9.650  1.00  0.00     0.019 C 
BRANCH  11  12
HETATM   12  C9  UNL     1      11.150  17.225  10.324  1.00  0.00    -0.036 A 
HETATM   13  C10 UNL     1      12.339  17.097   9.608  1.00  0.00     0.014 A 
HETATM   14  C11 UNL     1      13.545  16.784  10.174  1.00  0.00     0.039 A 
HETATM   15  C12 UNL     1      13.612  16.582  11.531  1.00  0.00     0.086 A 
HETATM   16  C15 UNL     1      12.452  16.707  12.281  1.00  0.00     0.074 A 
HETATM   17  C17 UNL     1      11.240  17.026  11.678  1.00  0.00     0.032 A 
BRANCH  15  18
HETATM   18  O2  UNL     1      14.782  16.254  12.197  1.00  0.00    -0.340 OA
BRANCH  18  19
HETATM   19  C13 UNL     1      15.938  17.056  12.247  1.00  0.00     0.288 C 
BRANCH  19  20
HETATM   20  C14 UNL     1      17.002  16.387  13.066  1.00  0.00     0.198 C 
HETATM   21  O3  UNL     1      16.632  15.276  13.611  1.00  0.00    -0.646 OA
HETATM   22  O4  UNL     1      18.228  16.847  13.248  1.00  0.00    -0.646 OA
ENDBRANCH  19  20
ENDBRANCH  18  19
ENDBRANCH  15  18
BRANCH  16  23
HETATM   23  C16 UNL     1      12.526  16.513  13.720  1.00  0.00     0.212 C 
HETATM   24  O5  UNL     1      11.802  17.242  14.481  1.00  0.00    -0.644 OA
HETATM   25  O6  UNL     1      13.336  15.587  14.280  1.00  0.00    -0.644 OA
ENDBRANCH  16  23
ENDBRANCH  11  12
ENDBRANCH   1  11
BRANCH   1  26
HETATM   26  N2  UNL     1      10.458  19.577   8.441  1.00  0.00    -0.343 N 
HETATM   27  C18 UNL     1      11.197  19.311   7.258  1.00  0.00     0.241 C 
HETATM   28  O7  UNL     1      11.069  18.275   6.653  1.00  0.00    -0.271 OA
ATOM     29  H2  UNL     1      10.648  20.482   8.874  1.00  0.00     0.163 HD
BRANCH  27  30
HETATM   30  C19 UNL     1      12.158  20.355   6.789  1.00  0.00     0.180 C 
BRANCH  30  31
HETATM   31  C20 UNL     1      11.680  21.747   7.139  1.00  0.00     0.073 C 
BRANCH  31  32
HETATM   32  C21 UNL     1      12.526  22.446   8.128  1.00  0.00    -0.056 A 
HETATM   33  C22 UNL     1      13.842  22.733   7.858  1.00  0.00     0.007 A 
HETATM   34  C23 UNL     1      14.587  23.382   8.830  1.00  0.00     0.001 A 
HETATM   35  C24 UNL     1      14.072  23.756  10.048  1.00  0.00     0.000 A 
HETATM   36  C25 UNL     1      12.754  23.474  10.325  1.00  0.00     0.001 A 
HETATM   37  C26 UNL     1      12.022  22.831   9.363  1.00  0.00     0.007 A 
ENDBRANCH  31  32
ENDBRANCH  30  31
BRANCH  30  38
HETATM   38  N3  UNL     1      12.596  20.300   5.461  1.00  0.00    -0.347 N 
HETATM   39  C27 UNL     1      13.813  20.551   4.830  1.00  0.00     0.218 C 
HETATM   40  O8  UNL     1      14.790  20.910   5.480  1.00  0.00    -0.274 OA
ATOM     41  H3  UNL     1      11.863  20.014   4.812  1.00  0.00     0.163 HD
BRANCH  39  42
HETATM   42  C28 UNL     1      13.867  20.357   3.354  1.00  0.00     0.113 C 
BRANCH  42  43
HETATM   43  C29 UNL     1      13.621  18.986   2.859  1.00  0.00     0.122 C 
BRANCH  43  44
HETATM   44  C30 UNL     1      14.264  17.897   3.618  1.00  0.00     0.172 C 
HETATM   45  O9  UNL     1      13.576  17.318   4.486  1.00  0.00    -0.648 OA
HETATM   46  O10 UNL     1      15.558  17.508   3.407  1.00  0.00    -0.648 OA
ENDBRANCH  43  44
ENDBRANCH  42  43
ENDBRANCH  39  42
ENDBRANCH  30  38
ENDBRANCH  27  30
ENDBRANCH   1  26
TORSDOF 19
ENDMDL
