MODEL 15
REMARK VINA RESULT: -8.047698556      4.333      8.385
REMARK  19 active torsions:
REMARK  status: ('A' for Active; 'I' for Inactive)
REMARK    1  A    between atoms: C2_2  and  C3_3 
REMARK    2  A    between atoms: C3_3  and  C4_4 
REMARK    3  A    between atoms: C4_4  and  C5_5 
REMARK    4  A    between atoms: C5_5  and  N1_6 
REMARK       I    between atoms: N1_6  and  C6_8 
REMARK    5  A    between atoms: C6_8  and  C7_10 
REMARK    6  A    between atoms: C7_10  and  C8_11 
REMARK    7  A    between atoms: C7_10  and  N2_26 
REMARK    8  A    between atoms: C8_11  and  C9_12 
REMARK    9  A    between atoms: C12_15  and  O2_16 
REMARK   10  A    between atoms: O2_16  and  C13_17 
REMARK   11  A    between atoms: C13_17  and  C14_18 
REMARK   12  A    between atoms: C15_21  and  C16_22 
REMARK       I    between atoms: N2_26  and  C18_28 
REMARK   13  A    between atoms: C18_28  and  C19_30 
REMARK   14  A    between atoms: C19_30  and  C20_31 
REMARK   15  A    between atoms: C19_30  and  N3_38 
REMARK   16  A    between atoms: C20_31  and  C21_32 
REMARK       I    between atoms: N3_38  and  C27_40 
REMARK   17  A    between atoms: C27_40  and  C28_42 
REMARK   18  A    between atoms: C28_42  and  C29_43 
REMARK   19  A    between atoms: C29_43  and  C30_44 
ROOT
HETATM    1  C7  UNL     1       9.043  18.766   9.763  1.00  0.00     0.200 C 
ENDROOT
BRANCH   1   2
HETATM    2  C6  UNL     1       9.953  19.729   8.937  1.00  0.00     0.244 C 
HETATM    3  N1  UNL     1      10.067  19.451   7.559  1.00  0.00    -0.359 N 
ATOM      4  H1  UNL     1       9.493  18.696   7.186  1.00  0.00     0.162 HD
HETATM    5  O1  UNL     1      10.535  20.666   9.449  1.00  0.00    -0.271 OA
BRANCH   3   6
HETATM    6  C5  UNL     1      10.939  20.156   6.624  1.00  0.00     0.122 C 
BRANCH   6   7
HETATM    7  C4  UNL     1      12.011  19.186   6.138  1.00  0.00     0.020 C 
BRANCH   7   8
HETATM    8  C3  UNL     1      11.578  17.778   5.979  1.00  0.00     0.001 C 
BRANCH   8   9
HETATM    9  C2  UNL     1      12.633  16.762   5.689  1.00  0.00    -0.004 C 
HETATM   10  C1  UNL     1      12.078  15.826   4.608  1.00  0.00     0.005 C 
ENDBRANCH   8   9
ENDBRANCH   7   8
ENDBRANCH   6   7
ENDBRANCH   3   6
ENDBRANCH   1   2
BRANCH   1  11
HETATM   11  C8  UNL     1       9.801  17.507   9.682  1.00  0.00     0.019 C 
BRANCH  11  12
HETATM   12  C9  UNL     1      11.039  17.241  10.315  1.00  0.00    -0.036 A 
HETATM   13  C10 UNL     1      12.203  17.103   9.560  1.00  0.00     0.014 A 
HETATM   14  C11 UNL     1      13.424  16.781  10.086  1.00  0.00     0.039 A 
HETATM   15  C12 UNL     1      13.534  16.577  11.440  1.00  0.00     0.086 A 
HETATM   16  C15 UNL     1      12.401  16.711  12.229  1.00  0.00     0.074 A 
HETATM   17  C17 UNL     1      11.172  17.040  11.666  1.00  0.00     0.032 A 
BRANCH  15  18
HETATM   18  O2  UNL     1      14.723  16.239  12.067  1.00  0.00    -0.340 OA
BRANCH  18  19
HETATM   19  C13 UNL     1      15.828  17.098  12.226  1.00  0.00     0.288 C 
BRANCH  19  20
HETATM   20  C14 UNL     1      16.925  16.402  12.975  1.00  0.00     0.198 C 
HETATM   21  O3  UNL     1      16.561  15.306  13.553  1.00  0.00    -0.646 OA
HETATM   22  O4  UNL     1      18.174  16.826  13.069  1.00  0.00    -0.646 OA
ENDBRANCH  19  20
ENDBRANCH  18  19
ENDBRANCH  15  18
BRANCH  16  23
HETATM   23  C16 UNL     1      12.521  16.516  13.664  1.00  0.00     0.212 C 
HETATM   24  O5  UNL     1      11.848  17.267  14.449  1.00  0.00    -0.644 OA
HETATM   25  O6  UNL     1      13.322  15.565  14.195  1.00  0.00    -0.644 OA
ENDBRANCH  16  23
ENDBRANCH  11  12
ENDBRANCH   1  11
BRANCH   1  26
HETATM   26  N2  UNL     1       7.781  18.823   9.122  1.00  0.00    -0.343 N 
HETATM   27  C18 UNL     1       6.708  19.739   9.293  1.00  0.00     0.241 C 
HETATM   28  O7  UNL     1       6.773  20.646  10.086  1.00  0.00    -0.271 OA
ATOM     29  H2  UNL     1       7.617  18.092   8.429  1.00  0.00     0.163 HD
BRANCH  27  30
HETATM   30  C19 UNL     1       5.480  19.533   8.468  1.00  0.00     0.180 C 
BRANCH  30  31
HETATM   31  C20 UNL     1       5.468  20.438   7.255  1.00  0.00     0.073 C 
BRANCH  31  32
HETATM   32  C21 UNL     1       4.374  20.159   6.303  1.00  0.00    -0.056 A 
HETATM   33  C22 UNL     1       4.362  19.006   5.556  1.00  0.00     0.007 A 
HETATM   34  C23 UNL     1       3.313  18.806   4.672  1.00  0.00     0.001 A 
HETATM   35  C24 UNL     1       2.282  19.702   4.511  1.00  0.00     0.000 A 
HETATM   36  C25 UNL     1       2.287  20.858   5.257  1.00  0.00     0.001 A 
HETATM   37  C26 UNL     1       3.326  21.053   6.128  1.00  0.00     0.007 A 
ENDBRANCH  31  32
ENDBRANCH  30  31
BRANCH  30  38
HETATM   38  N3  UNL     1       4.239  19.554   9.114  1.00  0.00    -0.347 N 
HETATM   39  C27 UNL     1       3.332  18.570   9.504  1.00  0.00     0.218 C 
HETATM   40  O8  UNL     1       3.563  17.384   9.280  1.00  0.00    -0.274 OA
ATOM     41  H3  UNL     1       3.930  20.496   9.353  1.00  0.00     0.163 HD
BRANCH  39  42
HETATM   42  C28 UNL     1       2.095  19.021  10.200  1.00  0.00     0.113 C 
BRANCH  42  43
HETATM   43  C29 UNL     1       2.249  19.452  11.606  1.00  0.00     0.122 C 
BRANCH  43  44
HETATM   44  C30 UNL     1       3.016  18.547  12.482  1.00  0.00     0.172 C 
HETATM   45  O9  UNL     1       2.458  17.488  12.844  1.00  0.00    -0.648 OA
HETATM   46  O10 UNL     1       4.288  18.820  12.901  1.00  0.00    -0.648 OA
ENDBRANCH  43  44
ENDBRANCH  42  43
ENDBRANCH  39  42
ENDBRANCH  30  38
ENDBRANCH  27  30
ENDBRANCH   1  26
TORSDOF 19
ENDMDL
