MODEL 13
REMARK VINA RESULT: -8.085425232      4.374      8.235
REMARK  19 active torsions:
REMARK  status: ('A' for Active; 'I' for Inactive)
REMARK    1  A    between atoms: C2_2  and  C3_3 
REMARK    2  A    between atoms: C3_3  and  C4_4 
REMARK    3  A    between atoms: C4_4  and  C5_5 
REMARK    4  A    between atoms: C5_5  and  N1_6 
REMARK       I    between atoms: N1_6  and  C6_8 
REMARK    5  A    between atoms: C6_8  and  C7_10 
REMARK    6  A    between atoms: C7_10  and  C8_11 
REMARK    7  A    between atoms: C7_10  and  N2_26 
REMARK    8  A    between atoms: C8_11  and  C9_12 
REMARK    9  A    between atoms: C12_15  and  O2_16 
REMARK   10  A    between atoms: O2_16  and  C13_17 
REMARK   11  A    between atoms: C13_17  and  C14_18 
REMARK   12  A    between atoms: C15_21  and  C16_22 
REMARK       I    between atoms: N2_26  and  C18_28 
REMARK   13  A    between atoms: C18_28  and  C19_30 
REMARK   14  A    between atoms: C19_30  and  C20_31 
REMARK   15  A    between atoms: C19_30  and  N3_38 
REMARK   16  A    between atoms: C20_31  and  C21_32 
REMARK       I    between atoms: N3_38  and  C27_40 
REMARK   17  A    between atoms: C27_40  and  C28_42 
REMARK   18  A    between atoms: C28_42  and  C29_43 
REMARK   19  A    between atoms: C29_43  and  C30_44 
ROOT
HETATM    1  C7  UNL     1       9.116  18.946   9.626  1.00  0.00     0.200 C 
ENDROOT
BRANCH   1   2
HETATM    2  C6  UNL     1      10.053  19.813   8.727  1.00  0.00     0.244 C 
HETATM    3  N1  UNL     1      10.183  19.402   7.384  1.00  0.00    -0.359 N 
ATOM      4  H1  UNL     1       9.603  18.622   7.075  1.00  0.00     0.162 HD
HETATM    5  O1  UNL     1      10.640  20.787   9.156  1.00  0.00    -0.271 OA
BRANCH   3   6
HETATM    6  C5  UNL     1      11.079  20.003   6.400  1.00  0.00     0.122 C 
BRANCH   6   7
HETATM    7  C4  UNL     1      12.061  18.935   5.926  1.00  0.00     0.020 C 
BRANCH   7   8
HETATM    8  C3  UNL     1      11.626  17.533   6.118  1.00  0.00     0.001 C 
BRANCH   8   9
HETATM    9  C2  UNL     1      11.385  16.712   4.894  1.00  0.00    -0.004 C 
HETATM   10  C1  UNL     1      12.718  16.054   4.518  1.00  0.00     0.005 C 
ENDBRANCH   8   9
ENDBRANCH   7   8
ENDBRANCH   6   7
ENDBRANCH   3   6
ENDBRANCH   1   2
BRANCH   1  11
HETATM   11  C8  UNL     1       9.814  17.650   9.610  1.00  0.00     0.019 C 
BRANCH  11  12
HETATM   12  C9  UNL     1      11.026  17.351  10.277  1.00  0.00    -0.036 A 
HETATM   13  C10 UNL     1      12.204  17.170   9.553  1.00  0.00     0.014 A 
HETATM   14  C11 UNL     1      13.401  16.815  10.113  1.00  0.00     0.039 A 
HETATM   15  C12 UNL     1      13.470  16.622  11.471  1.00  0.00     0.086 A 
HETATM   16  C15 UNL     1      12.323  16.800  12.229  1.00  0.00     0.074 A 
HETATM   17  C17 UNL     1      11.120  17.161  11.633  1.00  0.00     0.032 A 
BRANCH  15  18
HETATM   18  O2  UNL     1      14.632  16.253  12.131  1.00  0.00    -0.340 OA
BRANCH  18  19
HETATM   19  C13 UNL     1      15.853  16.952  12.074  1.00  0.00     0.288 C 
BRANCH  19  20
HETATM   20  C14 UNL     1      16.848  16.340  13.015  1.00  0.00     0.198 C 
HETATM   21  O3  UNL     1      17.919  17.042  13.184  1.00  0.00    -0.646 OA
HETATM   22  O4  UNL     1      16.695  15.189  13.646  1.00  0.00    -0.646 OA
ENDBRANCH  19  20
ENDBRANCH  18  19
ENDBRANCH  15  18
BRANCH  16  23
HETATM   23  C16 UNL     1      12.400  16.615  13.669  1.00  0.00     0.212 C 
HETATM   24  O5  UNL     1      11.676  17.347  14.426  1.00  0.00    -0.644 OA
HETATM   25  O6  UNL     1      13.215  15.695  14.233  1.00  0.00    -0.644 OA
ENDBRANCH  16  23
ENDBRANCH  11  12
ENDBRANCH   1  11
BRANCH   1  26
HETATM   26  N2  UNL     1       7.845  19.023   9.005  1.00  0.00    -0.343 N 
HETATM   27  C18 UNL     1       6.873  20.058   9.034  1.00  0.00     0.241 C 
HETATM   28  O7  UNL     1       7.053  21.075   9.659  1.00  0.00    -0.271 OA
ATOM     29  H2  UNL     1       7.588  18.206   8.449  1.00  0.00     0.163 HD
BRANCH  27  30
HETATM   30  C19 UNL     1       5.605  19.843   8.275  1.00  0.00     0.180 C 
BRANCH  30  31
HETATM   31  C20 UNL     1       5.442  20.860   7.167  1.00  0.00     0.073 C 
BRANCH  31  32
HETATM   32  C21 UNL     1       5.144  20.271   5.845  1.00  0.00    -0.056 A 
HETATM   33  C22 UNL     1       5.653  20.822   4.693  1.00  0.00     0.007 A 
HETATM   34  C23 UNL     1       5.330  20.230   3.483  1.00  0.00     0.001 A 
HETATM   35  C24 UNL     1       4.530  19.117   3.378  1.00  0.00     0.000 A 
HETATM   36  C25 UNL     1       4.018  18.559   4.527  1.00  0.00     0.001 A 
HETATM   37  C26 UNL     1       4.338  19.147   5.721  1.00  0.00     0.007 A 
ENDBRANCH  31  32
ENDBRANCH  30  31
BRANCH  30  38
HETATM   38  N3  UNL     1       4.416  19.706   9.002  1.00  0.00    -0.347 N 
HETATM   39  C27 UNL     1       3.677  18.615   9.455  1.00  0.00     0.218 C 
HETATM   40  O8  UNL     1       4.051  17.469   9.223  1.00  0.00    -0.274 OA
ATOM     41  H3  UNL     1       3.999  20.602   9.254  1.00  0.00     0.163 HD
BRANCH  39  42
HETATM   42  C28 UNL     1       2.437  18.907  10.228  1.00  0.00     0.113 C 
BRANCH  42  43
HETATM   43  C29 UNL     1       1.909  20.284  10.131  1.00  0.00     0.122 C 
BRANCH  43  44
HETATM   44  C30 UNL     1       0.940  20.534   9.048  1.00  0.00     0.172 C 
HETATM   45  O9  UNL     1       1.383  20.574   7.879  1.00  0.00    -0.648 OA
HETATM   46  O10 UNL     1      -0.396  20.717   9.273  1.00  0.00    -0.648 OA
ENDBRANCH  43  44
ENDBRANCH  42  43
ENDBRANCH  39  42
ENDBRANCH  30  38
ENDBRANCH  27  30
ENDBRANCH   1  26
TORSDOF 19
ENDMDL
