MODEL 2
REMARK VINA RESULT: -8.494710333      1.616      2.161
REMARK  19 active torsions:
REMARK  status: ('A' for Active; 'I' for Inactive)
REMARK    1  A    between atoms: C2_2  and  C3_3 
REMARK    2  A    between atoms: C3_3  and  C4_4 
REMARK    3  A    between atoms: C4_4  and  C5_5 
REMARK    4  A    between atoms: C5_5  and  N1_6 
REMARK       I    between atoms: N1_6  and  C6_8 
REMARK    5  A    between atoms: C6_8  and  C7_10 
REMARK    6  A    between atoms: C7_10  and  C8_11 
REMARK    7  A    between atoms: C7_10  and  N2_26 
REMARK    8  A    between atoms: C8_11  and  C9_12 
REMARK    9  A    between atoms: C12_15  and  O2_16 
REMARK   10  A    between atoms: O2_16  and  C13_17 
REMARK   11  A    between atoms: C13_17  and  C14_18 
REMARK   12  A    between atoms: C15_21  and  C16_22 
REMARK       I    between atoms: N2_26  and  C18_28 
REMARK   13  A    between atoms: C18_28  and  C19_30 
REMARK   14  A    between atoms: C19_30  and  C20_31 
REMARK   15  A    between atoms: C19_30  and  N3_38 
REMARK   16  A    between atoms: C20_31  and  C21_32 
REMARK       I    between atoms: N3_38  and  C27_40 
REMARK   17  A    between atoms: C27_40  and  C28_42 
REMARK   18  A    between atoms: C28_42  and  C29_43 
REMARK   19  A    between atoms: C29_43  and  C30_44 
ROOT
HETATM    1  C7  UNL     1       9.912  18.607   8.513  1.00  0.00     0.200 C 
ENDROOT
BRANCH   1   2
HETATM    2  C6  UNL     1       9.493  19.733   9.510  1.00  0.00     0.244 C 
HETATM    3  N1  UNL     1      10.097  20.992   9.318  1.00  0.00    -0.359 N 
ATOM      4  H1  UNL     1      10.700  21.102   8.503  1.00  0.00     0.162 HD
HETATM    5  O1  UNL     1       8.693  19.539  10.404  1.00  0.00    -0.271 OA
BRANCH   3   6
HETATM    6  C5  UNL     1       9.929  22.152  10.189  1.00  0.00     0.122 C 
BRANCH   6   7
HETATM    7  C4  UNL     1      11.311  22.698  10.537  1.00  0.00     0.020 C 
BRANCH   7   8
HETATM    8  C3  UNL     1      12.257  22.818   9.405  1.00  0.00     0.001 C 
BRANCH   8   9
HETATM    9  C2  UNL     1      13.092  24.055   9.332  1.00  0.00    -0.004 C 
HETATM   10  C1  UNL     1      14.230  23.896  10.347  1.00  0.00     0.005 C 
ENDBRANCH   8   9
ENDBRANCH   7   8
ENDBRANCH   6   7
ENDBRANCH   3   6
ENDBRANCH   1   2
BRANCH   1  11
HETATM   11  C8  UNL     1      10.131  17.475   9.427  1.00  0.00     0.019 C 
BRANCH  11  12
HETATM   12  C9  UNL     1      11.311  17.222  10.169  1.00  0.00    -0.036 A 
HETATM   13  C10 UNL     1      12.534  17.071   9.518  1.00  0.00     0.014 A 
HETATM   14  C11 UNL     1      13.706  16.761  10.153  1.00  0.00     0.039 A 
HETATM   15  C12 UNL     1      13.701  16.585  11.515  1.00  0.00     0.086 A 
HETATM   16  C15 UNL     1      12.505  16.734  12.201  1.00  0.00     0.074 A 
HETATM   17  C17 UNL     1      11.328  17.050  11.530  1.00  0.00     0.032 A 
BRANCH  15  18
HETATM   18  O2  UNL     1      14.832  16.262  12.248  1.00  0.00    -0.340 OA
BRANCH  18  19
HETATM   19  C13 UNL     1      16.027  17.006  12.264  1.00  0.00     0.288 C 
BRANCH  19  20
HETATM   20  C14 UNL     1      17.045  16.337  13.139  1.00  0.00     0.198 C 
HETATM   21  O3  UNL     1      16.630  15.252  13.703  1.00  0.00    -0.646 OA
HETATM   22  O4  UNL     1      18.275  16.773  13.349  1.00  0.00    -0.646 OA
ENDBRANCH  19  20
ENDBRANCH  18  19
ENDBRANCH  15  18
BRANCH  16  23
HETATM   23  C16 UNL     1      12.501  16.569  13.645  1.00  0.00     0.212 C 
HETATM   24  O5  UNL     1      13.217  15.645  14.164  1.00  0.00    -0.644 OA
HETATM   25  O6  UNL     1      11.765  17.359  14.458  1.00  0.00    -0.644 OA
ENDBRANCH  16  23
ENDBRANCH  11  12
ENDBRANCH   1  11
BRANCH   1  26
HETATM   26  N2  UNL     1      11.034  19.132   7.825  1.00  0.00    -0.343 N 
HETATM   27  C18 UNL     1      11.641  18.714   6.611  1.00  0.00     0.241 C 
HETATM   28  O7  UNL     1      11.219  17.772   5.986  1.00  0.00    -0.271 OA
ATOM     29  H2  UNL     1      11.475  19.937   8.272  1.00  0.00     0.163 HD
BRANCH  27  30
HETATM   30  C19 UNL     1      12.837  19.472   6.134  1.00  0.00     0.180 C 
BRANCH  30  31
HETATM   31  C20 UNL     1      12.537  20.948   5.989  1.00  0.00     0.073 C 
BRANCH  31  32
HETATM   32  C21 UNL     1      13.691  21.829   6.258  1.00  0.00    -0.056 A 
HETATM   33  C22 UNL     1      13.793  23.064   5.663  1.00  0.00     0.007 A 
HETATM   34  C23 UNL     1      14.905  23.841   5.947  1.00  0.00     0.001 A 
HETATM   35  C24 UNL     1      15.908  23.439   6.798  1.00  0.00     0.000 A 
HETATM   36  C25 UNL     1      15.812  22.205   7.398  1.00  0.00     0.001 A 
HETATM   37  C26 UNL     1      14.713  21.439   7.114  1.00  0.00     0.007 A 
ENDBRANCH  31  32
ENDBRANCH  30  31
BRANCH  30  38
HETATM   38  N3  UNL     1      13.518  18.991   5.011  1.00  0.00    -0.347 N 
HETATM   39  C27 UNL     1      13.252  18.987   3.643  1.00  0.00     0.218 C 
HETATM   40  O8  UNL     1      12.216  19.484   3.207  1.00  0.00    -0.274 OA
ATOM     41  H3  UNL     1      14.405  18.546   5.245  1.00  0.00     0.163 HD
BRANCH  39  42
HETATM   42  C28 UNL     1      14.272  18.367   2.752  1.00  0.00     0.113 C 
BRANCH  42  43
HETATM   43  C29 UNL     1      14.577  16.941   2.992  1.00  0.00     0.122 C 
BRANCH  43  44
HETATM   44  C30 UNL     1      15.956  16.512   2.694  1.00  0.00     0.172 C 
HETATM   45  O9  UNL     1      16.148  15.897   1.622  1.00  0.00    -0.648 OA
HETATM   46  O10 UNL     1      17.009  16.761   3.530  1.00  0.00    -0.648 OA
ENDBRANCH  43  44
ENDBRANCH  42  43
ENDBRANCH  39  42
ENDBRANCH  30  38
ENDBRANCH  27  30
ENDBRANCH   1  26
TORSDOF 19
ENDMDL
