MODEL 18
REMARK VINA RESULT: -7.992045460      4.808      8.431
REMARK  19 active torsions:
REMARK  status: ('A' for Active; 'I' for Inactive)
REMARK    1  A    between atoms: C2_2  and  C3_3 
REMARK    2  A    between atoms: C3_3  and  C4_4 
REMARK    3  A    between atoms: C4_4  and  C5_5 
REMARK    4  A    between atoms: C5_5  and  N1_6 
REMARK       I    between atoms: N1_6  and  C6_8 
REMARK    5  A    between atoms: C6_8  and  C7_10 
REMARK    6  A    between atoms: C7_10  and  C8_11 
REMARK    7  A    between atoms: C7_10  and  N2_26 
REMARK    8  A    between atoms: C8_11  and  C9_12 
REMARK    9  A    between atoms: C12_15  and  O2_16 
REMARK   10  A    between atoms: O2_16  and  C13_17 
REMARK   11  A    between atoms: C13_17  and  C14_18 
REMARK   12  A    between atoms: C15_21  and  C16_22 
REMARK       I    between atoms: N2_26  and  C18_28 
REMARK   13  A    between atoms: C18_28  and  C19_30 
REMARK   14  A    between atoms: C19_30  and  C20_31 
REMARK   15  A    between atoms: C19_30  and  N3_38 
REMARK   16  A    between atoms: C20_31  and  C21_32 
REMARK       I    between atoms: N3_38  and  C27_40 
REMARK   17  A    between atoms: C27_40  and  C28_42 
REMARK   18  A    between atoms: C28_42  and  C29_43 
REMARK   19  A    between atoms: C29_43  and  C30_44 
ROOT
HETATM    1  C7  UNL     1       8.992  18.766   9.795  1.00  0.00     0.200 C 
ENDROOT
BRANCH   1   2
HETATM    2  C6  UNL     1       9.854  19.852   9.077  1.00  0.00     0.244 C 
HETATM    3  N1  UNL     1      10.196  19.589   7.735  1.00  0.00    -0.359 N 
ATOM      4  H1  UNL     1       9.798  18.754   7.305  1.00  0.00     0.162 HD
HETATM    5  O1  UNL     1      10.213  20.868   9.639  1.00  0.00    -0.271 OA
BRANCH   3   6
HETATM    6  C5  UNL     1      11.073  20.414   6.909  1.00  0.00     0.122 C 
BRANCH   6   7
HETATM    7  C4  UNL     1      12.519  20.118   7.296  1.00  0.00     0.020 C 
BRANCH   7   8
HETATM    8  C3  UNL     1      13.434  21.282   7.295  1.00  0.00     0.001 C 
BRANCH   8   9
HETATM    9  C2  UNL     1      13.203  22.342   8.321  1.00  0.00    -0.004 C 
HETATM   10  C1  UNL     1      14.477  23.192   8.394  1.00  0.00     0.005 C 
ENDBRANCH   8   9
ENDBRANCH   7   8
ENDBRANCH   6   7
ENDBRANCH   3   6
ENDBRANCH   1   2
BRANCH   1  11
HETATM   11  C8  UNL     1       9.820  17.564   9.604  1.00  0.00     0.019 C 
BRANCH  11  12
HETATM   12  C9  UNL     1      11.044  17.286  10.258  1.00  0.00    -0.036 A 
HETATM   13  C10 UNL     1      12.222  17.153   9.523  1.00  0.00     0.014 A 
HETATM   14  C11 UNL     1      13.432  16.821  10.068  1.00  0.00     0.039 A 
HETATM   15  C12 UNL     1      13.515  16.601  11.421  1.00  0.00     0.086 A 
HETATM   16  C15 UNL     1      12.368  16.731  12.190  1.00  0.00     0.074 A 
HETATM   17  C17 UNL     1      11.151  17.070  11.608  1.00  0.00     0.032 A 
BRANCH  15  18
HETATM   18  O2  UNL     1      14.691  16.252  12.067  1.00  0.00    -0.340 OA
BRANCH  18  19
HETATM   19  C13 UNL     1      15.810  17.093  12.223  1.00  0.00     0.288 C 
BRANCH  19  20
HETATM   20  C14 UNL     1      16.887  16.389  12.994  1.00  0.00     0.198 C 
HETATM   21  O3  UNL     1      16.504  15.295  13.564  1.00  0.00    -0.646 OA
HETATM   22  O4  UNL     1      18.137  16.804  13.113  1.00  0.00    -0.646 OA
ENDBRANCH  19  20
ENDBRANCH  18  19
ENDBRANCH  15  18
BRANCH  16  23
HETATM   23  C16 UNL     1      12.460  16.518  13.625  1.00  0.00     0.212 C 
HETATM   24  O5  UNL     1      11.765  17.255  14.405  1.00  0.00    -0.644 OA
HETATM   25  O6  UNL     1      13.258  15.568  14.161  1.00  0.00    -0.644 OA
ENDBRANCH  16  23
ENDBRANCH  11  12
ENDBRANCH   1  11
BRANCH   1  26
HETATM   26  N2  UNL     1       7.733  18.815   9.146  1.00  0.00    -0.343 N 
HETATM   27  C18 UNL     1       6.529  19.460   9.534  1.00  0.00     0.241 C 
HETATM   28  O7  UNL     1       6.451  20.088  10.561  1.00  0.00    -0.271 OA
ATOM     29  H2  UNL     1       7.685  18.308   8.262  1.00  0.00     0.163 HD
BRANCH  27  30
HETATM   30  C19 UNL     1       5.345  19.322   8.633  1.00  0.00     0.180 C 
BRANCH  30  31
HETATM   31  C20 UNL     1       5.426  20.276   7.461  1.00  0.00     0.073 C 
BRANCH  31  32
HETATM   32  C21 UNL     1       4.376  20.072   6.442  1.00  0.00    -0.056 A 
HETATM   33  C22 UNL     1       3.381  21.001   6.255  1.00  0.00     0.007 A 
HETATM   34  C23 UNL     1       2.418  20.749   5.290  1.00  0.00     0.001 A 
HETATM   35  C24 UNL     1       2.413  19.618   4.509  1.00  0.00     0.000 A 
HETATM   36  C25 UNL     1       3.408  18.683   4.690  1.00  0.00     0.001 A 
HETATM   37  C26 UNL     1       4.356  18.935   5.645  1.00  0.00     0.007 A 
ENDBRANCH  31  32
ENDBRANCH  30  31
BRANCH  30  38
HETATM   38  N3  UNL     1       4.070  19.351   9.209  1.00  0.00    -0.347 N 
HETATM   39  C27 UNL     1       3.200  18.374   9.689  1.00  0.00     0.218 C 
HETATM   40  O8  UNL     1       3.510  17.186   9.645  1.00  0.00    -0.274 OA
ATOM     41  H3  UNL     1       3.695  20.295   9.298  1.00  0.00     0.163 HD
BRANCH  39  42
HETATM   42  C28 UNL     1       1.901  18.836  10.253  1.00  0.00     0.113 C 
BRANCH  42  43
HETATM   43  C29 UNL     1       1.390  18.092  11.424  1.00  0.00     0.122 C 
BRANCH  43  44
HETATM   44  C30 UNL     1       0.354  17.080  11.149  1.00  0.00     0.172 C 
HETATM   45  O9  UNL     1       0.695  15.878  11.209  1.00  0.00    -0.648 OA
HETATM   46  O10 UNL     1      -0.938  17.403  10.840  1.00  0.00    -0.648 OA
ENDBRANCH  43  44
ENDBRANCH  42  43
ENDBRANCH  39  42
ENDBRANCH  30  38
ENDBRANCH  27  30
ENDBRANCH   1  26
TORSDOF 19
ENDMDL
