MODEL 1
REMARK VINA RESULT: -8.632972891      0.000      0.000
REMARK  19 active torsions:
REMARK  status: ('A' for Active; 'I' for Inactive)
REMARK    1  A    between atoms: C2_2  and  C3_3 
REMARK    2  A    between atoms: C3_3  and  C4_4 
REMARK    3  A    between atoms: C4_4  and  C5_5 
REMARK    4  A    between atoms: C5_5  and  N1_6 
REMARK       I    between atoms: N1_6  and  C6_8 
REMARK    5  A    between atoms: C6_8  and  C7_10 
REMARK    6  A    between atoms: C7_10  and  C8_11 
REMARK    7  A    between atoms: C7_10  and  N2_26 
REMARK    8  A    between atoms: C8_11  and  C9_12 
REMARK    9  A    between atoms: C12_15  and  O2_16 
REMARK   10  A    between atoms: O2_16  and  C13_17 
REMARK   11  A    between atoms: C13_17  and  C14_18 
REMARK   12  A    between atoms: C15_21  and  C16_22 
REMARK       I    between atoms: N2_26  and  C18_28 
REMARK   13  A    between atoms: C18_28  and  C19_30 
REMARK   14  A    between atoms: C19_30  and  C20_31 
REMARK   15  A    between atoms: C19_30  and  N3_38 
REMARK   16  A    between atoms: C20_31  and  C21_32 
REMARK       I    between atoms: N3_38  and  C27_40 
REMARK   17  A    between atoms: C27_40  and  C28_42 
REMARK   18  A    between atoms: C28_42  and  C29_43 
REMARK   19  A    between atoms: C29_43  and  C30_44 
ROOT
HETATM    1  C7  UNL     1       9.840  18.524   8.647  1.00  0.00     0.200 C 
ENDROOT
BRANCH   1   2
HETATM    2  C6  UNL     1       9.797  19.652   9.726  1.00  0.00     0.244 C 
HETATM    3  N1  UNL     1       8.810  19.521  10.725  1.00  0.00    -0.359 N 
ATOM      4  H1  UNL     1       8.250  18.669  10.720  1.00  0.00     0.162 HD
HETATM    5  O1  UNL     1      10.566  20.593   9.708  1.00  0.00    -0.271 OA
BRANCH   3   6
HETATM    6  C5  UNL     1       8.526  20.505  11.766  1.00  0.00     0.122 C 
BRANCH   6   7
HETATM    7  C4  UNL     1       9.102  19.995  13.083  1.00  0.00     0.020 C 
BRANCH   7   8
HETATM    8  C3  UNL     1      10.373  20.623  13.513  1.00  0.00     0.001 C 
BRANCH   8   9
HETATM    9  C2  UNL     1      10.354  21.419  14.777  1.00  0.00    -0.004 C 
HETATM   10  C1  UNL     1      11.741  22.055  14.933  1.00  0.00     0.005 C 
ENDBRANCH   8   9
ENDBRANCH   7   8
ENDBRANCH   6   7
ENDBRANCH   3   6
ENDBRANCH   1   2
BRANCH   1  11
HETATM   11  C8  UNL     1      10.134  17.342   9.472  1.00  0.00     0.019 C 
BRANCH  11  12
HETATM   12  C9  UNL     1      11.312  17.129  10.229  1.00  0.00    -0.036 A 
HETATM   13  C10 UNL     1      12.545  16.995   9.592  1.00  0.00     0.014 A 
HETATM   14  C11 UNL     1      13.717  16.722  10.242  1.00  0.00     0.039 A 
HETATM   15  C12 UNL     1      13.703  16.569  11.607  1.00  0.00     0.086 A 
HETATM   16  C15 UNL     1      12.497  16.703  12.280  1.00  0.00     0.074 A 
HETATM   17  C17 UNL     1      11.321  16.980  11.593  1.00  0.00     0.032 A 
BRANCH  15  18
HETATM   18  O2  UNL     1      14.834  16.284  12.356  1.00  0.00    -0.340 OA
BRANCH  18  19
HETATM   19  C13 UNL     1      16.062  16.966  12.260  1.00  0.00     0.288 C 
BRANCH  19  20
HETATM   20  C14 UNL     1      17.080  16.336  13.164  1.00  0.00     0.198 C 
HETATM   21  O3  UNL     1      16.689  15.237  13.719  1.00  0.00    -0.646 OA
HETATM   22  O4  UNL     1      18.286  16.817  13.408  1.00  0.00    -0.646 OA
ENDBRANCH  19  20
ENDBRANCH  18  19
ENDBRANCH  15  18
BRANCH  16  23
HETATM   23  C16 UNL     1      12.484  16.561  13.727  1.00  0.00     0.212 C 
HETATM   24  O5  UNL     1      11.735  17.332  14.417  1.00  0.00    -0.644 OA
HETATM   25  O6  UNL     1      13.240  15.640  14.365  1.00  0.00    -0.644 OA
ENDBRANCH  16  23
ENDBRANCH  11  12
ENDBRANCH   1  11
BRANCH   1  26
HETATM   26  N2  UNL     1      10.824  18.949   7.720  1.00  0.00    -0.343 N 
HETATM   27  C18 UNL     1      11.346  18.291   6.574  1.00  0.00     0.241 C 
HETATM   28  O7  UNL     1      10.965  17.193   6.248  1.00  0.00    -0.271 OA
ATOM     29  H2  UNL     1      11.221  19.871   7.905  1.00  0.00     0.163 HD
BRANCH  27  30
HETATM   30  C19 UNL     1      12.400  18.998   5.786  1.00  0.00     0.180 C 
BRANCH  30  31
HETATM   31  C20 UNL     1      12.144  20.488   5.728  1.00  0.00     0.073 C 
BRANCH  31  32
HETATM   32  C21 UNL     1      13.162  21.304   6.421  1.00  0.00    -0.056 A 
HETATM   33  C22 UNL     1      14.466  21.328   5.988  1.00  0.00     0.007 A 
HETATM   34  C23 UNL     1      15.376  22.106   6.685  1.00  0.00     0.001 A 
HETATM   35  C24 UNL     1      15.038  22.857   7.786  1.00  0.00     0.000 A 
HETATM   36  C25 UNL     1      13.733  22.839   8.225  1.00  0.00     0.001 A 
HETATM   37  C26 UNL     1      12.837  22.069   7.534  1.00  0.00     0.007 A 
ENDBRANCH  31  32
ENDBRANCH  30  31
BRANCH  30  38
HETATM   38  N3  UNL     1      12.722  18.500   4.518  1.00  0.00    -0.347 N 
HETATM   39  C27 UNL     1      13.312  17.323   4.059  1.00  0.00     0.218 C 
HETATM   40  O8  UNL     1      13.675  16.458   4.851  1.00  0.00    -0.274 OA
ATOM     41  H3  UNL     1      12.470  19.139   3.764  1.00  0.00     0.163 HD
BRANCH  39  42
HETATM   42  C28 UNL     1      13.469  17.170   2.586  1.00  0.00     0.113 C 
BRANCH  42  43
HETATM   43  C29 UNL     1      14.801  17.487   2.029  1.00  0.00     0.122 C 
BRANCH  43  44
HETATM   44  C30 UNL     1      15.849  16.470   2.231  1.00  0.00     0.172 C 
HETATM   45  O9  UNL     1      16.667  16.663   3.157  1.00  0.00    -0.648 OA
HETATM   46  O10 UNL     1      15.952  15.345   1.460  1.00  0.00    -0.648 OA
ENDBRANCH  43  44
ENDBRANCH  42  43
ENDBRANCH  39  42
ENDBRANCH  30  38
ENDBRANCH  27  30
ENDBRANCH   1  26
TORSDOF 19
ENDMDL
