MODEL 1
REMARK VINA RESULT: -7.333104115      0.000      0.000
REMARK  16 active torsions:
REMARK  status: ('A' for Active; 'I' for Inactive)
REMARK    1  A    between atoms: C1_2  and  C2_4 
REMARK    2  A    between atoms: C2_4  and  N1_5 
REMARK    3  A    between atoms: N1_5  and  C3_6 
REMARK    4  A    between atoms: N1_5  and  C9_25 
REMARK    5  A    between atoms: C3_6  and  C4_7 
REMARK    6  A    between atoms: C4_7  and  O3_8 
REMARK    7  A    between atoms: C4_7  and  C5_10 
REMARK    8  A    between atoms: C5_10  and  O4_11 
REMARK    9  A    between atoms: C5_10  and  C6_13 
REMARK   10  A    between atoms: C6_13  and  O5_14 
REMARK   11  A    between atoms: C6_13  and  C7_16 
REMARK   12  A    between atoms: C7_16  and  O6_17 
REMARK   13  A    between atoms: C7_16  and  C8_19 
REMARK   14  A    between atoms: C8_19  and  O7_20 
REMARK   15  A    between atoms: O7_20  and  P1_21 
REMARK   16  A    between atoms: C9_25  and  P2_26 
ROOT
HETATM    1  C5  UNL     1       7.892 106.660  80.802  1.00  0.00     0.179 C 
ENDROOT
BRANCH   1   2
HETATM    2  C4  UNL     1       7.925 108.158  80.830  1.00  0.00     0.167 C 
BRANCH   2   3
HETATM    3  C3  UNL     1       8.021 108.772  79.507  1.00  0.00     0.157 C 
BRANCH   3   4
HETATM    4  N1  UNL     1       9.099 109.743  79.353  1.00  0.00    -0.370 N 
BRANCH   4   5
HETATM    5  C2  UNL     1      10.182 109.585  80.246  1.00  0.00     0.235 C 
BRANCH   5   6
HETATM    6  C1  UNL     1      11.457 110.211  79.906  1.00  0.00     0.191 C 
HETATM    7  O1  UNL     1      12.002 111.162  80.512  1.00  0.00    -0.647 OA
HETATM    8  O2  UNL     1      12.194 109.741  78.795  1.00  0.00    -0.647 OA
ENDBRANCH   5   6
ENDBRANCH   4   5
BRANCH   4   9
HETATM    9  C9  UNL     1       8.625 111.089  79.126  1.00  0.00     0.202 C 
BRANCH   9  10
HETATM   10  P2  UNL     1       8.407 112.145  80.477  1.00  0.00     0.300 P 
HETATM   11  O11 UNL     1       9.257 113.565  80.565  1.00  0.00    -0.636 OA
HETATM   12  O12 UNL     1       7.525 111.578  81.805  1.00  0.00    -0.636 OA
HETATM   13  O13 UNL     1       7.164 112.889  80.007  1.00  0.00    -0.636 OA
ENDBRANCH   9  10
ENDBRANCH   4   9
ENDBRANCH   3   4
ENDBRANCH   2   3
BRANCH   2  14
HETATM   14  O3  UNL     1       7.012 108.644  81.733  1.00  0.00    -0.391 OA
ATOM     15  H3  UNL     1       7.079 108.387  82.645  1.00  0.00     0.210 HD
ENDBRANCH   2  14
ENDBRANCH   1   2
BRANCH   1  16
HETATM   16  O4  UNL     1       6.637 106.257  81.432  1.00  0.00    -0.390 OA
ATOM     17  H4  UNL     1       5.937 106.584  80.880  1.00  0.00     0.210 HD
ENDBRANCH   1  16
BRANCH   1  18
HETATM   18  C6  UNL     1       7.784 106.033  79.431  1.00  0.00     0.180 C 
BRANCH  18  19
HETATM   19  O5  UNL     1       6.445 105.511  79.300  1.00  0.00    -0.390 OA
ATOM     20  H5  UNL     1       6.340 105.221  78.401  1.00  0.00     0.210 HD
ENDBRANCH  18  19
BRANCH  18  21
HETATM   21  C7  UNL     1       8.646 104.825  79.217  1.00  0.00     0.173 C 
BRANCH  21  22
HETATM   22  O6  UNL     1       9.235 104.924  77.928  1.00  0.00    -0.391 OA
ATOM     23  H6  UNL     1       8.977 104.160  77.425  1.00  0.00     0.210 HD
ENDBRANCH  21  22
BRANCH  21  24
HETATM   24  C8  UNL     1       7.944 103.522  79.380  1.00  0.00     0.217 C 
BRANCH  24  25
HETATM   25  O7  UNL     1       7.429 103.361  80.672  1.00  0.00    -0.280 OA
BRANCH  25  26
HETATM   26  P1  UNL     1       7.076 101.951  81.202  1.00  0.00     0.422 P 
HETATM   27  O8  UNL     1       5.465 102.193  81.197  1.00  0.00    -0.617 OA
HETATM   28  O9  UNL     1       7.038 100.509  81.758  1.00  0.00    -0.617 OA
HETATM   29  O10 UNL     1       7.781 101.373  79.816  1.00  0.00    -0.617 OA
ENDBRANCH  25  26
ENDBRANCH  24  25
ENDBRANCH  21  24
ENDBRANCH  18  21
ENDBRANCH   1  18
TORSDOF 16
ENDMDL
