MODEL 3
REMARK VINA RESULT: -7.247674091      2.614      3.794
REMARK  16 active torsions:
REMARK  status: ('A' for Active; 'I' for Inactive)
REMARK    1  A    between atoms: C1_2  and  C2_4 
REMARK    2  A    between atoms: C2_4  and  N1_5 
REMARK    3  A    between atoms: N1_5  and  C3_6 
REMARK    4  A    between atoms: N1_5  and  C9_25 
REMARK    5  A    between atoms: C3_6  and  C4_7 
REMARK    6  A    between atoms: C4_7  and  O3_8 
REMARK    7  A    between atoms: C4_7  and  C5_10 
REMARK    8  A    between atoms: C5_10  and  O4_11 
REMARK    9  A    between atoms: C5_10  and  C6_13 
REMARK   10  A    between atoms: C6_13  and  O5_14 
REMARK   11  A    between atoms: C6_13  and  C7_16 
REMARK   12  A    between atoms: C7_16  and  O6_17 
REMARK   13  A    between atoms: C7_16  and  C8_19 
REMARK   14  A    between atoms: C8_19  and  O7_20 
REMARK   15  A    between atoms: O7_20  and  P1_21 
REMARK   16  A    between atoms: C9_25  and  P2_26 
ROOT
HETATM    1  C5  UNL     1       8.753 109.090  80.676  1.00  0.00     0.179 C 
ENDROOT
BRANCH   1   2
HETATM    2  C4  UNL     1       9.427 110.241  81.360  1.00  0.00     0.167 C 
BRANCH   2   3
HETATM    3  C3  UNL     1       9.065 111.547  80.814  1.00  0.00     0.157 C 
BRANCH   3   4
HETATM    4  N1  UNL     1       9.860 111.981  79.670  1.00  0.00    -0.370 N 
BRANCH   4   5
HETATM    5  C2  UNL     1      11.260 111.913  79.852  1.00  0.00     0.235 C 
BRANCH   5   6
HETATM    6  C1  UNL     1      12.058 111.226  78.840  1.00  0.00     0.191 C 
HETATM    7  O1  UNL     1      12.689 111.763  77.901  1.00  0.00    -0.647 OA
HETATM    8  O2  UNL     1      12.165 109.816  78.872  1.00  0.00    -0.647 OA
ENDBRANCH   5   6
ENDBRANCH   4   5
BRANCH   4   9
HETATM    9  C9  UNL     1       9.337 113.165  79.029  1.00  0.00     0.202 C 
BRANCH   9  10
HETATM   10  P2  UNL     1       8.057 113.005  77.878  1.00  0.00     0.300 P 
HETATM   11  O11 UNL     1       6.598 112.374  78.344  1.00  0.00    -0.636 OA
HETATM   12  O12 UNL     1       8.413 113.254  76.243  1.00  0.00    -0.636 OA
HETATM   13  O13 UNL     1       7.496 114.419  77.940  1.00  0.00    -0.636 OA
ENDBRANCH   9  10
ENDBRANCH   4   9
ENDBRANCH   3   4
ENDBRANCH   2   3
BRANCH   2  14
HETATM   14  O3  UNL     1       9.431 110.058  82.720  1.00  0.00    -0.391 OA
ATOM     15  H3  UNL     1       9.370 109.178  83.072  1.00  0.00     0.210 HD
ENDBRANCH   2  14
ENDBRANCH   1   2
BRANCH   1  16
HETATM   16  O4  UNL     1       9.751 108.482  79.799  1.00  0.00    -0.390 OA
ATOM     17  H4  UNL     1       9.321 107.757  79.358  1.00  0.00     0.210 HD
ENDBRANCH   1  16
BRANCH   1  18
HETATM   18  C6  UNL     1       8.360 107.937  81.570  1.00  0.00     0.180 C 
BRANCH  18  19
HETATM   19  O5  UNL     1       9.521 107.095  81.725  1.00  0.00    -0.390 OA
ATOM     20  H5  UNL     1       9.258 106.205  81.521  1.00  0.00     0.210 HD
ENDBRANCH  18  19
BRANCH  18  21
HETATM   21  C7  UNL     1       7.336 107.006  80.990  1.00  0.00     0.173 C 
BRANCH  21  22
HETATM   22  O6  UNL     1       6.333 106.784  81.972  1.00  0.00    -0.391 OA
ATOM     23  H6  UNL     1       5.725 107.513  81.943  1.00  0.00     0.210 HD
ENDBRANCH  21  22
BRANCH  21  24
HETATM   24  C8  UNL     1       7.882 105.715  80.488  1.00  0.00     0.217 C 
BRANCH  24  25
HETATM   25  O7  UNL     1       8.661 105.886  79.337  1.00  0.00    -0.280 OA
BRANCH  25  26
HETATM   26  P1  UNL     1       8.010 105.815  77.936  1.00  0.00     0.422 P 
HETATM   27  O8  UNL     1       9.059 106.847  77.236  1.00  0.00    -0.617 OA
HETATM   28  O9  UNL     1       7.141 105.568  76.683  1.00  0.00    -0.617 OA
HETATM   29  O10 UNL     1       8.399 104.204  77.956  1.00  0.00    -0.617 OA
ENDBRANCH  25  26
ENDBRANCH  24  25
ENDBRANCH  21  24
ENDBRANCH  18  21
ENDBRANCH   1  18
TORSDOF 16
ENDMDL
