MODEL 2
REMARK VINA RESULT: -7.263503610      2.032      3.261
REMARK  16 active torsions:
REMARK  status: ('A' for Active; 'I' for Inactive)
REMARK    1  A    between atoms: C1_2  and  C2_4 
REMARK    2  A    between atoms: C2_4  and  N1_5 
REMARK    3  A    between atoms: N1_5  and  C3_6 
REMARK    4  A    between atoms: N1_5  and  C9_25 
REMARK    5  A    between atoms: C3_6  and  C4_7 
REMARK    6  A    between atoms: C4_7  and  O3_8 
REMARK    7  A    between atoms: C4_7  and  C5_10 
REMARK    8  A    between atoms: C5_10  and  O4_11 
REMARK    9  A    between atoms: C5_10  and  C6_13 
REMARK   10  A    between atoms: C6_13  and  O5_14 
REMARK   11  A    between atoms: C6_13  and  C7_16 
REMARK   12  A    between atoms: C7_16  and  O6_17 
REMARK   13  A    between atoms: C7_16  and  C8_19 
REMARK   14  A    between atoms: C8_19  and  O7_20 
REMARK   15  A    between atoms: O7_20  and  P1_21 
REMARK   16  A    between atoms: C9_25  and  P2_26 
ROOT
HETATM    1  C5  UNL     1       8.898 109.401  81.273  1.00  0.00     0.179 C 
ENDROOT
BRANCH   1   2
HETATM    2  C4  UNL     1      10.025 110.115  80.590  1.00  0.00     0.167 C 
BRANCH   2   3
HETATM    3  C3  UNL     1      10.028 111.560  80.809  1.00  0.00     0.157 C 
BRANCH   3   4
HETATM    4  N1  UNL     1      10.225 112.366  79.609  1.00  0.00    -0.370 N 
BRANCH   4   5
HETATM    5  C2  UNL     1      11.567 112.709  79.330  1.00  0.00     0.235 C 
BRANCH   5   6
HETATM    6  C1  UNL     1      12.257 111.993  78.260  1.00  0.00     0.191 C 
HETATM    7  O1  UNL     1      12.620 112.470  77.160  1.00  0.00    -0.647 OA
HETATM    8  O2  UNL     1      12.572 110.624  78.424  1.00  0.00    -0.647 OA
ENDBRANCH   5   6
ENDBRANCH   4   5
BRANCH   4   9
HETATM    9  C9  UNL     1       9.235 113.406  79.452  1.00  0.00     0.202 C 
BRANCH   9  10
HETATM   10  P2  UNL     1       7.683 113.002  78.807  1.00  0.00     0.300 P 
HETATM   11  O11 UNL     1       7.353 111.443  78.356  1.00  0.00    -0.636 OA
HETATM   12  O12 UNL     1       6.627 114.262  78.409  1.00  0.00    -0.636 OA
HETATM   13  O13 UNL     1       6.919 112.814  80.111  1.00  0.00    -0.636 OA
ENDBRANCH   9  10
ENDBRANCH   4   9
ENDBRANCH   3   4
ENDBRANCH   2   3
BRANCH   2  14
HETATM   14  O3  UNL     1      11.196 109.411  80.727  1.00  0.00    -0.391 OA
ATOM     15  H3  UNL     1      11.412 109.027  81.569  1.00  0.00     0.210 HD
ENDBRANCH   2  14
ENDBRANCH   1   2
BRANCH   1  16
HETATM   16  O4  UNL     1       7.669 109.818  80.602  1.00  0.00    -0.390 OA
ATOM     17  H4  UNL     1       7.383 110.617  81.030  1.00  0.00     0.210 HD
ENDBRANCH   1  16
BRANCH   1  18
HETATM   18  C6  UNL     1       8.871 107.900  81.097  1.00  0.00     0.180 C 
BRANCH  18  19
HETATM   19  O5  UNL     1       9.171 107.623  79.713  1.00  0.00    -0.390 OA
ATOM     20  H5  UNL     1      10.056 107.279  79.676  1.00  0.00     0.210 HD
ENDBRANCH  18  19
BRANCH  18  21
HETATM   21  C7  UNL     1       7.528 107.263  81.292  1.00  0.00     0.173 C 
BRANCH  21  22
HETATM   22  O6  UNL     1       7.471 106.747  82.615  1.00  0.00    -0.391 OA
ATOM     23  H6  UNL     1       7.399 105.801  82.560  1.00  0.00     0.210 HD
ENDBRANCH  21  22
BRANCH  21  24
HETATM   24  C8  UNL     1       7.188 106.209  80.297  1.00  0.00     0.217 C 
BRANCH  24  25
HETATM   25  O7  UNL     1       7.969 105.059  80.461  1.00  0.00    -0.280 OA
BRANCH  25  26
HETATM   26  P1  UNL     1       7.862 103.892  79.452  1.00  0.00     0.422 P 
HETATM   27  O8  UNL     1       6.261 104.062  79.202  1.00  0.00    -0.617 OA
HETATM   28  O9  UNL     1       8.060 102.678  78.516  1.00  0.00    -0.617 OA
HETATM   29  O10 UNL     1       8.897 104.768  78.496  1.00  0.00    -0.617 OA
ENDBRANCH  25  26
ENDBRANCH  24  25
ENDBRANCH  21  24
ENDBRANCH  18  21
ENDBRANCH   1  18
TORSDOF 16
ENDMDL
