MODEL 10
REMARK VINA RESULT: -5.540512367      3.539      4.982
REMARK  6 active torsions:
REMARK  status: ('A' for Active; 'I' for Inactive)
REMARK    1  A    between atoms: C2_2  and  C3_3 
REMARK    2  A    between atoms: C3_3  and  C4_4 
REMARK    3  A    between atoms: C4_4  and  C5_5 
REMARK    4  A    between atoms: C5_5  and  C6_6 
REMARK    5  A    between atoms: C6_6  and  O1_7 
REMARK    6  A    between atoms: C6_6  and  C7_9 
ROOT
HETATM    1  C5  UNL     1       0.907  -1.100   6.228  1.00  0.00     0.032 C 
ENDROOT
BRANCH   1   2
HETATM    2  C4  UNL     1       1.463  -0.695   4.901  1.00  0.00     0.002 C 
BRANCH   2   3
HETATM    3  C3  UNL     1       1.533   0.782   4.682  1.00  0.00    -0.000 C 
BRANCH   3   4
HETATM    4  C2  UNL     1       0.142   1.342   5.006  1.00  0.00    -0.005 C 
HETATM    5  C1  UNL     1      -0.568   1.764   3.739  1.00  0.00     0.005 C 
ENDBRANCH   3   4
ENDBRANCH   2   3
ENDBRANCH   1   2
BRANCH   1   6
HETATM    6  C6  UNL     1       1.848  -1.891   7.080  1.00  0.00     0.117 C 
BRANCH   6   7
HETATM    7  O1  UNL     1       2.979  -2.296   6.402  1.00  0.00    -0.396 OA
ATOM      8  H1  UNL     1       3.530  -2.878   6.913  1.00  0.00     0.210 HD
ENDBRANCH   6   7
BRANCH   6   9
HETATM    9  C7  UNL     1       1.078  -3.129   7.557  1.00  0.00     0.027 C 
HETATM   10  C8  UNL     1       0.931  -3.104   9.069  1.00  0.00     0.007 C 
ENDBRANCH   6   9
ENDBRANCH   1   6
TORSDOF 6
ENDMDL
