MODEL 20
REMARK VINA RESULT: -5.291029180      3.186      4.419
REMARK  6 active torsions:
REMARK  status: ('A' for Active; 'I' for Inactive)
REMARK    1  A    between atoms: C2_2  and  C3_3 
REMARK    2  A    between atoms: C3_3  and  C4_4 
REMARK    3  A    between atoms: C4_4  and  C5_5 
REMARK    4  A    between atoms: C5_5  and  C6_6 
REMARK    5  A    between atoms: C6_6  and  O1_7 
REMARK    6  A    between atoms: C6_6  and  C7_9 
ROOT
HETATM    1  C5  UNL     1       0.476  -0.688   5.259  1.00  0.00     0.032 C 
ENDROOT
BRANCH   1   2
HETATM    2  C4  UNL     1       0.146  -0.319   6.669  1.00  0.00     0.002 C 
BRANCH   2   3
HETATM    3  C3  UNL     1       1.126  -0.811   7.685  1.00  0.00    -0.000 C 
BRANCH   3   4
HETATM    4  C2  UNL     1       1.811  -2.041   7.076  1.00  0.00    -0.005 C 
HETATM    5  C1  UNL     1       1.413  -3.294   7.823  1.00  0.00     0.005 C 
ENDBRANCH   3   4
ENDBRANCH   2   3
ENDBRANCH   1   2
BRANCH   1   6
HETATM    6  C6  UNL     1       0.957   0.451   4.416  1.00  0.00     0.117 C 
BRANCH   6   7
HETATM    7  O1  UNL     1       2.226   0.874   4.753  1.00  0.00    -0.396 OA
ATOM      8  H1  UNL     1       2.908   0.432   4.260  1.00  0.00     0.210 HD
ENDBRANCH   6   7
BRANCH   6   9
HETATM    9  C7  UNL     1      -0.030   1.605   4.629  1.00  0.00     0.027 C 
HETATM   10  C8  UNL     1      -0.851   1.831   3.371  1.00  0.00     0.007 C 
ENDBRANCH   6   9
ENDBRANCH   1   6
TORSDOF 6
ENDMDL
