MODEL 1
REMARK VINA RESULT: -7.294766827      0.000      0.000
REMARK  9 active torsions:
REMARK  status: ('A' for Active; 'I' for Inactive)
REMARK    1  A    between atoms: C1_2  and  C2_4 
REMARK    2  A    between atoms: C2_4  and  O3_5 
REMARK    3  A    between atoms: C2_4  and  C3_7 
REMARK    4  A    between atoms: C3_7  and  O4_8 
REMARK    5  A    between atoms: C3_7  and  C4_10 
REMARK    6  A    between atoms: C4_10  and  O5_11 
REMARK    7  A    between atoms: C4_10  and  C5_13 
REMARK    8  A    between atoms: C5_13  and  O6_14 
REMARK    9  A    between atoms: O6_14  and  P1_15 
ROOT
HETATM    1  C3  UNL     1      16.317   9.714  30.113  1.00  0.00     0.188 C 
ENDROOT
BRANCH   1   2
HETATM    2  C2  UNL     1      14.860   9.780  29.691  1.00  0.00     0.250 C 
BRANCH   2   3
HETATM    3  C1  UNL     1      14.701  10.138  28.290  1.00  0.00     0.205 C 
HETATM    4  O1  UNL     1      14.008   9.392  27.532  1.00  0.00    -0.646 OA
HETATM    5  O2  UNL     1      15.245  11.252  27.688  1.00  0.00    -0.646 OA
ENDBRANCH   2   3
BRANCH   2   6
HETATM    6  O3  UNL     1      14.386   8.449  29.860  1.00  0.00    -0.382 OA
ATOM      7  H3  UNL     1      15.115   7.857  29.718  1.00  0.00     0.210 HD
ENDBRANCH   2   6
ENDBRANCH   1   2
BRANCH   1   8
HETATM    8  O4  UNL     1      16.842  11.046  30.052  1.00  0.00    -0.390 OA
ATOM      9  H4  UNL     1      17.731  11.017  30.384  1.00  0.00     0.210 HD
ENDBRANCH   1   8
BRANCH   1  10
HETATM   10  C4  UNL     1      17.128   8.936  29.116  1.00  0.00     0.174 C 
BRANCH  10  11
HETATM   11  O5  UNL     1      17.229   7.625  29.500  1.00  0.00    -0.391 OA
ATOM     12  H5  UNL     1      16.443   7.351  29.956  1.00  0.00     0.210 HD
ENDBRANCH  10  11
BRANCH  10  13
HETATM   13  C5  UNL     1      18.495   9.580  28.953  1.00  0.00     0.217 C 
BRANCH  13  14
HETATM   14  O6  UNL     1      19.170   9.572  30.139  1.00  0.00    -0.280 OA
BRANCH  14  15
HETATM   15  P1  UNL     1      20.642   8.868  30.139  1.00  0.00     0.422 P 
HETATM   16  O7  UNL     1      20.611   8.591  28.642  1.00  0.00    -0.617 OA
HETATM   17  O8  UNL     1      22.047   9.768  29.985  1.00  0.00    -0.617 OA
HETATM   18  O9  UNL     1      20.781   7.267  30.508  1.00  0.00    -0.617 OA
ENDBRANCH  14  15
ENDBRANCH  13  14
ENDBRANCH  10  13
ENDBRANCH   1  10
TORSDOF 9
ENDMDL
