MODEL 2
REMARK VINA RESULT: -7.229415435      0.479      1.323
REMARK  9 active torsions:
REMARK  status: ('A' for Active; 'I' for Inactive)
REMARK    1  A    between atoms: C1_2  and  C2_4 
REMARK    2  A    between atoms: C2_4  and  O3_5 
REMARK    3  A    between atoms: C2_4  and  C3_7 
REMARK    4  A    between atoms: C3_7  and  O4_8 
REMARK    5  A    between atoms: C3_7  and  C4_10 
REMARK    6  A    between atoms: C4_10  and  O5_11 
REMARK    7  A    between atoms: C4_10  and  C5_13 
REMARK    8  A    between atoms: C5_13  and  O6_14 
REMARK    9  A    between atoms: O6_14  and  P1_15 
ROOT
HETATM    1  C3  UNL     1      16.472   9.575  30.117  1.00  0.00     0.188 C 
ENDROOT
BRANCH   1   2
HETATM    2  C2  UNL     1      15.019   9.745  29.713  1.00  0.00     0.250 C 
BRANCH   2   3
HETATM    3  C1  UNL     1      14.869  10.169  28.330  1.00  0.00     0.205 C 
HETATM    4  O1  UNL     1      14.114   9.505  27.555  1.00  0.00    -0.646 OA
HETATM    5  O2  UNL     1      15.486  11.262  27.762  1.00  0.00    -0.646 OA
ENDBRANCH   2   3
BRANCH   2   6
HETATM    6  O3  UNL     1      14.466   8.440  29.835  1.00  0.00    -0.382 OA
ATOM      7  H3  UNL     1      14.768   8.068  30.656  1.00  0.00     0.210 HD
ENDBRANCH   2   6
ENDBRANCH   1   2
BRANCH   1   8
HETATM    8  O4  UNL     1      17.069  10.878  30.133  1.00  0.00    -0.390 OA
ATOM      9  H4  UNL     1      17.971  10.781  29.855  1.00  0.00     0.210 HD
ENDBRANCH   1   8
BRANCH   1  10
HETATM   10  C4  UNL     1      17.233   8.818  29.066  1.00  0.00     0.174 C 
BRANCH  10  11
HETATM   11  O5  UNL     1      17.331   7.494  29.406  1.00  0.00    -0.391 OA
ATOM     12  H5  UNL     1      18.240   7.248  29.524  1.00  0.00     0.210 HD
ENDBRANCH  10  11
BRANCH  10  13
HETATM   13  C5  UNL     1      18.602   9.448  28.869  1.00  0.00     0.217 C 
BRANCH  13  14
HETATM   14  O6  UNL     1      19.577   8.495  28.915  1.00  0.00    -0.280 OA
BRANCH  14  15
HETATM   15  P1  UNL     1      20.713   8.666  30.074  1.00  0.00     0.422 P 
HETATM   16  O7  UNL     1      19.823   9.544  30.945  1.00  0.00    -0.617 OA
HETATM   17  O8  UNL     1      20.886   7.545  31.308  1.00  0.00    -0.617 OA
HETATM   18  O9  UNL     1      21.858   9.843  29.927  1.00  0.00    -0.617 OA
ENDBRANCH  14  15
ENDBRANCH  13  14
ENDBRANCH  10  13
ENDBRANCH   1  10
TORSDOF 9
ENDMDL
