MODEL 6
REMARK VINA RESULT: -7.049851198      1.354      1.928
REMARK  9 active torsions:
REMARK  status: ('A' for Active; 'I' for Inactive)
REMARK    1  A    between atoms: C1_2  and  C2_4 
REMARK    2  A    between atoms: C2_4  and  O3_5 
REMARK    3  A    between atoms: C2_4  and  C3_7 
REMARK    4  A    between atoms: C3_7  and  O4_8 
REMARK    5  A    between atoms: C3_7  and  C4_10 
REMARK    6  A    between atoms: C4_10  and  O5_11 
REMARK    7  A    between atoms: C4_10  and  C5_13 
REMARK    8  A    between atoms: C5_13  and  O6_14 
REMARK    9  A    between atoms: O6_14  and  P1_15 
ROOT
HETATM    1  C3  UNL     1      15.824   9.334  29.342  1.00  0.00     0.188 C 
ENDROOT
BRANCH   1   2
HETATM    2  C2  UNL     1      15.246  10.522  28.594  1.00  0.00     0.250 C 
BRANCH   2   3
HETATM    3  C1  UNL     1      14.294  10.127  27.568  1.00  0.00     0.205 C 
HETATM    4  O1  UNL     1      13.785   8.965  27.608  1.00  0.00    -0.646 OA
HETATM    5  O2  UNL     1      13.873  10.922  26.525  1.00  0.00    -0.646 OA
ENDBRANCH   2   3
BRANCH   2   6
HETATM    6  O3  UNL     1      14.541  11.254  29.590  1.00  0.00    -0.382 OA
ATOM      7  H3  UNL     1      14.795  12.167  29.518  1.00  0.00     0.210 HD
ENDBRANCH   2   6
ENDBRANCH   1   2
BRANCH   1   8
HETATM    8  O4  UNL     1      14.768   8.768  30.129  1.00  0.00    -0.390 OA
ATOM      9  H4  UNL     1      13.990   8.744  29.585  1.00  0.00     0.210 HD
ENDBRANCH   1   8
BRANCH   1  10
HETATM   10  C4  UNL     1      16.851   9.781  30.343  1.00  0.00     0.174 C 
BRANCH  10  11
HETATM   11  O5  UNL     1      17.301  11.039  30.037  1.00  0.00    -0.391 OA
ATOM     12  H5  UNL     1      18.213  11.135  30.287  1.00  0.00     0.210 HD
ENDBRANCH  10  11
BRANCH  10  13
HETATM   13  C5  UNL     1      17.989   8.776  30.396  1.00  0.00     0.217 C 
BRANCH  13  14
HETATM   14  O6  UNL     1      19.149   9.388  30.773  1.00  0.00    -0.280 OA
BRANCH  14  15
HETATM   15  P1  UNL     1      20.383   9.340  29.706  1.00  0.00     0.422 P 
HETATM   16  O7  UNL     1      20.124  10.755  29.204  1.00  0.00    -0.617 OA
HETATM   17  O8  UNL     1      21.948   9.739  30.153  1.00  0.00    -0.617 OA
HETATM   18  O9  UNL     1      20.144   8.686  28.211  1.00  0.00    -0.617 OA
ENDBRANCH  14  15
ENDBRANCH  13  14
ENDBRANCH  10  13
ENDBRANCH   1  10
TORSDOF 9
ENDMDL
