MODEL 14
REMARK VINA RESULT: -6.761869396      2.295      5.135
REMARK  9 active torsions:
REMARK  status: ('A' for Active; 'I' for Inactive)
REMARK    1  A    between atoms: C1_2  and  C2_4 
REMARK    2  A    between atoms: C2_4  and  O3_5 
REMARK    3  A    between atoms: C2_4  and  C3_7 
REMARK    4  A    between atoms: C3_7  and  O4_8 
REMARK    5  A    between atoms: C3_7  and  C4_10 
REMARK    6  A    between atoms: C4_10  and  O5_11 
REMARK    7  A    between atoms: C4_10  and  C5_13 
REMARK    8  A    between atoms: C5_13  and  O6_14 
REMARK    9  A    between atoms: O6_14  and  P1_15 
ROOT
HETATM    1  C3  UNL     1      17.910   8.403  30.098  1.00  0.00     0.188 C 
ENDROOT
BRANCH   1   2
HETATM    2  C2  UNL     1      19.288   8.285  30.724  1.00  0.00     0.250 C 
BRANCH   2   3
HETATM    3  C1  UNL     1      20.307   8.998  29.970  1.00  0.00     0.205 C 
HETATM    4  O1  UNL     1      20.653   8.564  28.828  1.00  0.00    -0.646 OA
HETATM    5  O2  UNL     1      20.950  10.142  30.387  1.00  0.00    -0.646 OA
ENDBRANCH   2   3
BRANCH   2   6
HETATM    6  O3  UNL     1      19.153   8.921  31.990  1.00  0.00    -0.382 OA
ATOM      7  H3  UNL     1      19.144   9.860  31.848  1.00  0.00     0.210 HD
ENDBRANCH   2   6
ENDBRANCH   1   2
BRANCH   1   8
HETATM    8  O4  UNL     1      17.908   7.600  28.911  1.00  0.00    -0.390 OA
ATOM      9  H4  UNL     1      18.726   7.119  28.892  1.00  0.00     0.210 HD
ENDBRANCH   1   8
BRANCH   1  10
HETATM   10  C4  UNL     1      17.661   9.803  29.614  1.00  0.00     0.174 C 
BRANCH  10  11
HETATM   11  O5  UNL     1      16.970  10.520  30.556  1.00  0.00    -0.391 OA
ATOM     12  H5  UNL     1      17.359  11.378  30.671  1.00  0.00     0.210 HD
ENDBRANCH  10  11
BRANCH  10  13
HETATM   13  C5  UNL     1      16.922   9.764  28.286  1.00  0.00     0.217 C 
BRANCH  13  14
HETATM   14  O6  UNL     1      17.584  10.505  27.351  1.00  0.00    -0.280 OA
BRANCH  14  15
HETATM   15  P1  UNL     1      17.053  12.030  27.115  1.00  0.00     0.422 P 
HETATM   16  O7  UNL     1      15.613  11.589  26.882  1.00  0.00    -0.617 OA
HETATM   17  O8  UNL     1      16.591  13.008  28.394  1.00  0.00    -0.617 OA
HETATM   18  O9  UNL     1      17.165  12.710  25.617  1.00  0.00    -0.617 OA
ENDBRANCH  14  15
ENDBRANCH  13  14
ENDBRANCH  10  13
ENDBRANCH   1  10
TORSDOF 9
ENDMDL
