MODEL 13
REMARK VINA RESULT: -6.840520471      2.337      5.446
REMARK  9 active torsions:
REMARK  status: ('A' for Active; 'I' for Inactive)
REMARK    1  A    between atoms: C1_2  and  C2_4 
REMARK    2  A    between atoms: C2_4  and  O3_5 
REMARK    3  A    between atoms: C2_4  and  C3_7 
REMARK    4  A    between atoms: C3_7  and  O4_8 
REMARK    5  A    between atoms: C3_7  and  C4_10 
REMARK    6  A    between atoms: C4_10  and  O5_11 
REMARK    7  A    between atoms: C4_10  and  C5_13 
REMARK    8  A    between atoms: C5_13  and  O6_14 
REMARK    9  A    between atoms: O6_14  and  P1_15 
ROOT
HETATM    1  C3  UNL     1      18.083   8.437  30.008  1.00  0.00     0.188 C 
ENDROOT
BRANCH   1   2
HETATM    2  C2  UNL     1      19.420   8.173  30.678  1.00  0.00     0.250 C 
BRANCH   2   3
HETATM    3  C1  UNL     1      20.539   8.715  29.924  1.00  0.00     0.205 C 
HETATM    4  O1  UNL     1      20.717   8.343  28.723  1.00  0.00    -0.646 OA
HETATM    5  O2  UNL     1      21.453   9.628  30.402  1.00  0.00    -0.646 OA
ENDBRANCH   2   3
BRANCH   2   6
HETATM    6  O3  UNL     1      19.339   8.877  31.912  1.00  0.00    -0.382 OA
ATOM      7  H3  UNL     1      19.255   8.238  32.610  1.00  0.00     0.210 HD
ENDBRANCH   2   6
ENDBRANCH   1   2
BRANCH   1   8
HETATM    8  O4  UNL     1      17.973   7.535  28.900  1.00  0.00    -0.390 OA
ATOM      9  H4  UNL     1      17.667   6.702  29.240  1.00  0.00     0.210 HD
ENDBRANCH   1   8
BRANCH   1  10
HETATM   10  C4  UNL     1      18.057   9.807  29.391  1.00  0.00     0.174 C 
BRANCH  10  11
HETATM   11  O5  UNL     1      17.454  10.701  30.236  1.00  0.00    -0.391 OA
ATOM     12  H5  UNL     1      16.760  11.167  29.786  1.00  0.00     0.210 HD
ENDBRANCH  10  11
BRANCH  10  13
HETATM   13  C5  UNL     1      17.356   9.749  28.043  1.00  0.00     0.217 C 
BRANCH  13  14
HETATM   14  O6  UNL     1      16.026   9.496  28.208  1.00  0.00    -0.280 OA
BRANCH  14  15
HETATM   15  P1  UNL     1      15.006  10.744  27.949  1.00  0.00     0.422 P 
HETATM   16  O7  UNL     1      15.981  11.468  27.029  1.00  0.00    -0.617 OA
HETATM   17  O8  UNL     1      13.842  10.692  26.744  1.00  0.00    -0.617 OA
HETATM   18  O9  UNL     1      14.964  11.999  29.017  1.00  0.00    -0.617 OA
ENDBRANCH  14  15
ENDBRANCH  13  14
ENDBRANCH  10  13
ENDBRANCH   1  10
TORSDOF 9
ENDMDL
