MODEL 7
REMARK VINA RESULT: -7.001757678      1.098      1.850
REMARK  9 active torsions:
REMARK  status: ('A' for Active; 'I' for Inactive)
REMARK    1  A    between atoms: C1_2  and  C2_4 
REMARK    2  A    between atoms: C2_4  and  O3_5 
REMARK    3  A    between atoms: C2_4  and  C3_7 
REMARK    4  A    between atoms: C3_7  and  O4_8 
REMARK    5  A    between atoms: C3_7  and  C4_10 
REMARK    6  A    between atoms: C4_10  and  O5_11 
REMARK    7  A    between atoms: C4_10  and  C5_13 
REMARK    8  A    between atoms: C5_13  and  O6_14 
REMARK    9  A    between atoms: O6_14  and  P1_15 
ROOT
HETATM    1  C3  UNL     1      15.645   9.480  28.794  1.00  0.00     0.188 C 
ENDROOT
BRANCH   1   2
HETATM    2  C2  UNL     1      15.386  10.955  28.545  1.00  0.00     0.250 C 
BRANCH   2   3
HETATM    3  C1  UNL     1      14.789  11.205  27.243  1.00  0.00     0.205 C 
HETATM    4  O1  UNL     1      15.286  12.100  26.492  1.00  0.00    -0.646 OA
HETATM    5  O2  UNL     1      13.701  10.537  26.725  1.00  0.00    -0.646 OA
ENDBRANCH   2   3
BRANCH   2   6
HETATM    6  O3  UNL     1      14.436  11.317  29.541  1.00  0.00    -0.382 OA
ATOM      7  H3  UNL     1      14.540  10.723  30.276  1.00  0.00     0.210 HD
ENDBRANCH   2   6
ENDBRANCH   1   2
BRANCH   1   8
HETATM    8  O4  UNL     1      14.443   8.919  29.337  1.00  0.00    -0.390 OA
ATOM      9  H4  UNL     1      13.841   9.636  29.497  1.00  0.00     0.210 HD
ENDBRANCH   1   8
BRANCH   1  10
HETATM   10  C4  UNL     1      16.675   9.293  29.871  1.00  0.00     0.174 C 
BRANCH  10  11
HETATM   11  O5  UNL     1      16.632  10.335  30.761  1.00  0.00    -0.391 OA
ATOM     12  H5  UNL     1      17.214  11.032  30.484  1.00  0.00     0.210 HD
ENDBRANCH  10  11
BRANCH  10  13
HETATM   13  C5  UNL     1      18.053   9.147  29.245  1.00  0.00     0.217 C 
BRANCH  13  14
HETATM   14  O6  UNL     1      19.007   9.675  30.066  1.00  0.00    -0.280 OA
BRANCH  14  15
HETATM   15  P1  UNL     1      20.454   8.921  30.084  1.00  0.00     0.422 P 
HETATM   16  O7  UNL     1      20.424   8.630  28.589  1.00  0.00    -0.617 OA
HETATM   17  O8  UNL     1      21.891   9.770  29.933  1.00  0.00    -0.617 OA
HETATM   18  O9  UNL     1      20.535   7.320  30.470  1.00  0.00    -0.617 OA
ENDBRANCH  14  15
ENDBRANCH  13  14
ENDBRANCH  10  13
ENDBRANCH   1  10
TORSDOF 9
ENDMDL
