MODEL 12
REMARK VINA RESULT: -6.850419313      2.256      5.445
REMARK  9 active torsions:
REMARK  status: ('A' for Active; 'I' for Inactive)
REMARK    1  A    between atoms: C1_2  and  C2_4 
REMARK    2  A    between atoms: C2_4  and  O3_5 
REMARK    3  A    between atoms: C2_4  and  C3_7 
REMARK    4  A    between atoms: C3_7  and  O4_8 
REMARK    5  A    between atoms: C3_7  and  C4_10 
REMARK    6  A    between atoms: C4_10  and  O5_11 
REMARK    7  A    between atoms: C4_10  and  C5_13 
REMARK    8  A    between atoms: C5_13  and  O6_14 
REMARK    9  A    between atoms: O6_14  and  P1_15 
ROOT
HETATM    1  C3  UNL     1      18.635   8.157  29.950  1.00  0.00     0.188 C 
ENDROOT
BRANCH   1   2
HETATM    2  C2  UNL     1      19.702   9.060  29.358  1.00  0.00     0.250 C 
BRANCH   2   3
HETATM    3  C1  UNL     1      20.966   8.973  30.072  1.00  0.00     0.205 C 
HETATM    4  O1  UNL     1      21.187   7.976  30.826  1.00  0.00    -0.646 OA
HETATM    5  O2  UNL     1      21.985   9.899  30.003  1.00  0.00    -0.646 OA
ENDBRANCH   2   3
BRANCH   2   6
HETATM    6  O3  UNL     1      19.904   8.550  28.045  1.00  0.00    -0.382 OA
ATOM      7  H3  UNL     1      19.068   8.567  27.592  1.00  0.00     0.210 HD
ENDBRANCH   2   6
ENDBRANCH   1   2
BRANCH   1   8
HETATM    8  O4  UNL     1      18.037   7.433  28.866  1.00  0.00    -0.390 OA
ATOM      9  H4  UNL     1      17.289   6.964  29.217  1.00  0.00     0.210 HD
ENDBRANCH   1   8
BRANCH   1  10
HETATM   10  C4  UNL     1      17.514   8.967  30.535  1.00  0.00     0.174 C 
BRANCH  10  11
HETATM   11  O5  UNL     1      16.369   8.217  30.608  1.00  0.00    -0.391 OA
ATOM     12  H5  UNL     1      16.018   8.234  31.490  1.00  0.00     0.210 HD
ENDBRANCH  10  11
BRANCH  10  13
HETATM   13  C5  UNL     1      17.307  10.228  29.712  1.00  0.00     0.217 C 
BRANCH  13  14
HETATM   14  O6  UNL     1      16.422   9.995  28.699  1.00  0.00    -0.280 OA
BRANCH  14  15
HETATM   15  P1  UNL     1      15.715  11.305  28.030  1.00  0.00     0.422 P 
HETATM   16  O7  UNL     1      16.759  11.419  26.927  1.00  0.00    -0.617 OA
HETATM   17  O8  UNL     1      14.481  11.160  26.906  1.00  0.00    -0.617 OA
HETATM   18  O9  UNL     1      16.061  12.807  28.615  1.00  0.00    -0.617 OA
ENDBRANCH  14  15
ENDBRANCH  13  14
ENDBRANCH  10  13
ENDBRANCH   1  10
TORSDOF 9
ENDMDL
