MODEL 9
REMARK VINA RESULT: -6.945405551      0.880      1.675
REMARK  9 active torsions:
REMARK  status: ('A' for Active; 'I' for Inactive)
REMARK    1  A    between atoms: C1_2  and  C2_4 
REMARK    2  A    between atoms: C2_4  and  O3_5 
REMARK    3  A    between atoms: C2_4  and  C3_7 
REMARK    4  A    between atoms: C3_7  and  O4_8 
REMARK    5  A    between atoms: C3_7  and  C4_10 
REMARK    6  A    between atoms: C4_10  and  O5_11 
REMARK    7  A    between atoms: C4_10  and  C5_13 
REMARK    8  A    between atoms: C5_13  and  O6_14 
REMARK    9  A    between atoms: O6_14  and  P1_15 
ROOT
HETATM    1  C3  UNL     1      16.601   9.015  28.742  1.00  0.00     0.188 C 
ENDROOT
BRANCH   1   2
HETATM    2  C2  UNL     1      15.246   9.627  29.050  1.00  0.00     0.250 C 
BRANCH   2   3
HETATM    3  C1  UNL     1      14.499   9.964  27.848  1.00  0.00     0.205 C 
HETATM    4  O1  UNL     1      13.590   9.177  27.441  1.00  0.00    -0.646 OA
HETATM    5  O2  UNL     1      14.686  11.096  27.086  1.00  0.00    -0.646 OA
ENDBRANCH   2   3
BRANCH   2   6
HETATM    6  O3  UNL     1      14.542   8.596  29.731  1.00  0.00    -0.382 OA
ATOM      7  H3  UNL     1      13.937   9.005  30.339  1.00  0.00     0.210 HD
ENDBRANCH   2   6
ENDBRANCH   1   2
BRANCH   1   8
HETATM    8  O4  UNL     1      16.862   8.025  29.746  1.00  0.00    -0.390 OA
ATOM      9  H4  UNL     1      17.516   7.432  29.397  1.00  0.00     0.210 HD
ENDBRANCH   1   8
BRANCH   1  10
HETATM   10  C4  UNL     1      17.696  10.028  28.909  1.00  0.00     0.174 C 
BRANCH  10  11
HETATM   11  O5  UNL     1      17.227  11.289  28.645  1.00  0.00    -0.391 OA
ATOM     12  H5  UNL     1      16.695  11.286  27.859  1.00  0.00     0.210 HD
ENDBRANCH  10  11
BRANCH  10  13
HETATM   13  C5  UNL     1      18.871   9.669  28.014  1.00  0.00     0.217 C 
BRANCH  13  14
HETATM   14  O6  UNL     1      19.609   8.668  28.576  1.00  0.00    -0.280 OA
BRANCH  14  15
HETATM   15  P1  UNL     1      20.363   9.016  29.981  1.00  0.00     0.422 P 
HETATM   16  O7  UNL     1      20.953   7.618  30.116  1.00  0.00    -0.617 OA
HETATM   17  O8  UNL     1      21.888   9.709  30.012  1.00  0.00    -0.617 OA
HETATM   18  O9  UNL     1      19.539   8.886  31.403  1.00  0.00    -0.617 OA
ENDBRANCH  14  15
ENDBRANCH  13  14
ENDBRANCH  10  13
ENDBRANCH   1  10
TORSDOF 9
ENDMDL
