MODEL 3
REMARK VINA RESULT: -10.667568964      3.693      9.935
REMARK  14 active torsions:
REMARK  status: ('A' for Active; 'I' for Inactive)
REMARK    1  A    between atoms: N1_5  and  C4_6 
REMARK    2  A    between atoms: C5_8  and  C6_9 
REMARK    3  A    between atoms: C6_9  and  O3_10 
REMARK    4  A    between atoms: O3_10  and  P1_11 
REMARK    5  A    between atoms: P1_11  and  O6_14 
REMARK    6  A    between atoms: O6_14  and  P2_15 
REMARK    7  A    between atoms: P2_15  and  O9_18 
REMARK    8  A    between atoms: O9_18  and  C7_19 
REMARK    9  A    between atoms: C8_21  and  C9_22 
REMARK   10  A    between atoms: C9_22  and  O11_23 
REMARK   11  A    between atoms: C10_25  and  O12_26 
REMARK   12  A    between atoms: C11_28  and  O13_29 
REMARK   13  A    between atoms: C13_33  and  O14_34 
REMARK   14  A    between atoms: C14_36  and  O15_37 
ROOT
HETATM    1  P1  UNL     1      25.344  47.955  66.774  1.00  0.00     0.417 P 
HETATM    2  O4  UNL     1      24.553  46.707  67.092  1.00  0.00    -0.624 OA
HETATM    3  O5  UNL     1      26.957  47.663  67.227  1.00  0.00    -0.624 OA
ENDROOT
BRANCH   1   4
HETATM    4  O3  UNL     1      25.360  48.255  65.097  1.00  0.00    -0.287 OA
BRANCH   4   5
HETATM    5  C6  UNL     1      25.816  47.096  64.485  1.00  0.00     0.216 C 
BRANCH   5   6
HETATM    6  C5  UNL     1      26.954  47.358  63.530  1.00  0.00     0.180 C 
HETATM    7  O2  UNL     1      27.081  46.356  62.574  1.00  0.00    -0.353 OA
HETATM    8  C4  UNL     1      27.877  46.985  61.611  1.00  0.00     0.263 C 
HETATM    9  C14 UNL     1      27.043  48.234  61.325  1.00  0.00     0.198 C 
HETATM   10  C13 UNL     1      26.579  48.599  62.730  1.00  0.00     0.182 C 
BRANCH   8  11
HETATM   11  N1  UNL     1      28.038  46.170  60.432  1.00  0.00    -0.280 N 
HETATM   12  C3  UNL     1      27.018  45.726  59.697  1.00  0.00     0.104 A 
HETATM   13  C2  UNL     1      27.248  44.958  58.592  1.00  0.00     0.092 A 
HETATM   14  C1  UNL     1      28.555  44.663  58.269  1.00  0.00     0.250 A 
HETATM   15  O1  UNL     1      28.781  43.962  57.260  1.00  0.00    -0.268 OA
HETATM   16  N2  UNL     1      29.581  45.102  58.995  1.00  0.00    -0.275 N 
HETATM   17  C15 UNL     1      29.310  45.855  60.077  1.00  0.00     0.331 A 
ATOM     18  H2  UNL     1      30.542  44.874  58.740  1.00  0.00     0.173 HD
HETATM   19  O16 UNL     1      30.285  46.266  60.760  1.00  0.00    -0.246 OA
ENDBRANCH   8  11
BRANCH   9  20
HETATM   20  O15 UNL     1      27.816  49.239  60.765  1.00  0.00    -0.388 OA
ATOM     21  H15 UNL     1      27.506  50.098  61.024  1.00  0.00     0.210 HD
ENDBRANCH   9  20
BRANCH  10  22
HETATM   22  O14 UNL     1      27.256  49.705  63.216  1.00  0.00    -0.390 OA
ATOM     23  H14 UNL     1      26.754  50.496  63.053  1.00  0.00     0.210 HD
ENDBRANCH  10  22
ENDBRANCH   5   6
ENDBRANCH   4   5
ENDBRANCH   1   4
BRANCH   1  24
HETATM   24  O6  UNL     1      24.730  49.302  67.607  1.00  0.00    -0.180 OA
BRANCH  24  25
HETATM   25  P2  UNL     1      25.350  50.676  66.852  1.00  0.00     0.420 P 
HETATM   26  O7  UNL     1      25.437  51.770  67.917  1.00  0.00    -0.624 OA
HETATM   27  O8  UNL     1      26.905  50.429  66.263  1.00  0.00    -0.624 OA
BRANCH  25  28
HETATM   28  O9  UNL     1      24.327  51.252  65.643  1.00  0.00    -0.255 OA
BRANCH  28  29
HETATM   29  C7  UNL     1      23.494  52.202  66.213  1.00  0.00     0.309 C 
HETATM   30  O10 UNL     1      23.558  53.320  65.385  1.00  0.00    -0.348 OA
HETATM   31  C8  UNL     1      22.683  54.311  65.744  1.00  0.00     0.179 C 
HETATM   32  C10 UNL     1      21.291  53.873  65.439  1.00  0.00     0.180 C 
HETATM   33  C11 UNL     1      21.051  52.408  65.635  1.00  0.00     0.188 C 
HETATM   34  C12 UNL     1      22.092  51.701  66.416  1.00  0.00     0.257 C 
HETATM   35  F1  UNL     1      22.099  50.346  66.054  1.00  0.00    -0.241 F 
BRANCH  31  36
HETATM   36  C9  UNL     1      22.856  54.766  67.176  1.00  0.00     0.198 C 
BRANCH  36  37
HETATM   37  O11 UNL     1      22.931  56.157  67.199  1.00  0.00    -0.398 OA
ATOM     38  H11 UNL     1      22.588  56.469  68.028  1.00  0.00     0.209 HD
ENDBRANCH  36  37
ENDBRANCH  31  36
BRANCH  32  39
HETATM   39  O12 UNL     1      20.413  54.654  66.222  1.00  0.00    -0.390 OA
ATOM     40  H12 UNL     1      20.106  55.373  65.684  1.00  0.00     0.210 HD
ENDBRANCH  32  39
BRANCH  33  41
HETATM   41  O13 UNL     1      19.828  52.268  66.333  1.00  0.00    -0.390 OA
ATOM     42  H13 UNL     1      19.205  51.865  65.739  1.00  0.00     0.210 HD
ENDBRANCH  33  41
ENDBRANCH  28  29
ENDBRANCH  25  28
ENDBRANCH  24  25
ENDBRANCH   1  24
TORSDOF 14
ENDMDL
