MODEL 1
REMARK VINA RESULT: -10.831703731      0.000      0.000
REMARK  14 active torsions:
REMARK  status: ('A' for Active; 'I' for Inactive)
REMARK    1  A    between atoms: N1_5  and  C4_6 
REMARK    2  A    between atoms: C5_8  and  C6_9 
REMARK    3  A    between atoms: C6_9  and  O3_10 
REMARK    4  A    between atoms: O3_10  and  P1_11 
REMARK    5  A    between atoms: P1_11  and  O6_14 
REMARK    6  A    between atoms: O6_14  and  P2_15 
REMARK    7  A    between atoms: P2_15  and  O9_18 
REMARK    8  A    between atoms: O9_18  and  C7_19 
REMARK    9  A    between atoms: C8_21  and  C9_22 
REMARK   10  A    between atoms: C9_22  and  O11_23 
REMARK   11  A    between atoms: C10_25  and  O12_26 
REMARK   12  A    between atoms: C11_28  and  O13_29 
REMARK   13  A    between atoms: C13_33  and  O14_34 
REMARK   14  A    between atoms: C14_36  and  O15_37 
ROOT
HETATM    1  P1  UNL     1      26.532  49.349  62.093  1.00  0.00     0.417 P 
HETATM    2  O4  UNL     1      26.675  50.723  62.706  1.00  0.00    -0.624 OA
HETATM    3  O5  UNL     1      28.082  48.846  61.609  1.00  0.00    -0.624 OA
ENDROOT
BRANCH   1   4
HETATM    4  O3  UNL     1      25.996  48.219  63.250  1.00  0.00    -0.287 OA
BRANCH   4   5
HETATM    5  C6  UNL     1      26.920  48.234  64.286  1.00  0.00     0.216 C 
BRANCH   5   6
HETATM    6  C5  UNL     1      26.295  48.595  65.610  1.00  0.00     0.180 C 
HETATM    7  O2  UNL     1      25.559  49.772  65.541  1.00  0.00    -0.353 OA
HETATM    8  C4  UNL     1      24.780  49.686  66.700  1.00  0.00     0.263 C 
HETATM    9  C14 UNL     1      24.105  48.330  66.488  1.00  0.00     0.198 C 
HETATM   10  C13 UNL     1      25.261  47.519  65.916  1.00  0.00     0.182 C 
BRANCH   8  11
HETATM   11  N1  UNL     1      23.815  50.755  66.780  1.00  0.00    -0.280 N 
HETATM   12  C3  UNL     1      22.653  50.751  66.127  1.00  0.00     0.104 A 
HETATM   13  C2  UNL     1      21.788  51.799  66.252  1.00  0.00     0.092 A 
HETATM   14  C1  UNL     1      22.157  52.849  67.067  1.00  0.00     0.250 A 
HETATM   15  O1  UNL     1      21.376  53.815  67.192  1.00  0.00    -0.268 OA
HETATM   16  N2  UNL     1      23.315  52.863  67.724  1.00  0.00    -0.275 N 
HETATM   17  C15 UNL     1      24.138  51.809  67.572  1.00  0.00     0.331 A 
ATOM     18  H2  UNL     1      23.569  53.648  68.323  1.00  0.00     0.173 HD
HETATM   19  O16 UNL     1      25.232  51.830  68.196  1.00  0.00    -0.246 OA
ENDBRANCH   8  11
BRANCH   9  20
HETATM   20  O15 UNL     1      23.651  47.800  67.685  1.00  0.00    -0.388 OA
ATOM     21  H15 UNL     1      22.804  48.158  67.923  1.00  0.00     0.210 HD
ENDBRANCH   9  20
BRANCH  10  22
HETATM   22  O14 UNL     1      25.761  46.624  66.846  1.00  0.00    -0.390 OA
ATOM     23  H14 UNL     1      25.709  46.994  67.720  1.00  0.00     0.210 HD
ENDBRANCH  10  22
ENDBRANCH   5   6
ENDBRANCH   4   5
ENDBRANCH   1   4
BRANCH   1  24
HETATM   24  O6  UNL     1      25.475  49.375  60.763  1.00  0.00    -0.180 OA
BRANCH  24  25
HETATM   25  P2  UNL     1      26.206  48.486  59.532  1.00  0.00     0.420 P 
HETATM   26  O7  UNL     1      25.466  48.824  58.237  1.00  0.00    -0.624 OA
HETATM   27  O8  UNL     1      27.817  48.914  59.311  1.00  0.00    -0.624 OA
BRANCH  25  28
HETATM   28  O9  UNL     1      26.046  46.825  59.767  1.00  0.00    -0.255 OA
BRANCH  28  29
HETATM   29  C7  UNL     1      27.321  46.283  59.830  1.00  0.00     0.309 C 
HETATM   30  O10 UNL     1      27.383  45.580  61.030  1.00  0.00    -0.348 OA
HETATM   31  C8  UNL     1      28.547  44.873  61.184  1.00  0.00     0.179 C 
HETATM   32  C10 UNL     1      28.551  43.720  60.236  1.00  0.00     0.180 C 
HETATM   33  C11 UNL     1      27.888  44.003  58.924  1.00  0.00     0.188 C 
HETATM   34  C12 UNL     1      27.653  45.437  58.634  1.00  0.00     0.257 C 
HETATM   35  F1  UNL     1      26.572  45.557  57.750  1.00  0.00    -0.241 F 
BRANCH  31  36
HETATM   36  C9  UNL     1      29.785  45.733  61.069  1.00  0.00     0.198 C 
BRANCH  36  37
HETATM   37  O11 UNL     1      30.776  45.206  61.893  1.00  0.00    -0.398 OA
ATOM     38  H11 UNL     1      30.367  44.660  62.555  1.00  0.00     0.209 HD
ENDBRANCH  36  37
ENDBRANCH  31  36
BRANCH  32  39
HETATM   39  O12 UNL     1      29.891  43.310  60.065  1.00  0.00    -0.390 OA
ATOM     40  H12 UNL     1      30.112  43.417  59.147  1.00  0.00     0.210 HD
ENDBRANCH  32  39
BRANCH  33  41
HETATM   41  O13 UNL     1      28.730  43.497  57.905  1.00  0.00    -0.390 OA
ATOM     42  H13 UNL     1      29.089  44.241  57.435  1.00  0.00     0.210 HD
ENDBRANCH  33  41
ENDBRANCH  28  29
ENDBRANCH  25  28
ENDBRANCH  24  25
ENDBRANCH   1  24
TORSDOF 14
ENDMDL
