MODEL 2
REMARK VINA RESULT: -10.822408190      3.596      9.835
REMARK  14 active torsions:
REMARK  status: ('A' for Active; 'I' for Inactive)
REMARK    1  A    between atoms: N1_5  and  C4_6 
REMARK    2  A    between atoms: C5_8  and  C6_9 
REMARK    3  A    between atoms: C6_9  and  O3_10 
REMARK    4  A    between atoms: O3_10  and  P1_11 
REMARK    5  A    between atoms: P1_11  and  O6_14 
REMARK    6  A    between atoms: O6_14  and  P2_15 
REMARK    7  A    between atoms: P2_15  and  O9_18 
REMARK    8  A    between atoms: O9_18  and  C7_19 
REMARK    9  A    between atoms: C8_21  and  C9_22 
REMARK   10  A    between atoms: C9_22  and  O11_23 
REMARK   11  A    between atoms: C10_25  and  O12_26 
REMARK   12  A    between atoms: C11_28  and  O13_29 
REMARK   13  A    between atoms: C13_33  and  O14_34 
REMARK   14  A    between atoms: C14_36  and  O15_37 
ROOT
HETATM    1  P1  UNL     1      27.050  48.267  66.014  1.00  0.00     0.417 P 
HETATM    2  O4  UNL     1      28.203  47.305  65.840  1.00  0.00    -0.624 OA
HETATM    3  O5  UNL     1      27.704  49.761  66.493  1.00  0.00    -0.624 OA
ENDROOT
BRANCH   1   4
HETATM    4  O3  UNL     1      26.256  48.540  64.531  1.00  0.00    -0.287 OA
BRANCH   4   5
HETATM    5  C6  UNL     1      26.438  47.400  63.761  1.00  0.00     0.216 C 
BRANCH   5   6
HETATM    6  C5  UNL     1      27.247  47.668  62.516  1.00  0.00     0.180 C 
HETATM    7  O2  UNL     1      27.405  46.529  61.735  1.00  0.00    -0.353 OA
HETATM    8  C4  UNL     1      27.801  47.080  60.512  1.00  0.00     0.263 C 
HETATM    9  C14 UNL     1      26.649  48.051  60.251  1.00  0.00     0.198 C 
HETATM   10  C13 UNL     1      26.422  48.611  61.650  1.00  0.00     0.182 C 
BRANCH   8  11
HETATM   11  N1  UNL     1      27.898  46.078  59.478  1.00  0.00    -0.280 N 
HETATM   12  C3  UNL     1      26.853  45.637  58.778  1.00  0.00     0.104 A 
HETATM   13  C2  UNL     1      27.021  44.686  57.813  1.00  0.00     0.092 A 
HETATM   14  C1  UNL     1      28.294  44.206  57.593  1.00  0.00     0.250 A 
HETATM   15  O1  UNL     1      28.464  43.336  56.713  1.00  0.00    -0.268 OA
HETATM   16  N2  UNL     1      29.345  44.640  58.286  1.00  0.00    -0.275 N 
HETATM   17  C15 UNL     1      29.134  45.577  59.228  1.00  0.00     0.331 A 
ATOM     18  H2  UNL     1      30.280  44.273  58.108  1.00  0.00     0.173 HD
HETATM   19  O16 UNL     1      30.133  45.983  59.880  1.00  0.00    -0.246 OA
ENDBRANCH   8  11
BRANCH   9  20
HETATM   20  O15 UNL     1      27.018  49.043  59.357  1.00  0.00    -0.388 OA
ATOM     21  H15 UNL     1      26.587  49.865  59.556  1.00  0.00     0.210 HD
ENDBRANCH   9  20
BRANCH  10  22
HETATM   22  O14 UNL     1      26.900  49.906  61.761  1.00  0.00    -0.390 OA
ATOM     23  H14 UNL     1      26.229  50.527  61.503  1.00  0.00     0.210 HD
ENDBRANCH  10  22
ENDBRANCH   5   6
ENDBRANCH   4   5
ENDBRANCH   1   4
BRANCH   1  24
HETATM   24  O6  UNL     1      25.947  47.702  67.176  1.00  0.00    -0.180 OA
BRANCH  24  25
HETATM   25  P2  UNL     1      24.478  48.473  66.880  1.00  0.00     0.420 P 
HETATM   26  O7  UNL     1      23.641  47.525  66.020  1.00  0.00    -0.624 OA
HETATM   27  O8  UNL     1      23.615  48.757  68.294  1.00  0.00    -0.624 OA
BRANCH  25  28
HETATM   28  O9  UNL     1      24.673  49.893  65.993  1.00  0.00    -0.255 OA
BRANCH  28  29
HETATM   29  C7  UNL     1      24.048  50.916  66.691  1.00  0.00     0.309 C 
HETATM   30  O10 UNL     1      25.001  51.920  66.841  1.00  0.00    -0.348 OA
HETATM   31  C8  UNL     1      24.500  53.063  67.404  1.00  0.00     0.179 C 
HETATM   32  C10 UNL     1      23.599  53.739  66.426  1.00  0.00     0.180 C 
HETATM   33  C11 UNL     1      22.820  52.800  65.558  1.00  0.00     0.188 C 
HETATM   34  C12 UNL     1      22.791  51.393  66.023  1.00  0.00     0.257 C 
HETATM   35  F1  UNL     1      22.580  50.548  64.923  1.00  0.00    -0.241 F 
BRANCH  31  36
HETATM   36  C9  UNL     1      23.840  52.826  68.744  1.00  0.00     0.198 C 
BRANCH  36  37
HETATM   37  O11 UNL     1      24.222  53.841  69.618  1.00  0.00    -0.398 OA
ATOM     38  H11 UNL     1      24.305  53.478  70.492  1.00  0.00     0.209 HD
ENDBRANCH  36  37
ENDBRANCH  31  36
BRANCH  32  39
HETATM   39  O12 UNL     1      22.749  54.604  67.150  1.00  0.00    -0.390 OA
ATOM     40  H12 UNL     1      21.979  54.766  66.617  1.00  0.00     0.210 HD
ENDBRANCH  32  39
BRANCH  33  41
HETATM   41  O13 UNL     1      21.484  53.263  65.522  1.00  0.00    -0.390 OA
ATOM     42  H13 UNL     1      20.982  52.647  65.001  1.00  0.00     0.210 HD
ENDBRANCH  33  41
ENDBRANCH  28  29
ENDBRANCH  25  28
ENDBRANCH  24  25
ENDBRANCH   1  24
TORSDOF 14
ENDMDL
