MODEL 3
REMARK VINA RESULT: -7.713396819      1.054      2.040
REMARK  8 active torsions:
REMARK  status: ('A' for Active; 'I' for Inactive)
REMARK    1  A    between atoms: C1_2  and  C2_4 
REMARK    2  A    between atoms: C2_4  and  C3_5 
REMARK    3  A    between atoms: C3_5  and  C4_6 
REMARK    4  A    between atoms: C4_6  and  C5_7 
REMARK    5  A    between atoms: C5_7  and  P1_8 
REMARK    6  A    between atoms: P1_8  and  O5_11 
REMARK    7  A    between atoms: O5_11  and  C6_12 
REMARK    8  A    between atoms: C9_15  and  N1_16 
ROOT
HETATM    1  P1  UNL     1      60.510  -7.428  11.100  1.00  0.00     0.254 P 
HETATM    2  O3  UNL     1      59.964  -6.270  12.161  1.00  0.00    -0.646 OA
HETATM    3  O4  UNL     1      59.980  -7.336   9.505  1.00  0.00    -0.646 OA
ENDROOT
BRANCH   1   4
HETATM    4  C5  UNL     1      61.808  -8.479  11.520  1.00  0.00     0.136 C 
BRANCH   4   5
HETATM    5  C4  UNL     1      62.939  -8.553  10.473  1.00  0.00     0.013 C 
BRANCH   5   6
HETATM    6  C3  UNL     1      63.802  -9.782  10.800  1.00  0.00     0.011 C 
BRANCH   6   7
HETATM    7  C2  UNL     1      62.816 -10.845  11.295  1.00  0.00     0.113 C 
BRANCH   7   8
HETATM    8  C1  UNL     1      62.793 -11.898  10.251  1.00  0.00     0.172 C 
HETATM    9  O1  UNL     1      63.105 -13.091  10.534  1.00  0.00    -0.648 OA
HETATM   10  O2  UNL     1      62.432 -11.615   8.936  1.00  0.00    -0.648 OA
ENDBRANCH   7   8
ENDBRANCH   6   7
ENDBRANCH   5   6
ENDBRANCH   4   5
ENDBRANCH   1   4
BRANCH   1  11
HETATM   11  O5  UNL     1      59.319  -8.360  11.388  1.00  0.00    -0.270 OA
BRANCH  11  12
HETATM   12  C6  UNL     1      58.616  -8.677  12.511  1.00  0.00     0.079 A 
HETATM   13  C7  UNL     1      59.102  -9.391  13.583  1.00  0.00     0.040 A 
HETATM   14  C8  UNL     1      58.291  -9.651  14.666  1.00  0.00     0.039 A 
HETATM   15  C9  UNL     1      56.983  -9.227  14.741  1.00  0.00     0.103 A 
HETATM   16  C10 UNL     1      56.481  -8.511  13.676  1.00  0.00     0.039 A 
HETATM   17  C11 UNL     1      57.294  -8.244  12.578  1.00  0.00     0.040 A 
BRANCH  15  18
HETATM   18  N1  UNL     1      56.165  -9.514  15.886  1.00  0.00    -0.116 N 
HETATM   19  O6  UNL     1      56.485 -10.431  16.668  1.00  0.00    -0.532 OA
HETATM   20  O7  UNL     1      55.027  -8.814  16.160  1.00  0.00    -0.532 OA
ENDBRANCH  15  18
ENDBRANCH  11  12
ENDBRANCH   1  11
TORSDOF 8
ENDMDL
