MODEL 9
REMARK VINA RESULT: -7.531497323      2.829      7.605
REMARK  8 active torsions:
REMARK  status: ('A' for Active; 'I' for Inactive)
REMARK    1  A    between atoms: C1_2  and  C2_4 
REMARK    2  A    between atoms: C2_4  and  C3_5 
REMARK    3  A    between atoms: C3_5  and  C4_6 
REMARK    4  A    between atoms: C4_6  and  C5_7 
REMARK    5  A    between atoms: C5_7  and  P1_8 
REMARK    6  A    between atoms: P1_8  and  O5_11 
REMARK    7  A    between atoms: O5_11  and  C6_12 
REMARK    8  A    between atoms: C9_15  and  N1_16 
ROOT
HETATM    1  P1  UNL     1      57.239  -8.050  12.547  1.00  0.00     0.254 P 
HETATM    2  O3  UNL     1      57.579  -8.259  10.932  1.00  0.00    -0.646 OA
HETATM    3  O4  UNL     1      56.900  -6.488  13.076  1.00  0.00    -0.646 OA
ENDROOT
BRANCH   1   4
HETATM    4  C5  UNL     1      56.926  -9.397  13.573  1.00  0.00     0.136 C 
BRANCH   4   5
HETATM    5  C4  UNL     1      57.849  -9.493  14.806  1.00  0.00     0.013 C 
BRANCH   5   6
HETATM    6  C3  UNL     1      57.043 -10.137  15.946  1.00  0.00     0.011 C 
BRANCH   6   7
HETATM    7  C2  UNL     1      55.587 -10.118  15.470  1.00  0.00     0.113 C 
BRANCH   7   8
HETATM    8  C1  UNL     1      54.829  -9.381  16.509  1.00  0.00     0.172 C 
HETATM    9  O1  UNL     1      54.917  -8.122  16.598  1.00  0.00    -0.648 OA
HETATM   10  O2  UNL     1      54.000 -10.039  17.414  1.00  0.00    -0.648 OA
ENDBRANCH   7   8
ENDBRANCH   6   7
ENDBRANCH   5   6
ENDBRANCH   4   5
ENDBRANCH   1   4
BRANCH   1  11
HETATM   11  O5  UNL     1      58.715  -7.794  12.900  1.00  0.00    -0.270 OA
BRANCH  11  12
HETATM   12  C6  UNL     1      59.901  -8.193  12.360  1.00  0.00     0.079 A 
HETATM   13  C7  UNL     1      60.467  -9.440  12.509  1.00  0.00     0.040 A 
HETATM   14  C8  UNL     1      61.676  -9.726  11.913  1.00  0.00     0.039 A 
HETATM   15  C9  UNL     1      62.372  -8.812  11.154  1.00  0.00     0.103 A 
HETATM   16  C10 UNL     1      61.819  -7.560  10.995  1.00  0.00     0.039 A 
HETATM   17  C11 UNL     1      60.598  -7.263  11.594  1.00  0.00     0.040 A 
BRANCH  15  18
HETATM   18  N1  UNL     1      63.629  -9.144  10.546  1.00  0.00    -0.116 N 
HETATM   19  O6  UNL     1      63.719  -9.234   9.306  1.00  0.00    -0.532 OA
HETATM   20  O7  UNL     1      64.755  -9.372  11.282  1.00  0.00    -0.532 OA
ENDBRANCH  15  18
ENDBRANCH  11  12
ENDBRANCH   1  11
TORSDOF 8
ENDMDL
