MODEL 8
REMARK VINA RESULT: -7.555397336      3.425      7.340
REMARK  8 active torsions:
REMARK  status: ('A' for Active; 'I' for Inactive)
REMARK    1  A    between atoms: C1_2  and  C2_4 
REMARK    2  A    between atoms: C2_4  and  C3_5 
REMARK    3  A    between atoms: C3_5  and  C4_6 
REMARK    4  A    between atoms: C4_6  and  C5_7 
REMARK    5  A    between atoms: C5_7  and  P1_8 
REMARK    6  A    between atoms: P1_8  and  O5_11 
REMARK    7  A    between atoms: O5_11  and  C6_12 
REMARK    8  A    between atoms: C9_15  and  N1_16 
ROOT
HETATM    1  P1  UNL     1      55.452  -9.266  15.816  1.00  0.00     0.254 P 
HETATM    2  O3  UNL     1      56.688 -10.020  16.635  1.00  0.00    -0.646 OA
HETATM    3  O4  UNL     1      54.048 -10.151  15.537  1.00  0.00    -0.646 OA
ENDROOT
BRANCH   1   4
HETATM    4  C5  UNL     1      55.468  -7.565  15.549  1.00  0.00     0.136 C 
BRANCH   4   5
HETATM    5  C4  UNL     1      54.539  -7.084  14.415  1.00  0.00     0.013 C 
BRANCH   5   6
HETATM    6  C3  UNL     1      55.383  -6.250  13.438  1.00  0.00     0.011 C 
BRANCH   6   7
HETATM    7  C2  UNL     1      54.422  -5.201  12.869  1.00  0.00     0.113 C 
BRANCH   7   8
HETATM    8  C1  UNL     1      53.901  -5.771  11.603  1.00  0.00     0.172 C 
HETATM    9  O1  UNL     1      52.701  -5.572  11.255  1.00  0.00    -0.648 OA
HETATM   10  O2  UNL     1      54.704  -6.535  10.761  1.00  0.00    -0.648 OA
ENDBRANCH   7   8
ENDBRANCH   6   7
ENDBRANCH   5   6
ENDBRANCH   4   5
ENDBRANCH   1   4
BRANCH   1  11
HETATM   11  O5  UNL     1      55.966  -9.747  14.447  1.00  0.00    -0.270 OA
BRANCH  11  12
HETATM   12  C6  UNL     1      57.016  -9.394  13.653  1.00  0.00     0.079 A 
HETATM   13  C7  UNL     1      58.340  -9.400  14.030  1.00  0.00     0.040 A 
HETATM   14  C8  UNL     1      59.316  -9.020  13.135  1.00  0.00     0.039 A 
HETATM   15  C9  UNL     1      59.036  -8.622  11.846  1.00  0.00     0.103 A 
HETATM   16  C10 UNL     1      57.716  -8.610  11.453  1.00  0.00     0.039 A 
HETATM   17  C11 UNL     1      56.724  -8.994  12.352  1.00  0.00     0.040 A 
BRANCH  15  18
HETATM   18  N1  UNL     1      60.078  -8.233  10.938  1.00  0.00    -0.116 N 
HETATM   19  O6  UNL     1      59.835  -7.430  10.016  1.00  0.00    -0.532 OA
HETATM   20  O7  UNL     1      61.350  -8.715  11.041  1.00  0.00    -0.532 OA
ENDBRANCH  15  18
ENDBRANCH  11  12
ENDBRANCH   1  11
TORSDOF 8
ENDMDL
