MODEL 6
REMARK VINA RESULT: -7.575736430      1.563      2.263
REMARK  8 active torsions:
REMARK  status: ('A' for Active; 'I' for Inactive)
REMARK    1  A    between atoms: C1_2  and  C2_4 
REMARK    2  A    between atoms: C2_4  and  C3_5 
REMARK    3  A    between atoms: C3_5  and  C4_6 
REMARK    4  A    between atoms: C4_6  and  C5_7 
REMARK    5  A    between atoms: C5_7  and  P1_8 
REMARK    6  A    between atoms: P1_8  and  O5_11 
REMARK    7  A    between atoms: O5_11  and  C6_12 
REMARK    8  A    between atoms: C9_15  and  N1_16 
ROOT
HETATM    1  P1  UNL     1      60.611  -7.475  11.162  1.00  0.00     0.254 P 
HETATM    2  O3  UNL     1      59.927  -6.319  12.142  1.00  0.00    -0.646 OA
HETATM    3  O4  UNL     1      60.155  -7.493   9.542  1.00  0.00    -0.646 OA
ENDROOT
BRANCH   1   4
HETATM    4  C5  UNL     1      61.962  -8.403  11.690  1.00  0.00     0.136 C 
BRANCH   4   5
HETATM    5  C4  UNL     1      61.874  -9.909  11.362  1.00  0.00     0.013 C 
BRANCH   5   6
HETATM    6  C3  UNL     1      63.088 -10.272  10.493  1.00  0.00     0.011 C 
BRANCH   6   7
HETATM    7  C2  UNL     1      63.602 -11.601  11.053  1.00  0.00     0.113 C 
BRANCH   7   8
HETATM    8  C1  UNL     1      64.735 -11.256  11.946  1.00  0.00     0.172 C 
HETATM    9  O1  UNL     1      65.137 -12.077  12.821  1.00  0.00    -0.648 OA
HETATM   10  O2  UNL     1      65.390 -10.031  11.855  1.00  0.00    -0.648 OA
ENDBRANCH   7   8
ENDBRANCH   6   7
ENDBRANCH   5   6
ENDBRANCH   4   5
ENDBRANCH   1   4
BRANCH   1  11
HETATM   11  O5  UNL     1      59.481  -8.484  11.439  1.00  0.00    -0.270 OA
BRANCH  11  12
HETATM   12  C6  UNL     1      58.698  -8.754  12.520  1.00  0.00     0.079 A 
HETATM   13  C7  UNL     1      59.108  -9.408  13.660  1.00  0.00     0.040 A 
HETATM   14  C8  UNL     1      58.220  -9.625  14.691  1.00  0.00     0.039 A 
HETATM   15  C9  UNL     1      56.906  -9.214  14.647  1.00  0.00     0.103 A 
HETATM   16  C10 UNL     1      56.479  -8.559  13.512  1.00  0.00     0.039 A 
HETATM   17  C11 UNL     1      57.371  -8.336  12.466  1.00  0.00     0.040 A 
BRANCH  15  18
HETATM   18  N1  UNL     1      56.007  -9.456  15.739  1.00  0.00    -0.116 N 
HETATM   19  O6  UNL     1      54.902  -8.880  15.777  1.00  0.00    -0.532 OA
HETATM   20  O7  UNL     1      56.317 -10.305  16.762  1.00  0.00    -0.532 OA
ENDBRANCH  15  18
ENDBRANCH  11  12
ENDBRANCH   1  11
TORSDOF 8
ENDMDL
