MODEL 10
REMARK VINA RESULT: -7.418888888      1.325      1.904
REMARK  8 active torsions:
REMARK  status: ('A' for Active; 'I' for Inactive)
REMARK    1  A    between atoms: C1_2  and  C2_4 
REMARK    2  A    between atoms: C2_4  and  C3_5 
REMARK    3  A    between atoms: C3_5  and  C4_6 
REMARK    4  A    between atoms: C4_6  and  C5_7 
REMARK    5  A    between atoms: C5_7  and  P1_8 
REMARK    6  A    between atoms: P1_8  and  O5_11 
REMARK    7  A    between atoms: O5_11  and  C6_12 
REMARK    8  A    between atoms: C9_15  and  N1_16 
ROOT
HETATM    1  P1  UNL     1      60.497  -7.439  11.201  1.00  0.00     0.254 P 
HETATM    2  O3  UNL     1      59.863  -6.302  12.237  1.00  0.00    -0.646 OA
HETATM    3  O4  UNL     1      60.006  -7.386   9.592  1.00  0.00    -0.646 OA
ENDROOT
BRANCH   1   4
HETATM    4  C5  UNL     1      61.835  -8.418  11.666  1.00  0.00     0.136 C 
BRANCH   4   5
HETATM    5  C4  UNL     1      61.692  -9.912  11.307  1.00  0.00     0.013 C 
BRANCH   5   6
HETATM    6  C3  UNL     1      63.104 -10.512  11.222  1.00  0.00     0.011 C 
BRANCH   6   7
HETATM    7  C2  UNL     1      63.881  -9.583  10.285  1.00  0.00     0.113 C 
BRANCH   7   8
HETATM    8  C1  UNL     1      65.216  -9.400  10.906  1.00  0.00     0.172 C 
HETATM    9  O1  UNL     1      66.021  -8.534  10.457  1.00  0.00    -0.648 OA
HETATM   10  O2  UNL     1      65.626 -10.167  11.994  1.00  0.00    -0.648 OA
ENDBRANCH   7   8
ENDBRANCH   6   7
ENDBRANCH   5   6
ENDBRANCH   4   5
ENDBRANCH   1   4
BRANCH   1  11
HETATM   11  O5  UNL     1      59.348  -8.428  11.466  1.00  0.00    -0.270 OA
BRANCH  11  12
HETATM   12  C6  UNL     1      58.598  -8.737  12.561  1.00  0.00     0.079 A 
HETATM   13  C7  UNL     1      59.059  -9.379  13.689  1.00  0.00     0.040 A 
HETATM   14  C8  UNL     1      58.201  -9.639  14.736  1.00  0.00     0.039 A 
HETATM   15  C9  UNL     1      56.870  -9.283  14.720  1.00  0.00     0.103 A 
HETATM   16  C10 UNL     1      56.394  -8.640  13.598  1.00  0.00     0.039 A 
HETATM   17  C11 UNL     1      57.254  -8.374  12.536  1.00  0.00     0.040 A 
BRANCH  15  18
HETATM   18  N1  UNL     1      56.004  -9.568  15.828  1.00  0.00    -0.116 N 
HETATM   19  O6  UNL     1      56.373 -10.351  16.725  1.00  0.00    -0.532 OA
HETATM   20  O7  UNL     1      54.765  -9.007  15.945  1.00  0.00    -0.532 OA
ENDBRANCH  15  18
ENDBRANCH  11  12
ENDBRANCH   1  11
TORSDOF 8
ENDMDL
