MODEL 7
REMARK VINA RESULT: -7.574814602      2.818      7.621
REMARK  8 active torsions:
REMARK  status: ('A' for Active; 'I' for Inactive)
REMARK    1  A    between atoms: C1_2  and  C2_4 
REMARK    2  A    between atoms: C2_4  and  C3_5 
REMARK    3  A    between atoms: C3_5  and  C4_6 
REMARK    4  A    between atoms: C4_6  and  C5_7 
REMARK    5  A    between atoms: C5_7  and  P1_8 
REMARK    6  A    between atoms: P1_8  and  O5_11 
REMARK    7  A    between atoms: O5_11  and  C6_12 
REMARK    8  A    between atoms: C9_15  and  N1_16 
ROOT
HETATM    1  P1  UNL     1      57.357  -8.064  12.631  1.00  0.00     0.254 P 
HETATM    2  O3  UNL     1      57.682  -8.414  11.038  1.00  0.00    -0.646 OA
HETATM    3  O4  UNL     1      57.227  -6.442  13.062  1.00  0.00    -0.646 OA
ENDROOT
BRANCH   1   4
HETATM    4  C5  UNL     1      56.855  -9.293  13.728  1.00  0.00     0.136 C 
BRANCH   4   5
HETATM    5  C4  UNL     1      57.884  -9.633  14.827  1.00  0.00     0.013 C 
BRANCH   5   6
HETATM    6  C3  UNL     1      57.107 -10.070  16.078  1.00  0.00     0.011 C 
BRANCH   6   7
HETATM    7  C2  UNL     1      55.656 -10.232  15.615  1.00  0.00     0.113 C 
BRANCH   7   8
HETATM    8  C1  UNL     1      54.835  -9.434  16.558  1.00  0.00     0.172 C 
HETATM    9  O1  UNL     1      54.941  -8.174  16.593  1.00  0.00    -0.648 OA
HETATM   10  O2  UNL     1      53.928 -10.035  17.427  1.00  0.00    -0.648 OA
ENDBRANCH   7   8
ENDBRANCH   6   7
ENDBRANCH   5   6
ENDBRANCH   4   5
ENDBRANCH   1   4
BRANCH   1  11
HETATM   11  O5  UNL     1      58.851  -7.988  12.995  1.00  0.00    -0.270 OA
BRANCH  11  12
HETATM   12  C6  UNL     1      60.006  -8.196  12.303  1.00  0.00     0.079 A 
HETATM   13  C7  UNL     1      60.635  -7.269  11.502  1.00  0.00     0.040 A 
HETATM   14  C8  UNL     1      61.803  -7.598  10.848  1.00  0.00     0.039 A 
HETATM   15  C9  UNL     1      62.396  -8.836  10.953  1.00  0.00     0.103 A 
HETATM   16  C10 UNL     1      61.779  -9.776  11.750  1.00  0.00     0.039 A 
HETATM   17  C11 UNL     1      60.599  -9.451  12.413  1.00  0.00     0.040 A 
BRANCH  15  18
HETATM   18  N1  UNL     1      63.614  -9.146  10.259  1.00  0.00    -0.116 N 
HETATM   19  O6  UNL     1      63.585  -9.446   9.049  1.00  0.00    -0.532 OA
HETATM   20  O7  UNL     1      64.829  -9.127  10.880  1.00  0.00    -0.532 OA
ENDBRANCH  15  18
ENDBRANCH  11  12
ENDBRANCH   1  11
TORSDOF 8
ENDMDL
