MODEL 2
REMARK VINA RESULT: -5.440172665      2.120      2.956
REMARK  3 active torsions:
REMARK  status: ('A' for Active; 'I' for Inactive)
REMARK    1  A    between atoms: C1_2  and  C2_4 
REMARK       I    between atoms: C2_4  and  N1_6 
REMARK    2  A    between atoms: N1_6  and  C3_8 
REMARK    3  A    between atoms: C6_12  and  C7_13 
ROOT
HETATM    1  C3  UNL     1      10.581  45.369  19.138  1.00  0.00     0.095 A 
HETATM    2  S1  UNL     1      12.282  45.140  19.154  1.00  0.00    -0.074 SA
HETATM    3  C4  UNL     1      12.563  45.087  17.490  1.00  0.00     0.001 A 
HETATM    4  C5  UNL     1      11.328  45.249  16.936  1.00  0.00    -0.024 A 
HETATM    5  C6  UNL     1      10.283  45.397  17.795  1.00  0.00     0.082 A 
HETATM    6  C8  UNL     1      11.309  45.241  15.421  1.00  0.00     0.051 C 
HETATM    7  C9  UNL     1      11.772  43.892  14.902  1.00  0.00     0.079 C 
HETATM    8  S2  UNL     1      13.431  43.501  15.545  1.00  0.00    -0.164 SA
HETATM    9  C10 UNL     1      13.809  44.908  16.667  1.00  0.00     0.120 C 
ENDROOT
BRANCH   1  10
HETATM   10  N1  UNL     1       9.707  45.497  20.281  1.00  0.00    -0.311 N 
HETATM   11  C2  UNL     1       9.744  46.788  20.931  1.00  0.00     0.323 C 
HETATM   12  O3  UNL     1      10.488  47.716  20.516  1.00  0.00    -0.260 OA
ATOM     13  H1  UNL     1       9.110  44.736  20.604  1.00  0.00     0.170 HD
BRANCH  11  14
HETATM   14  C1  UNL     1       8.919  47.059  22.092  1.00  0.00     0.270 C 
HETATM   15  O1  UNL     1       7.910  46.343  22.295  1.00  0.00    -0.640 OA
HETATM   16  O2  UNL     1       9.196  48.073  22.984  1.00  0.00    -0.640 OA
ENDBRANCH  11  14
ENDBRANCH   1  10
BRANCH   5  17
HETATM   17  C7  UNL     1       8.856  45.581  17.380  1.00  0.00     0.212 C 
HETATM   18  O4  UNL     1       7.901  45.279  18.152  1.00  0.00    -0.644 OA
HETATM   19  O5  UNL     1       8.487  46.075  16.165  1.00  0.00    -0.644 OA
ENDBRANCH   5  17
TORSDOF 3
ENDMDL
