MODEL 5
REMARK VINA RESULT: -5.059234599      2.813      3.746
REMARK  3 active torsions:
REMARK  status: ('A' for Active; 'I' for Inactive)
REMARK    1  A    between atoms: C1_2  and  C2_4 
REMARK       I    between atoms: C2_4  and  N1_6 
REMARK    2  A    between atoms: N1_6  and  C3_8 
REMARK    3  A    between atoms: C6_12  and  C7_13 
ROOT
HETATM    1  C3  UNL     1      10.324  46.522  20.296  1.00  0.00     0.095 A 
HETATM    2  S1  UNL     1      12.030  46.683  20.386  1.00  0.00    -0.074 SA
HETATM    3  C4  UNL     1      12.450  45.914  18.943  1.00  0.00     0.001 A 
HETATM    4  C5  UNL     1      11.256  45.539  18.403  1.00  0.00    -0.024 A 
HETATM    5  C6  UNL     1      10.136  45.855  19.107  1.00  0.00     0.082 A 
HETATM    6  C8  UNL     1      11.362  44.817  17.075  1.00  0.00     0.051 C 
HETATM    7  C9  UNL     1      12.113  43.511  17.252  1.00  0.00     0.079 C 
HETATM    8  S2  UNL     1      13.759  43.818  17.971  1.00  0.00    -0.164 SA
HETATM    9  C10 UNL     1      13.771  45.630  18.279  1.00  0.00     0.120 C 
ENDROOT
BRANCH   1  10
HETATM   10  N1  UNL     1       9.351  46.989  21.256  1.00  0.00    -0.311 N 
HETATM   11  C2  UNL     1       9.429  48.400  21.561  1.00  0.00     0.323 C 
HETATM   12  O3  UNL     1      10.286  49.148  21.018  1.00  0.00    -0.260 OA
ATOM     13  H1  UNL     1       8.663  46.371  21.686  1.00  0.00     0.170 HD
BRANCH  11  14
HETATM   14  C1  UNL     1       8.514  49.008  22.509  1.00  0.00     0.270 C 
HETATM   15  O1  UNL     1       7.915  48.269  23.326  1.00  0.00    -0.640 OA
HETATM   16  O2  UNL     1       8.275  50.365  22.550  1.00  0.00    -0.640 OA
ENDBRANCH  11  14
ENDBRANCH   1  10
BRANCH   5  17
HETATM   17  C7  UNL     1       8.738  45.524  18.683  1.00  0.00     0.212 C 
HETATM   18  O4  UNL     1       8.375  45.627  17.475  1.00  0.00    -0.644 OA
HETATM   19  O5  UNL     1       7.774  45.097  19.545  1.00  0.00    -0.644 OA
ENDBRANCH   5  17
TORSDOF 3
ENDMDL
