MODEL 4
REMARK VINA RESULT: -5.130349883      3.629      6.097
REMARK  3 active torsions:
REMARK  status: ('A' for Active; 'I' for Inactive)
REMARK    1  A    between atoms: C1_2  and  C2_4 
REMARK       I    between atoms: C2_4  and  N1_6 
REMARK    2  A    between atoms: N1_6  and  C3_8 
REMARK    3  A    between atoms: C6_12  and  C7_13 
ROOT
HETATM    1  C3  UNL     1      14.499  47.156  16.722  1.00  0.00     0.095 A 
HETATM    2  S1  UNL     1      13.827  47.597  15.206  1.00  0.00    -0.074 SA
HETATM    3  C4  UNL     1      12.455  46.613  15.224  1.00  0.00     0.001 A 
HETATM    4  C5  UNL     1      12.533  45.951  16.412  1.00  0.00    -0.024 A 
HETATM    5  C6  UNL     1      13.603  46.231  17.204  1.00  0.00     0.082 A 
HETATM    6  C8  UNL     1      11.392  44.988  16.675  1.00  0.00     0.051 C 
HETATM    7  C9  UNL     1      11.395  43.883  15.636  1.00  0.00     0.079 C 
HETATM    8  S2  UNL     1      11.292  44.588  13.959  1.00  0.00    -0.164 SA
HETATM    9  C10 UNL     1      11.331  46.404  14.245  1.00  0.00     0.120 C 
ENDROOT
BRANCH   1  10
HETATM   10  N1  UNL     1      15.716  47.660  17.317  1.00  0.00    -0.311 N 
HETATM   11  C2  UNL     1      16.920  46.973  16.908  1.00  0.00     0.323 C 
HETATM   12  O3  UNL     1      16.890  46.012  16.094  1.00  0.00    -0.260 OA
ATOM     13  H1  UNL     1      15.724  48.440  17.974  1.00  0.00     0.170 HD
BRANCH  11  14
HETATM   14  C1  UNL     1      18.215  47.371  17.426  1.00  0.00     0.270 C 
HETATM   15  O1  UNL     1      18.914  46.518  18.022  1.00  0.00    -0.640 OA
HETATM   16  O2  UNL     1      18.712  48.650  17.290  1.00  0.00    -0.640 OA
ENDBRANCH  11  14
ENDBRANCH   1  10
BRANCH   5  17
HETATM   17  C7  UNL     1      13.865  45.604  18.539  1.00  0.00     0.212 C 
HETATM   18  O4  UNL     1      14.891  44.893  18.742  1.00  0.00    -0.644 OA
HETATM   19  O5  UNL     1      13.035  45.747  19.610  1.00  0.00    -0.644 OA
ENDBRANCH   5  17
TORSDOF 3
ENDMDL
