MODEL 6
REMARK VINA RESULT: -4.964897479      7.362      8.658
REMARK  3 active torsions:
REMARK  status: ('A' for Active; 'I' for Inactive)
REMARK    1  A    between atoms: C1_2  and  C2_4 
REMARK       I    between atoms: C2_4  and  N1_6 
REMARK    2  A    between atoms: N1_6  and  C3_8 
REMARK    3  A    between atoms: C6_12  and  C7_13 
ROOT
HETATM    1  C3  UNL     1      14.799  51.462  16.898  1.00  0.00     0.095 A 
HETATM    2  S1  UNL     1      13.829  52.827  16.521  1.00  0.00    -0.074 SA
HETATM    3  C4  UNL     1      12.802  52.121  15.382  1.00  0.00     0.001 A 
HETATM    4  C5  UNL     1      13.223  50.827  15.306  1.00  0.00    -0.024 A 
HETATM    5  C6  UNL     1      14.271  50.474  16.099  1.00  0.00     0.082 A 
HETATM    6  C8  UNL     1      12.443  49.965  14.335  1.00  0.00     0.051 C 
HETATM    7  C9  UNL     1      12.612  50.491  12.922  1.00  0.00     0.079 C 
HETATM    8  S2  UNL     1      12.088  52.233  12.826  1.00  0.00    -0.164 SA
HETATM    9  C10 UNL     1      11.658  52.657  14.563  1.00  0.00     0.120 C 
ENDROOT
BRANCH   1  10
HETATM   10  N1  UNL     1      15.896  51.403  17.836  1.00  0.00    -0.311 N 
HETATM   11  C2  UNL     1      17.166  51.852  17.312  1.00  0.00     0.323 C 
HETATM   12  O3  UNL     1      17.286  52.259  16.125  1.00  0.00    -0.260 OA
ATOM     13  H1  UNL     1      15.783  51.071  18.794  1.00  0.00     0.170 HD
BRANCH  11  14
HETATM   14  C1  UNL     1      18.356  51.847  18.141  1.00  0.00     0.270 C 
HETATM   15  O1  UNL     1      18.271  51.414  19.315  1.00  0.00    -0.640 OA
HETATM   16  O2  UNL     1      19.579  52.300  17.694  1.00  0.00    -0.640 OA
ENDBRANCH  11  14
ENDBRANCH   1  10
BRANCH   5  17
HETATM   17  C7  UNL     1      14.877  49.106  16.153  1.00  0.00     0.212 C 
HETATM   18  O4  UNL     1      16.061  48.895  15.761  1.00  0.00    -0.644 OA
HETATM   19  O5  UNL     1      14.214  48.009  16.616  1.00  0.00    -0.644 OA
ENDBRANCH   5  17
TORSDOF 3
ENDMDL
