MODEL 3
REMARK VINA RESULT: -5.312752795      7.755      9.486
REMARK  3 active torsions:
REMARK  status: ('A' for Active; 'I' for Inactive)
REMARK    1  A    between atoms: C1_2  and  C2_4 
REMARK       I    between atoms: C2_4  and  N1_6 
REMARK    2  A    between atoms: N1_6  and  C3_8 
REMARK    3  A    between atoms: C6_12  and  C7_13 
ROOT
HETATM    1  C3  UNL     1      16.512  50.019  17.475  1.00  0.00     0.095 A 
HETATM    2  S1  UNL     1      15.111  50.157  16.492  1.00  0.00    -0.074 SA
HETATM    3  C4  UNL     1      15.248  51.781  16.054  1.00  0.00     0.001 A 
HETATM    4  C5  UNL     1      16.385  52.202  16.677  1.00  0.00    -0.024 A 
HETATM    5  C6  UNL     1      17.054  51.283  17.424  1.00  0.00     0.082 A 
HETATM    6  C8  UNL     1      16.737  53.656  16.434  1.00  0.00     0.051 C 
HETATM    7  C9  UNL     1      15.653  54.555  16.999  1.00  0.00     0.079 C 
HETATM    8  S2  UNL     1      14.037  54.135  16.270  1.00  0.00    -0.164 SA
HETATM    9  C10 UNL     1      14.403  52.686  15.198  1.00  0.00     0.120 C 
ENDROOT
BRANCH   1  10
HETATM   10  N1  UNL     1      16.979  48.842  18.170  1.00  0.00    -0.311 N 
HETATM   11  C2  UNL     1      17.699  47.897  17.347  1.00  0.00     0.323 C 
HETATM   12  O3  UNL     1      17.895  48.103  16.119  1.00  0.00    -0.260 OA
ATOM     13  H1  UNL     1      16.812  48.690  19.165  1.00  0.00     0.170 HD
BRANCH  11  14
HETATM   14  C1  UNL     1      18.225  46.669  17.912  1.00  0.00     0.270 C 
HETATM   15  O1  UNL     1      19.437  46.397  17.738  1.00  0.00    -0.640 OA
HETATM   16  O2  UNL     1      17.449  45.786  18.631  1.00  0.00    -0.640 OA
ENDBRANCH  11  14
ENDBRANCH   1  10
BRANCH   5  17
HETATM   17  C7  UNL     1      18.315  51.556  18.185  1.00  0.00     0.212 C 
HETATM   18  O4  UNL     1      18.362  51.443  19.444  1.00  0.00    -0.644 OA
HETATM   19  O5  UNL     1      19.480  51.938  17.592  1.00  0.00    -0.644 OA
ENDBRANCH   5  17
TORSDOF 3
ENDMDL
