MODEL 11
REMARK VINA RESULT: -7.463158506      2.005      2.702
REMARK  2 active torsions:
REMARK  status: ('A' for Active; 'I' for Inactive)
REMARK    1  A    between atoms: C1_2  and  C2_6 
REMARK    2  A    between atoms: C6_12  and  C7_13 
ROOT
HETATM    1  C2  UNL     1      11.822 -11.559  22.818  1.00  0.00     0.007 A 
HETATM    2  C3  UNL     1      12.107 -10.442  22.081  1.00  0.00     0.017 A 
HETATM    3  C4  UNL     1      12.826 -10.517  20.884  1.00  0.00     0.033 A 
HETATM    4  C5  UNL     1      13.256 -11.729  20.435  1.00  0.00     0.060 A 
HETATM    5  N3  UNL     1      13.961 -12.097  19.330  1.00  0.00    -0.340 N 
ATOM      6  H3  UNL     1      14.299 -11.456  18.612  1.00  0.00     0.167 HD
HETATM    7  C6  UNL     1      14.147 -13.424  19.322  1.00  0.00     0.122 A 
HETATM    8  N5  UNL     1      13.535 -13.897  20.461  1.00  0.00    -0.340 N 
ATOM      9  H5  UNL     1      13.501 -14.877  20.744  1.00  0.00     0.167 HD
HETATM   10  C12 UNL     1      12.992 -12.879  21.144  1.00  0.00     0.061 A 
HETATM   11  C13 UNL     1      12.282 -12.789  22.323  1.00  0.00     0.046 A 
ENDROOT
BRANCH   7  12
HETATM   12  C7  UNL     1      14.833 -14.271  18.358  1.00  0.00     0.076 A 
HETATM   13  C8  UNL     1      15.663 -13.700  17.403  1.00  0.00     0.022 A 
HETATM   14  C9  UNL     1      16.334 -14.464  16.469  1.00  0.00     0.018 A 
HETATM   15  C10 UNL     1      16.162 -15.837  16.499  1.00  0.00     0.091 A 
HETATM   16  N4  UNL     1      15.366 -16.394  17.413  1.00  0.00    -0.333 N 
HETATM   17  C11 UNL     1      14.708 -15.629  18.331  1.00  0.00     0.259 A 
ATOM     18  H4  UNL     1      15.247 -17.407  17.425  1.00  0.00     0.168 HD
HETATM   19  O1  UNL     1      13.969 -16.211  19.171  1.00  0.00    -0.267 OA
ENDBRANCH   7  12
BRANCH   1  20
HETATM   20  C1  UNL     1      11.072 -11.538  24.080  1.00  0.00     0.120 C 
HETATM   21  N1  UNL     1      11.092 -10.354  24.892  1.00  0.00    -0.082 NA
HETATM   22  N2  UNL     1      10.412 -12.568  24.445  1.00  0.00    -0.387 N 
ATOM     23  H22 UNL     1       9.890 -12.554  25.321  1.00  0.00     0.157 HD
ATOM     24  H21 UNL     1      10.398 -13.409  23.868  1.00  0.00     0.157 HD
ENDBRANCH   1  20
TORSDOF 2
ENDMDL
