MODEL 6
REMARK VINA RESULT: -7.629176711      2.028      7.004
REMARK  2 active torsions:
REMARK  status: ('A' for Active; 'I' for Inactive)
REMARK    1  A    between atoms: C1_2  and  C2_6 
REMARK    2  A    between atoms: C6_12  and  C7_13 
ROOT
HETATM    1  C2  UNL     1      16.215 -13.548  17.512  1.00  0.00     0.007 A 
HETATM    2  C3  UNL     1      17.244 -13.440  18.406  1.00  0.00     0.017 A 
HETATM    3  C4  UNL     1      17.029 -13.031  19.726  1.00  0.00     0.033 A 
HETATM    4  C5  UNL     1      15.765 -12.734  20.138  1.00  0.00     0.060 A 
HETATM    5  N3  UNL     1      15.267 -12.320  21.336  1.00  0.00    -0.340 N 
ATOM      6  H3  UNL     1      15.824 -12.159  22.176  1.00  0.00     0.167 HD
HETATM    7  C6  UNL     1      13.941 -12.155  21.252  1.00  0.00     0.122 A 
HETATM    8  N5  UNL     1      13.601 -12.478  19.957  1.00  0.00    -0.340 N 
ATOM      9  H5  UNL     1      12.656 -12.453  19.576  1.00  0.00     0.167 HD
HETATM   10  C12 UNL     1      14.699 -12.830  19.272  1.00  0.00     0.061 A 
HETATM   11  C13 UNL     1      14.927 -13.234  17.973  1.00  0.00     0.046 A 
ENDROOT
BRANCH   7  12
HETATM   12  C7  UNL     1      12.981 -11.731  22.260  1.00  0.00     0.076 A 
HETATM   13  C8  UNL     1      12.081 -12.648  22.787  1.00  0.00     0.022 A 
HETATM   14  C9  UNL     1      11.153 -12.291  23.744  1.00  0.00     0.018 A 
HETATM   15  C10 UNL     1      11.131 -10.978  24.180  1.00  0.00     0.091 A 
HETATM   16  N4  UNL     1      11.991 -10.090  23.678  1.00  0.00    -0.333 N 
HETATM   17  C11 UNL     1      12.904 -10.454  22.733  1.00  0.00     0.259 A 
ATOM     18  H4  UNL     1      11.966  -9.124  24.006  1.00  0.00     0.168 HD
HETATM   19  O1  UNL     1      13.692  -9.572  22.295  1.00  0.00    -0.267 OA
ENDBRANCH   7  12
BRANCH   1  20
HETATM   20  C1  UNL     1      16.384 -13.972  16.116  1.00  0.00     0.120 C 
HETATM   21  N1  UNL     1      17.078 -13.112  15.198  1.00  0.00    -0.082 NA
HETATM   22  N2  UNL     1      15.913 -15.094  15.729  1.00  0.00    -0.387 N 
ATOM     23  H22 UNL     1      16.030 -15.388  14.760  1.00  0.00     0.157 HD
ATOM     24  H21 UNL     1      15.420 -15.704  16.381  1.00  0.00     0.157 HD
ENDBRANCH   1  20
TORSDOF 2
ENDMDL
