MODEL 8
REMARK VINA RESULT: -7.600261607      1.342      1.990
REMARK  2 active torsions:
REMARK  status: ('A' for Active; 'I' for Inactive)
REMARK    1  A    between atoms: C1_2  and  C2_6 
REMARK    2  A    between atoms: C6_12  and  C7_13 
ROOT
HETATM    1  C2  UNL     1      11.734 -11.700  22.766  1.00  0.00     0.007 A 
HETATM    2  C3  UNL     1      11.870 -10.497  22.129  1.00  0.00     0.017 A 
HETATM    3  C4  UNL     1      12.602 -10.372  20.945  1.00  0.00     0.033 A 
HETATM    4  C5  UNL     1      13.197 -11.472  20.406  1.00  0.00     0.060 A 
HETATM    5  N3  UNL     1      13.955 -11.647  19.288  1.00  0.00    -0.340 N 
ATOM      6  H3  UNL     1      14.208 -10.908  18.632  1.00  0.00     0.167 HD
HETATM    7  C6  UNL     1      14.319 -12.931  19.174  1.00  0.00     0.122 A 
HETATM    8  N5  UNL     1      13.769 -13.577  20.258  1.00  0.00    -0.340 N 
ATOM      9  H5  UNL     1      13.865 -14.573  20.457  1.00  0.00     0.167 HD
HETATM   10  C12 UNL     1      13.087 -12.703  21.012  1.00  0.00     0.061 A 
HETATM   11  C13 UNL     1      12.361 -12.811  22.180  1.00  0.00     0.046 A 
ENDROOT
BRANCH   7  12
HETATM   12  C7  UNL     1      15.122 -13.594  18.157  1.00  0.00     0.076 A 
HETATM   13  C8  UNL     1      15.048 -14.972  18.008  1.00  0.00     0.022 A 
HETATM   14  C9  UNL     1      15.791 -15.644  17.057  1.00  0.00     0.018 A 
HETATM   15  C10 UNL     1      16.628 -14.907  16.238  1.00  0.00     0.091 A 
HETATM   16  N4  UNL     1      16.705 -13.582  16.374  1.00  0.00    -0.333 N 
HETATM   17  C11 UNL     1      15.966 -12.929  17.317  1.00  0.00     0.259 A 
ATOM     18  H4  UNL     1      17.326 -13.049  15.765  1.00  0.00     0.168 HD
HETATM   19  O1  UNL     1      16.080 -11.676  17.400  1.00  0.00    -0.267 OA
ENDBRANCH   7  12
BRANCH   1  20
HETATM   20  C1  UNL     1      10.978 -11.888  24.010  1.00  0.00     0.120 C 
HETATM   21  N1  UNL     1      11.108 -10.923  25.066  1.00  0.00    -0.082 NA
HETATM   22  N2  UNL     1      10.215 -12.903  24.145  1.00  0.00    -0.387 N 
ATOM     23  H22 UNL     1       9.689 -13.033  25.008  1.00  0.00     0.157 HD
ATOM     24  H21 UNL     1      10.123 -13.587  23.395  1.00  0.00     0.157 HD
ENDBRANCH   1  20
TORSDOF 2
ENDMDL
