MODEL 4
REMARK VINA RESULT: -7.847544336      1.859      7.034
REMARK  2 active torsions:
REMARK  status: ('A' for Active; 'I' for Inactive)
REMARK    1  A    between atoms: C1_2  and  C2_6 
REMARK    2  A    between atoms: C6_12  and  C7_13 
ROOT
HETATM    1  C2  UNL     1      15.417 -12.653  16.398  1.00  0.00     0.007 A 
HETATM    2  C3  UNL     1      15.789 -13.848  16.947  1.00  0.00     0.017 A 
HETATM    3  C4  UNL     1      15.373 -14.229  18.226  1.00  0.00     0.033 A 
HETATM    4  C5  UNL     1      14.576 -13.393  18.949  1.00  0.00     0.060 A 
HETATM    5  N3  UNL     1      14.030 -13.498  20.192  1.00  0.00    -0.340 N 
ATOM      6  H3  UNL     1      14.151 -14.293  20.818  1.00  0.00     0.167 HD
HETATM    7  C6  UNL     1      13.309 -12.404  20.472  1.00  0.00     0.122 A 
HETATM    8  N5  UNL     1      13.411 -11.591  19.365  1.00  0.00    -0.340 N 
ATOM      9  H5  UNL     1      12.969 -10.677  19.267  1.00  0.00     0.167 HD
HETATM   10  C12 UNL     1      14.176 -12.180  18.435  1.00  0.00     0.061 A 
HETATM   11  C13 UNL     1      14.595 -11.818  17.172  1.00  0.00     0.046 A 
ENDROOT
BRANCH   7  12
HETATM   12  C7  UNL     1      12.548 -12.060  21.663  1.00  0.00     0.076 A 
HETATM   13  C8  UNL     1      12.630 -10.777  22.190  1.00  0.00     0.022 A 
HETATM   14  C9  UNL     1      11.926 -10.405  23.317  1.00  0.00     0.018 A 
HETATM   15  C10 UNL     1      11.120 -11.349  23.929  1.00  0.00     0.091 A 
HETATM   16  N4  UNL     1      11.036 -12.584  23.430  1.00  0.00    -0.333 N 
HETATM   17  C11 UNL     1      11.736 -12.940  22.315  1.00  0.00     0.259 A 
ATOM     18  H4  UNL     1      10.439 -13.272  23.890  1.00  0.00     0.168 HD
HETATM   19  O1  UNL     1      11.617 -14.121  21.889  1.00  0.00    -0.267 OA
ENDBRANCH   7  12
BRANCH   1  20
HETATM   20  C1  UNL     1      15.824 -12.203  15.061  1.00  0.00     0.120 C 
HETATM   21  N1  UNL     1      16.804 -12.958  14.331  1.00  0.00    -0.082 NA
HETATM   22  N2  UNL     1      15.309 -11.148  14.559  1.00  0.00    -0.387 N 
ATOM     23  H22 UNL     1      15.591 -10.835  13.631  1.00  0.00     0.157 HD
ATOM     24  H21 UNL     1      14.613 -10.611  15.077  1.00  0.00     0.157 HD
ENDBRANCH   1  20
TORSDOF 2
ENDMDL
