MODEL 3
REMARK VINA RESULT: -7.948679014      1.495      6.947
REMARK  2 active torsions:
REMARK  status: ('A' for Active; 'I' for Inactive)
REMARK    1  A    between atoms: C1_2  and  C2_6 
REMARK    2  A    between atoms: C6_12  and  C7_13 
ROOT
HETATM    1  C2  UNL     1      15.549 -12.935  16.106  1.00  0.00     0.007 A 
HETATM    2  C3  UNL     1      15.771 -14.175  16.638  1.00  0.00     0.017 A 
HETATM    3  C4  UNL     1      15.330 -14.512  17.922  1.00  0.00     0.033 A 
HETATM    4  C5  UNL     1      14.661 -13.587  18.665  1.00  0.00     0.060 A 
HETATM    5  N3  UNL     1      14.127 -13.632  19.917  1.00  0.00    -0.340 N 
ATOM      6  H3  UNL     1      14.154 -14.444  20.535  1.00  0.00     0.167 HD
HETATM    7  C6  UNL     1      13.561 -12.457  20.220  1.00  0.00     0.122 A 
HETATM    8  N5  UNL     1      13.749 -11.652  19.118  1.00  0.00    -0.340 N 
ATOM      9  H5  UNL     1      13.429 -10.687  19.036  1.00  0.00     0.167 HD
HETATM   10  C12 UNL     1      14.415 -12.326  18.169  1.00  0.00     0.061 A 
HETATM   11  C13 UNL     1      14.856 -12.009  16.902  1.00  0.00     0.046 A 
ENDROOT
BRANCH   7  12
HETATM   12  C7  UNL     1      12.871 -12.029  21.428  1.00  0.00     0.076 A 
HETATM   13  C8  UNL     1      11.941 -12.869  22.027  1.00  0.00     0.022 A 
HETATM   14  C9  UNL     1      11.262 -12.505  23.173  1.00  0.00     0.018 A 
HETATM   15  C10 UNL     1      11.527 -11.266  23.727  1.00  0.00     0.091 A 
HETATM   16  N4  UNL     1      12.419 -10.453  23.158  1.00  0.00    -0.333 N 
HETATM   17  C11 UNL     1      13.084 -10.823  22.026  1.00  0.00     0.259 A 
ATOM     18  H4  UNL     1      12.607  -9.541  23.575  1.00  0.00     0.168 HD
HETATM   19  O1  UNL     1      13.915 -10.013  21.533  1.00  0.00    -0.267 OA
ENDBRANCH   7  12
BRANCH   1  20
HETATM   20  C1  UNL     1      15.989 -12.527  14.766  1.00  0.00     0.120 C 
HETATM   21  N1  UNL     1      16.996 -13.297  14.091  1.00  0.00    -0.082 NA
HETATM   22  N2  UNL     1      15.477 -11.497  14.213  1.00  0.00    -0.387 N 
ATOM     23  H22 UNL     1      15.782 -11.214  13.282  1.00  0.00     0.157 HD
ATOM     24  H21 UNL     1      14.762 -10.950  14.693  1.00  0.00     0.157 HD
ENDBRANCH   1  20
TORSDOF 2
ENDMDL
