MODEL 1
REMARK VINA RESULT: -7.869785943      0.000      0.000
REMARK  3 active torsions:
REMARK  status: ('A' for Active; 'I' for Inactive)
REMARK    1  A    between atoms: C1_2  and  C2_6 
REMARK    2  A    between atoms: C6_12  and  C7_13 
REMARK    3  A    between atoms: C12_18  and  O1_19 
ROOT
HETATM    1  C2  UNL     1      11.986 -11.860  22.637  1.00  0.00     0.007 A 
HETATM    2  C3  UNL     1      11.804 -13.237  22.644  1.00  0.00     0.017 A 
HETATM    3  C4  UNL     1      12.396 -13.966  21.637  1.00  0.00     0.033 A 
HETATM    4  C5  UNL     1      13.151 -13.387  20.639  1.00  0.00     0.060 A 
HETATM    5  N3  UNL     1      13.823 -13.860  19.563  1.00  0.00    -0.340 N 
ATOM      6  H3  UNL     1      13.874 -14.844  19.302  1.00  0.00     0.167 HD
HETATM    7  C6  UNL     1      14.413 -12.862  18.886  1.00  0.00     0.119 A 
HETATM    8  N4  UNL     1      14.100 -11.740  19.557  1.00  0.00    -0.340 N 
ATOM      9  H4  UNL     1      14.401 -10.802  19.291  1.00  0.00     0.167 HD
HETATM   10  C13 UNL     1      13.340 -12.022  20.619  1.00  0.00     0.061 A 
HETATM   11  C14 UNL     1      12.741 -11.274  21.641  1.00  0.00     0.046 A 
ENDROOT
BRANCH   7  12
HETATM   12  C7  UNL     1      15.230 -12.957  17.668  1.00  0.00     0.041 A 
HETATM   13  C8  UNL     1      16.122 -13.983  17.484  1.00  0.00     0.018 A 
HETATM   14  C9  UNL     1      16.905 -14.100  16.348  1.00  0.00     0.001 A 
HETATM   15  C10 UNL     1      16.791 -13.150  15.358  1.00  0.00     0.003 A 
HETATM   16  C11 UNL     1      15.896 -12.116  15.537  1.00  0.00     0.037 A 
HETATM   17  C12 UNL     1      15.125 -12.015  16.673  1.00  0.00     0.079 A 
BRANCH  17  18
HETATM   18  O1  UNL     1      14.216 -10.973  16.866  1.00  0.00    -0.360 OA
ATOM     19  H1  UNL     1      14.303 -10.207  16.311  1.00  0.00     0.217 HD
ENDBRANCH  17  18
ENDBRANCH   7  12
BRANCH   1  20
HETATM   20  C1  UNL     1      11.358 -11.080  23.706  1.00  0.00     0.120 C 
HETATM   21  N1  UNL     1      11.740  -9.690  23.846  1.00  0.00    -0.082 NA
HETATM   22  N2  UNL     1      10.494 -11.564  24.517  1.00  0.00    -0.387 N 
ATOM     23  H22 UNL     1      10.056 -11.021  25.262  1.00  0.00     0.157 HD
ATOM     24  H21 UNL     1      10.224 -12.543  24.418  1.00  0.00     0.157 HD
ENDBRANCH   1  20
TORSDOF 3
ENDMDL
