MODEL 10
REMARK VINA RESULT: -7.330690984      1.072      1.813
REMARK  3 active torsions:
REMARK  status: ('A' for Active; 'I' for Inactive)
REMARK    1  A    between atoms: C1_2  and  C2_6 
REMARK    2  A    between atoms: C6_12  and  C7_13 
REMARK    3  A    between atoms: C12_18  and  O1_19 
ROOT
HETATM    1  C2  UNL     1      11.844 -11.652  22.619  1.00  0.00     0.007 A 
HETATM    2  C3  UNL     1      11.937 -10.453  21.925  1.00  0.00     0.017 A 
HETATM    3  C4  UNL     1      12.652 -10.448  20.748  1.00  0.00     0.033 A 
HETATM    4  C5  UNL     1      13.268 -11.575  20.243  1.00  0.00     0.060 A 
HETATM    5  N3  UNL     1      14.009 -11.835  19.141  1.00  0.00    -0.340 N 
ATOM      6  H3  UNL     1      14.251 -11.144  18.431  1.00  0.00     0.167 HD
HETATM    7  C6  UNL     1      14.384 -13.125  19.106  1.00  0.00     0.119 A 
HETATM    8  N4  UNL     1      13.863 -13.679  20.214  1.00  0.00    -0.340 N 
ATOM      9  H4  UNL     1      13.972 -14.658  20.479  1.00  0.00     0.167 HD
HETATM   10  C13 UNL     1      13.183 -12.771  20.921  1.00  0.00     0.061 A 
HETATM   11  C14 UNL     1      12.458 -12.783  22.119  1.00  0.00     0.046 A 
ENDROOT
BRANCH   7  12
HETATM   12  C7  UNL     1      15.192 -13.802  18.082  1.00  0.00     0.041 A 
HETATM   13  C8  UNL     1      15.188 -15.168  17.956  1.00  0.00     0.018 A 
HETATM   14  C9  UNL     1      15.939 -15.834  17.002  1.00  0.00     0.001 A 
HETATM   15  C10 UNL     1      16.725 -15.102  16.141  1.00  0.00     0.003 A 
HETATM   16  C11 UNL     1      16.734 -13.729  16.262  1.00  0.00     0.037 A 
HETATM   17  C12 UNL     1      15.981 -13.082  17.217  1.00  0.00     0.079 A 
BRANCH  17  18
HETATM   18  O1  UNL     1      15.981 -11.692  17.349  1.00  0.00    -0.360 OA
ATOM     19  H1  UNL     1      15.907 -11.176  16.556  1.00  0.00     0.217 HD
ENDBRANCH  17  18
ENDBRANCH   7  12
BRANCH   1  20
HETATM   20  C1  UNL     1      11.085 -11.662  23.872  1.00  0.00     0.120 C 
HETATM   21  N1  UNL     1      11.118 -10.472  24.696  1.00  0.00    -0.082 NA
HETATM   22  N2  UNL     1      10.397 -12.666  24.270  1.00  0.00    -0.387 N 
ATOM     23  H22 UNL     1       9.868 -12.674  25.143  1.00  0.00     0.157 HD
ATOM     24  H21 UNL     1      10.373 -13.504  23.690  1.00  0.00     0.157 HD
ENDBRANCH   1  20
TORSDOF 3
ENDMDL
