MODEL 4
REMARK VINA RESULT: -7.576021325      3.293      7.086
REMARK  3 active torsions:
REMARK  status: ('A' for Active; 'I' for Inactive)
REMARK    1  A    between atoms: C1_2  and  C2_6 
REMARK    2  A    between atoms: C6_12  and  C7_13 
REMARK    3  A    between atoms: C12_18  and  O1_19 
ROOT
HETATM    1  C2  UNL     1      18.720 -13.474  19.555  1.00  0.00     0.007 A 
HETATM    2  C3  UNL     1      18.002 -13.555  18.370  1.00  0.00     0.017 A 
HETATM    3  C4  UNL     1      16.657 -13.264  18.414  1.00  0.00     0.033 A 
HETATM    4  C5  UNL     1      16.009 -12.901  19.577  1.00  0.00     0.060 A 
HETATM    5  N3  UNL     1      14.733 -12.572  19.887  1.00  0.00    -0.340 N 
ATOM      6  H3  UNL     1      13.965 -12.542  19.216  1.00  0.00     0.167 HD
HETATM    7  C6  UNL     1      14.612 -12.291  21.195  1.00  0.00     0.119 A 
HETATM    8  N4  UNL     1      15.843 -12.449  21.710  1.00  0.00    -0.340 N 
ATOM      9  H4  UNL     1      16.084 -12.309  22.692  1.00  0.00     0.167 HD
HETATM   10  C13 UNL     1      16.709 -12.817  20.760  1.00  0.00     0.061 A 
HETATM   11  C14 UNL     1      18.078 -13.111  20.722  1.00  0.00     0.046 A 
ENDROOT
BRANCH   7  12
HETATM   12  C7  UNL     1      13.400 -11.894  21.924  1.00  0.00     0.041 A 
HETATM   13  C8  UNL     1      12.483 -12.823  22.346  1.00  0.00     0.018 A 
HETATM   14  C9  UNL     1      11.331 -12.480  23.035  1.00  0.00     0.001 A 
HETATM   15  C10 UNL     1      11.089 -11.153  23.311  1.00  0.00     0.003 A 
HETATM   16  C11 UNL     1      12.007 -10.214  22.891  1.00  0.00     0.037 A 
HETATM   17  C12 UNL     1      13.147 -10.573  22.206  1.00  0.00     0.079 A 
BRANCH  17  18
HETATM   18  O1  UNL     1      14.084  -9.632  21.775  1.00  0.00    -0.360 OA
ATOM     19  H1  UNL     1      13.882  -9.142  20.986  1.00  0.00     0.217 HD
ENDBRANCH  17  18
ENDBRANCH   7  12
BRANCH   1  20
HETATM   20  C1  UNL     1      20.151 -13.783  19.512  1.00  0.00     0.120 C 
HETATM   21  N1  UNL     1      20.654 -14.797  20.415  1.00  0.00    -0.082 NA
HETATM   22  N2  UNL     1      20.973 -13.202  18.720  1.00  0.00    -0.387 N 
ATOM     23  H22 UNL     1      21.970 -13.417  18.690  1.00  0.00     0.157 HD
ATOM     24  H21 UNL     1      20.619 -12.488  18.084  1.00  0.00     0.157 HD
ENDBRANCH   1  20
TORSDOF 3
ENDMDL
