MODEL 3
REMARK VINA RESULT: -7.669453916      2.299      6.942
REMARK  3 active torsions:
REMARK  status: ('A' for Active; 'I' for Inactive)
REMARK    1  A    between atoms: C1_2  and  C2_6 
REMARK    2  A    between atoms: C6_12  and  C7_13 
REMARK    3  A    between atoms: C12_18  and  O1_19 
ROOT
HETATM    1  C2  UNL     1      16.150 -13.445  16.734  1.00  0.00     0.007 A 
HETATM    2  C3  UNL     1      16.401 -14.622  17.427  1.00  0.00     0.017 A 
HETATM    3  C4  UNL     1      15.830 -14.768  18.671  1.00  0.00     0.033 A 
HETATM    4  C5  UNL     1      15.030 -13.801  19.244  1.00  0.00     0.060 A 
HETATM    5  N3  UNL     1      14.364 -13.696  20.419  1.00  0.00    -0.340 N 
ATOM      6  H3  UNL     1      14.359 -14.412  21.145  1.00  0.00     0.167 HD
HETATM    7  C6  UNL     1      13.713 -12.524  20.500  1.00  0.00     0.119 A 
HETATM    8  N4  UNL     1      13.980 -11.885  19.348  1.00  0.00    -0.340 N 
ATOM      9  H4  UNL     1      13.627 -10.960  19.103  1.00  0.00     0.167 HD
HETATM   10  C13 UNL     1      14.771 -12.628  18.569  1.00  0.00     0.061 A 
HETATM   11  C14 UNL     1      15.349 -12.474  17.302  1.00  0.00     0.046 A 
ENDROOT
BRANCH   7  12
HETATM   12  C7  UNL     1      12.881 -12.030  21.606  1.00  0.00     0.041 A 
HETATM   13  C8  UNL     1      11.928 -12.822  22.194  1.00  0.00     0.018 A 
HETATM   14  C9  UNL     1      11.129 -12.384  23.237  1.00  0.00     0.001 A 
HETATM   15  C10 UNL     1      11.292 -11.101  23.709  1.00  0.00     0.003 A 
HETATM   16  C11 UNL     1      12.249 -10.299  23.123  1.00  0.00     0.037 A 
HETATM   17  C12 UNL     1      13.035 -10.751  22.086  1.00  0.00     0.079 A 
BRANCH  17  18
HETATM   18  O1  UNL     1      14.006  -9.949  21.484  1.00  0.00    -0.360 OA
ATOM     19  H1  UNL     1      14.225  -9.130  21.912  1.00  0.00     0.217 HD
ENDBRANCH  17  18
ENDBRANCH   7  12
BRANCH   1  20
HETATM   20  C1  UNL     1      16.755 -13.286  15.410  1.00  0.00     0.120 C 
HETATM   21  N1  UNL     1      16.902 -11.943  14.888  1.00  0.00    -0.082 NA
HETATM   22  N2  UNL     1      17.157 -14.270  14.697  1.00  0.00    -0.387 N 
ATOM     23  H22 UNL     1      17.579 -14.159  13.774  1.00  0.00     0.157 HD
ATOM     24  H21 UNL     1      17.054 -15.216  15.064  1.00  0.00     0.157 HD
ENDBRANCH   1  20
TORSDOF 3
ENDMDL
