MODEL 5
REMARK VINA RESULT: -7.513654981      2.498      7.058
REMARK  3 active torsions:
REMARK  status: ('A' for Active; 'I' for Inactive)
REMARK    1  A    between atoms: C1_2  and  C2_6 
REMARK    2  A    between atoms: C6_12  and  C7_13 
REMARK    3  A    between atoms: C12_18  and  O1_19 
ROOT
HETATM    1  C2  UNL     1      16.117 -13.559  17.163  1.00  0.00     0.007 A 
HETATM    2  C3  UNL     1      16.469 -14.646  17.951  1.00  0.00     0.017 A 
HETATM    3  C4  UNL     1      15.925 -14.726  19.213  1.00  0.00     0.033 A 
HETATM    4  C5  UNL     1      15.055 -13.780  19.714  1.00  0.00     0.060 A 
HETATM    5  N3  UNL     1      14.396 -13.625  20.886  1.00  0.00    -0.340 N 
ATOM      6  H3  UNL     1      14.456 -14.272  21.672  1.00  0.00     0.167 HD
HETATM    7  C6  UNL     1      13.652 -12.506  20.876  1.00  0.00     0.119 A 
HETATM    8  N4  UNL     1      13.855 -11.952  19.669  1.00  0.00    -0.340 N 
ATOM      9  H4  UNL     1      13.426 -11.083  19.350  1.00  0.00     0.167 HD
HETATM   10  C13 UNL     1      14.696 -12.696  18.943  1.00  0.00     0.061 A 
HETATM   11  C14 UNL     1      15.246 -12.608  17.658  1.00  0.00     0.046 A 
ENDROOT
BRANCH   7  12
HETATM   12  C7  UNL     1      12.795 -11.984  21.949  1.00  0.00     0.041 A 
HETATM   13  C8  UNL     1      12.778 -10.649  22.264  1.00  0.00     0.018 A 
HETATM   14  C9  UNL     1      11.981 -10.127  23.270  1.00  0.00     0.001 A 
HETATM   15  C10 UNL     1      11.170 -10.977  23.988  1.00  0.00     0.003 A 
HETATM   16  C11 UNL     1      11.182 -12.320  23.676  1.00  0.00     0.037 A 
HETATM   17  C12 UNL     1      11.981 -12.823  22.672  1.00  0.00     0.079 A 
BRANCH  17  18
HETATM   18  O1  UNL     1      12.003 -14.180  22.347  1.00  0.00    -0.360 OA
ATOM     19  H1  UNL     1      12.820 -14.541  22.025  1.00  0.00     0.217 HD
ENDBRANCH  17  18
ENDBRANCH   7  12
BRANCH   1  20
HETATM   20  C1  UNL     1      16.693 -13.469  15.820  1.00  0.00     0.120 C 
HETATM   21  N1  UNL     1      17.231 -12.193  15.396  1.00  0.00    -0.082 NA
HETATM   22  N2  UNL     1      16.744 -14.457  15.007  1.00  0.00    -0.387 N 
ATOM     23  H22 UNL     1      17.145 -14.395  14.072  1.00  0.00     0.157 HD
ATOM     24  H21 UNL     1      16.365 -15.356  15.306  1.00  0.00     0.157 HD
ENDBRANCH   1  20
TORSDOF 3
ENDMDL
