MODEL 6
REMARK VINA RESULT: -6.678961767      7.025      8.458
REMARK  4 active torsions:
REMARK  status: ('A' for Active; 'I' for Inactive)
REMARK    1  A    between atoms: C1_2  and  N2_3 
REMARK    2  A    between atoms: C1_2  and  C2_6 
REMARK    3  A    between atoms: C6_12  and  C7_13 
REMARK    4  A    between atoms: C11_19  and  O1_20 
ROOT
HETATM    1  C2  UNL     1      18.540 -13.690  18.427  1.00  0.00     0.007 A 
HETATM    2  C3  UNL     1      17.292 -13.657  19.066  1.00  0.00     0.017 A 
HETATM    3  C4  UNL     1      17.231 -14.015  20.384  1.00  0.00     0.033 A 
HETATM    4  C5  UNL     1      18.382 -14.401  21.076  1.00  0.00     0.060 A 
HETATM    5  N3  UNL     1      18.599 -14.791  22.344  1.00  0.00    -0.339 N 
ATOM      6  H3  UNL     1      17.883 -14.872  23.066  1.00  0.00     0.167 HD
HETATM    7  C6  UNL     1      19.918 -15.062  22.517  1.00  0.00     0.136 A 
HETATM    8  N5  UNL     1      20.528 -14.841  21.355  1.00  0.00    -0.339 N 
ATOM      9  H5  UNL     1      21.525 -14.960  21.175  1.00  0.00     0.167 HD
HETATM   10  C12 UNL     1      19.596 -14.429  20.438  1.00  0.00     0.061 A 
HETATM   11  C13 UNL     1      19.666 -14.067  19.100  1.00  0.00     0.046 A 
ENDROOT
BRANCH   7  12
HETATM   12  C7  UNL     1      20.544 -15.515  23.764  1.00  0.00     0.110 A 
HETATM   13  N4  UNL     1      19.808 -16.228  24.650  1.00  0.00    -0.361 N 
HETATM   14  C8  UNL     1      20.327 -16.665  25.800  1.00  0.00     0.088 A 
ATOM     15  H4  UNL     1      18.834 -16.436  24.434  1.00  0.00     0.165 HD
HETATM   16  C9  UNL     1      21.642 -16.415  26.152  1.00  0.00     0.020 A 
HETATM   17  C10 UNL     1      22.415 -15.695  25.274  1.00  0.00     0.040 A 
HETATM   18  C11 UNL     1      21.845 -15.262  24.099  1.00  0.00     0.096 A 
BRANCH  18  19
HETATM   19  O1  UNL     1      22.679 -14.536  23.250  1.00  0.00    -0.358 OA
ATOM     20  H1  UNL     1      22.329 -14.066  22.503  1.00  0.00     0.217 HD
ENDBRANCH  18  19
ENDBRANCH   7  12
BRANCH   1  21
HETATM   21  C1  UNL     1      18.621 -13.313  17.026  1.00  0.00     0.120 C 
HETATM   22  N1  UNL     1      19.897 -13.125  16.448  1.00  0.00    -0.082 NA
BRANCH  21  23
HETATM   23  N2  UNL     1      17.582 -13.149  16.316  1.00  0.00    -0.387 N 
ATOM     24  H22 UNL     1      17.620 -12.694  15.404  1.00  0.00     0.157 HD
ATOM     25  H21 UNL     1      16.680 -13.479  16.661  1.00  0.00     0.157 HD
ENDBRANCH  21  23
ENDBRANCH   1  21
TORSDOF 4
ENDMDL
