MODEL 3
REMARK VINA RESULT: -7.112371154      4.067      5.017
REMARK  4 active torsions:
REMARK  status: ('A' for Active; 'I' for Inactive)
REMARK    1  A    between atoms: C1_2  and  N2_3 
REMARK    2  A    between atoms: C1_2  and  C2_6 
REMARK    3  A    between atoms: C6_12  and  C7_13 
REMARK    4  A    between atoms: C11_19  and  O1_20 
ROOT
HETATM    1  C2  UNL     1      12.494 -12.088  22.605  1.00  0.00     0.007 A 
HETATM    2  C3  UNL     1      12.018 -13.265  22.009  1.00  0.00     0.017 A 
HETATM    3  C4  UNL     1      12.876 -13.987  21.228  1.00  0.00     0.033 A 
HETATM    4  C5  UNL     1      14.195 -13.565  21.031  1.00  0.00     0.060 A 
HETATM    5  N3  UNL     1      15.222 -14.072  20.329  1.00  0.00    -0.339 N 
ATOM      6  H3  UNL     1      15.193 -14.930  19.779  1.00  0.00     0.167 HD
HETATM    7  C6  UNL     1      16.307 -13.267  20.465  1.00  0.00     0.136 A 
HETATM    8  N5  UNL     1      15.957 -12.253  21.253  1.00  0.00    -0.339 N 
ATOM      9  H5  UNL     1      16.565 -11.485  21.536  1.00  0.00     0.167 HD
HETATM   10  C12 UNL     1      14.646 -12.411  21.621  1.00  0.00     0.061 A 
HETATM   11  C13 UNL     1      13.780 -11.673  22.415  1.00  0.00     0.046 A 
ENDROOT
BRANCH   7  12
HETATM   12  C7  UNL     1      17.620 -13.487  19.849  1.00  0.00     0.110 A 
HETATM   13  N4  UNL     1      18.678 -13.786  20.640  1.00  0.00    -0.361 N 
HETATM   14  C8  UNL     1      19.895 -13.997  20.133  1.00  0.00     0.088 A 
ATOM     15  H4  UNL     1      18.542 -13.853  21.649  1.00  0.00     0.165 HD
HETATM   16  C9  UNL     1      20.145 -13.921  18.774  1.00  0.00     0.020 A 
HETATM   17  C10 UNL     1      19.092 -13.620  17.944  1.00  0.00     0.040 A 
HETATM   18  C11 UNL     1      17.853 -13.410  18.504  1.00  0.00     0.096 A 
BRANCH  18  19
HETATM   19  O1  UNL     1      16.826 -13.108  17.611  1.00  0.00    -0.358 OA
ATOM     20  H1  UNL     1      16.416 -12.251  17.607  1.00  0.00     0.217 HD
ENDBRANCH  18  19
ENDBRANCH   7  12
BRANCH   1  21
HETATM   21  C1  UNL     1      11.594 -11.309  23.438  1.00  0.00     0.120 C 
HETATM   22  N1  UNL     1      11.737  -9.903  23.460  1.00  0.00    -0.082 NA
BRANCH  21  23
HETATM   23  N2  UNL     1      10.691 -11.858  24.141  1.00  0.00    -0.387 N 
ATOM     24  H22 UNL     1      10.198 -11.350  24.876  1.00  0.00     0.157 HD
ATOM     25  H21 UNL     1      10.444 -12.834  23.972  1.00  0.00     0.157 HD
ENDBRANCH  21  23
ENDBRANCH   1  21
TORSDOF 4
ENDMDL
