MODEL 1
REMARK VINA RESULT: -7.512250909      0.000      0.000
REMARK  4 active torsions:
REMARK  status: ('A' for Active; 'I' for Inactive)
REMARK    1  A    between atoms: C1_2  and  N2_3 
REMARK    2  A    between atoms: C1_2  and  C2_6 
REMARK    3  A    between atoms: C6_12  and  C7_13 
REMARK    4  A    between atoms: C11_19  and  O1_20 
ROOT
HETATM    1  C2  UNL     1      12.365 -11.015  23.002  1.00  0.00     0.007 A 
HETATM    2  C3  UNL     1      13.036 -10.719  21.806  1.00  0.00     0.017 A 
HETATM    3  C4  UNL     1      13.445 -11.759  21.019  1.00  0.00     0.033 A 
HETATM    4  C5  UNL     1      13.198 -13.083  21.395  1.00  0.00     0.060 A 
HETATM    5  N3  UNL     1      13.483 -14.265  20.822  1.00  0.00    -0.339 N 
ATOM      6  H3  UNL     1      13.972 -14.386  19.935  1.00  0.00     0.167 HD
HETATM    7  C6  UNL     1      13.020 -15.273  21.604  1.00  0.00     0.136 A 
HETATM    8  N5  UNL     1      12.444 -14.721  22.670  1.00  0.00    -0.339 N 
ATOM      9  H5  UNL     1      12.005 -15.229  23.437  1.00  0.00     0.167 HD
HETATM   10  C12 UNL     1      12.540 -13.358  22.567  1.00  0.00     0.061 A 
HETATM   11  C13 UNL     1      12.123 -12.307  23.372  1.00  0.00     0.046 A 
ENDROOT
BRANCH   7  12
HETATM   12  C7  UNL     1      13.140 -16.706  21.315  1.00  0.00     0.110 A 
HETATM   13  N4  UNL     1      12.461 -17.227  20.266  1.00  0.00    -0.361 N 
HETATM   14  C8  UNL     1      12.534 -18.523  19.957  1.00  0.00     0.088 A 
ATOM     15  H4  UNL     1      11.879 -16.613  19.696  1.00  0.00     0.165 HD
HETATM   16  C9  UNL     1      13.305 -19.408  20.690  1.00  0.00     0.020 A 
HETATM   17  C10 UNL     1      14.007 -18.912  21.762  1.00  0.00     0.040 A 
HETATM   18  C11 UNL     1      13.906 -17.570  22.049  1.00  0.00     0.096 A 
BRANCH  18  19
HETATM   19  O1  UNL     1      14.641 -17.125  23.147  1.00  0.00    -0.358 OA
ATOM     20  H1  UNL     1      14.536 -17.527  24.001  1.00  0.00     0.217 HD
ENDBRANCH  18  19
ENDBRANCH   7  12
BRANCH   1  21
HETATM   21  C1  UNL     1      11.925  -9.921  23.850  1.00  0.00     0.120 C 
HETATM   22  N1  UNL     1      12.772  -8.801  24.005  1.00  0.00    -0.082 NA
BRANCH  21  23
HETATM   23  N2  UNL     1      10.806  -9.949  24.449  1.00  0.00    -0.387 N 
ATOM     24  H22 UNL     1      10.506  -9.191  25.063  1.00  0.00     0.157 HD
ATOM     25  H21 UNL     1      10.184 -10.747  24.318  1.00  0.00     0.157 HD
ENDBRANCH  21  23
ENDBRANCH   1  21
TORSDOF 4
ENDMDL
