MODEL 4
REMARK VINA RESULT: -6.863873538      7.061      8.560
REMARK  4 active torsions:
REMARK  status: ('A' for Active; 'I' for Inactive)
REMARK    1  A    between atoms: C1_2  and  N2_3 
REMARK    2  A    between atoms: C1_2  and  C2_6 
REMARK    3  A    between atoms: C6_12  and  C7_13 
REMARK    4  A    between atoms: C11_19  and  O1_20 
ROOT
HETATM    1  C2  UNL     1      18.641 -13.679  18.513  1.00  0.00     0.007 A 
HETATM    2  C3  UNL     1      17.369 -13.749  19.099  1.00  0.00     0.017 A 
HETATM    3  C4  UNL     1      17.287 -14.039  20.433  1.00  0.00     0.033 A 
HETATM    4  C5  UNL     1      18.441 -14.259  21.191  1.00  0.00     0.060 A 
HETATM    5  N3  UNL     1      18.641 -14.553  22.487  1.00  0.00    -0.339 N 
ATOM      6  H3  UNL     1      17.906 -14.673  23.184  1.00  0.00     0.167 HD
HETATM    7  C6  UNL     1      19.973 -14.668  22.727  1.00  0.00     0.136 A 
HETATM    8  N5  UNL     1      20.607 -14.445  21.578  1.00  0.00    -0.339 N 
ATOM      9  H5  UNL     1      21.618 -14.463  21.445  1.00  0.00     0.167 HD
HETATM   10  C12 UNL     1      19.679 -14.187  20.603  1.00  0.00     0.061 A 
HETATM   11  C13 UNL     1      19.769 -13.893  19.250  1.00  0.00     0.046 A 
ENDROOT
BRANCH   7  12
HETATM   12  C7  UNL     1      20.586 -14.981  24.022  1.00  0.00     0.110 A 
HETATM   13  N4  UNL     1      20.310 -14.197  25.090  1.00  0.00    -0.361 N 
HETATM   14  C8  UNL     1      20.840 -14.436  26.291  1.00  0.00     0.088 A 
ATOM     15  H4  UNL     1      19.680 -13.403  24.975  1.00  0.00     0.165 HD
HETATM   16  C9  UNL     1      21.701 -15.496  26.514  1.00  0.00     0.020 A 
HETATM   17  C10 UNL     1      22.002 -16.312  25.450  1.00  0.00     0.040 A 
HETATM   18  C11 UNL     1      21.436 -16.033  24.227  1.00  0.00     0.096 A 
BRANCH  18  19
HETATM   19  O1  UNL     1      21.779 -16.896  23.187  1.00  0.00    -0.358 OA
ATOM     20  H1  UNL     1      22.051 -17.789  23.361  1.00  0.00     0.217 HD
ENDBRANCH  18  19
ENDBRANCH   7  12
BRANCH   1  21
HETATM   21  C1  UNL     1      18.745 -13.372  17.096  1.00  0.00     0.120 C 
HETATM   22  N1  UNL     1      20.027 -13.165  16.540  1.00  0.00    -0.082 NA
BRANCH  21  23
HETATM   23  N2  UNL     1      17.718 -13.285  16.354  1.00  0.00    -0.387 N 
ATOM     24  H22 UNL     1      17.726 -13.610  15.387  1.00  0.00     0.157 HD
ATOM     25  H21 UNL     1      16.859 -12.882  16.728  1.00  0.00     0.157 HD
ENDBRANCH  21  23
ENDBRANCH   1  21
TORSDOF 4
ENDMDL
