MODEL 6
REMARK VINA RESULT: -7.156276246      1.636      6.883
REMARK  2 active torsions:
REMARK  status: ('A' for Active; 'I' for Inactive)
REMARK    1  A    between atoms: C1_2  and  C2_6 
REMARK    2  A    between atoms: C6_12  and  C7_13 
ROOT
HETATM    1  C2  UNL     1      45.275  25.217  48.734  1.00  0.00     0.007 A 
HETATM    2  C3  UNL     1      45.783  25.776  49.874  1.00  0.00     0.017 A 
HETATM    3  C4  UNL     1      45.996  25.019  51.030  1.00  0.00     0.033 A 
HETATM    4  C5  UNL     1      45.692  23.691  51.027  1.00  0.00     0.060 A 
HETATM    5  N3  UNL     1      45.792  22.728  51.985  1.00  0.00    -0.340 N 
ATOM      6  H3  UNL     1      46.142  22.878  52.931  1.00  0.00     0.167 HD
HETATM    7  C6  UNL     1      45.364  21.553  51.504  1.00  0.00     0.122 A 
HETATM    8  N5  UNL     1      44.985  21.794  50.201  1.00  0.00    -0.340 N 
ATOM      9  H5  UNL     1      44.612  21.094  49.561  1.00  0.00     0.167 HD
HETATM   10  C12 UNL     1      45.180  23.087  49.901  1.00  0.00     0.061 A 
HETATM   11  C13 UNL     1      44.975  23.847  48.769  1.00  0.00     0.046 A 
ENDROOT
BRANCH   7  12
HETATM   12  C7  UNL     1      45.280  20.249  52.144  1.00  0.00     0.076 A 
HETATM   13  C8  UNL     1      46.039  19.986  53.277  1.00  0.00     0.022 A 
HETATM   14  C9  UNL     1      45.993  18.764  53.917  1.00  0.00     0.018 A 
HETATM   15  C10 UNL     1      45.161  17.785  53.403  1.00  0.00     0.091 A 
HETATM   16  N4  UNL     1      44.429  18.029  52.315  1.00  0.00    -0.333 N 
HETATM   17  C11 UNL     1      44.483  19.241  51.691  1.00  0.00     0.259 A 
ATOM     18  H4  UNL     1      43.819  17.300  51.945  1.00  0.00     0.168 HD
HETATM   19  O1  UNL     1      43.768  19.415  50.667  1.00  0.00    -0.267 OA
ENDBRANCH   7  12
BRANCH   1  20
HETATM   20  C1  UNL     1      45.032  25.964  47.493  1.00  0.00     0.120 C 
HETATM   21  N1  UNL     1      45.837  25.689  46.336  1.00  0.00    -0.082 NA
HETATM   22  N2  UNL     1      44.113  26.850  47.453  1.00  0.00    -0.387 N 
ATOM     23  H22 UNL     1      43.943  27.368  46.591  1.00  0.00     0.157 HD
ATOM     24  H21 UNL     1      43.542  27.045  48.275  1.00  0.00     0.157 HD
ENDBRANCH   1  20
TORSDOF 2
ENDMDL
