MODEL 10
REMARK VINA RESULT: -6.891797602      2.474      6.976
REMARK  2 active torsions:
REMARK  status: ('A' for Active; 'I' for Inactive)
REMARK    1  A    between atoms: C1_2  and  C2_6 
REMARK    2  A    between atoms: C6_12  and  C7_13 
ROOT
HETATM    1  C2  UNL     1      43.155  25.244  49.443  1.00  0.00     0.007 A 
HETATM    2  C3  UNL     1      44.473  25.294  49.083  1.00  0.00     0.017 A 
HETATM    3  C4  UNL     1      45.380  24.306  49.478  1.00  0.00     0.033 A 
HETATM    4  C5  UNL     1      44.945  23.264  50.240  1.00  0.00     0.060 A 
HETATM    5  N3  UNL     1      45.587  22.180  50.759  1.00  0.00    -0.340 N 
ATOM      6  H3  UNL     1      46.579  21.976  50.640  1.00  0.00     0.167 HD
HETATM    7  C6  UNL     1      44.725  21.422  51.450  1.00  0.00     0.122 A 
HETATM    8  N5  UNL     1      43.506  22.054  51.356  1.00  0.00    -0.340 N 
ATOM      9  H5  UNL     1      42.639  21.722  51.779  1.00  0.00     0.167 HD
HETATM   10  C12 UNL     1      43.626  23.172  50.625  1.00  0.00     0.061 A 
HETATM   11  C13 UNL     1      42.744  24.155  50.228  1.00  0.00     0.046 A 
ENDROOT
BRANCH   7  12
HETATM   12  C7  UNL     1      44.940  20.179  52.176  1.00  0.00     0.076 A 
HETATM   13  C8  UNL     1      45.815  20.150  53.254  1.00  0.00     0.022 A 
HETATM   14  C9  UNL     1      46.050  18.995  53.972  1.00  0.00     0.018 A 
HETATM   15  C10 UNL     1      45.387  17.841  53.593  1.00  0.00     0.091 A 
HETATM   16  N4  UNL     1      44.545  17.859  52.558  1.00  0.00    -0.333 N 
HETATM   17  C11 UNL     1      44.320  19.007  51.857  1.00  0.00     0.259 A 
ATOM     18  H4  UNL     1      44.061  17.003  52.288  1.00  0.00     0.168 HD
HETATM   19  O1  UNL     1      43.514  18.965  50.888  1.00  0.00    -0.267 OA
ENDBRANCH   7  12
BRANCH   1  20
HETATM   20  C1  UNL     1      42.161  26.254  49.057  1.00  0.00     0.120 C 
HETATM   21  N1  UNL     1      40.912  26.318  49.763  1.00  0.00    -0.082 NA
HETATM   22  N2  UNL     1      42.412  27.062  48.101  1.00  0.00    -0.387 N 
ATOM     23  H22 UNL     1      41.722  27.763  47.833  1.00  0.00     0.157 HD
ATOM     24  H21 UNL     1      43.299  27.016  47.600  1.00  0.00     0.157 HD
ENDBRANCH   1  20
TORSDOF 2
ENDMDL
