MODEL 5
REMARK VINA RESULT: -7.173118701      1.953      2.563
REMARK  2 active torsions:
REMARK  status: ('A' for Active; 'I' for Inactive)
REMARK    1  A    between atoms: C1_2  and  C2_6 
REMARK    2  A    between atoms: C6_12  and  C7_13 
ROOT
HETATM    1  C2  UNL     1      45.514  19.351  52.578  1.00  0.00     0.007 A 
HETATM    2  C3  UNL     1      44.922  19.115  51.368  1.00  0.00     0.017 A 
HETATM    3  C4  UNL     1      44.728  20.138  50.435  1.00  0.00     0.033 A 
HETATM    4  C5  UNL     1      45.136  21.403  50.733  1.00  0.00     0.060 A 
HETATM    5  N3  UNL     1      45.078  22.571  50.035  1.00  0.00    -0.340 N 
ATOM      6  H3  UNL     1      44.683  22.674  49.100  1.00  0.00     0.167 HD
HETATM    7  C6  UNL     1      45.615  23.566  50.754  1.00  0.00     0.122 A 
HETATM    8  N5  UNL     1      46.022  22.996  51.940  1.00  0.00    -0.340 N 
ATOM      9  H5  UNL     1      46.473  23.497  52.706  1.00  0.00     0.167 HD
HETATM   10  C12 UNL     1      45.736  21.686  51.939  1.00  0.00     0.061 A 
HETATM   11  C13 UNL     1      45.921  20.666  52.849  1.00  0.00     0.046 A 
ENDROOT
BRANCH   7  12
HETATM   12  C7  UNL     1      45.779  24.976  50.433  1.00  0.00     0.076 A 
HETATM   13  C8  UNL     1      44.917  25.584  49.530  1.00  0.00     0.022 A 
HETATM   14  C9  UNL     1      45.034  26.918  49.195  1.00  0.00     0.018 A 
HETATM   15  C10 UNL     1      46.044  27.656  49.786  1.00  0.00     0.091 A 
HETATM   16  N4  UNL     1      46.877  27.080  50.655  1.00  0.00    -0.333 N 
HETATM   17  C11 UNL     1      46.751  25.760  50.978  1.00  0.00     0.259 A 
ATOM     18  H4  UNL     1      47.618  27.634  51.084  1.00  0.00     0.168 HD
HETATM   19  O1  UNL     1      47.567  25.270  51.806  1.00  0.00    -0.267 OA
ENDBRANCH   7  12
BRANCH   1  20
HETATM   20  C1  UNL     1      45.742  18.315  53.594  1.00  0.00     0.120 C 
HETATM   21  N1  UNL     1      44.956  17.114  53.565  1.00  0.00    -0.082 NA
HETATM   22  N2  UNL     1      46.633  18.490  54.492  1.00  0.00    -0.387 N 
ATOM     23  H22 UNL     1      46.792  17.771  55.198  1.00  0.00     0.157 HD
ATOM     24  H21 UNL     1      47.191  19.343  54.513  1.00  0.00     0.157 HD
ENDBRANCH   1  20
TORSDOF 2
ENDMDL
