MODEL 8
REMARK VINA RESULT: -6.975954321      2.101      7.032
REMARK  2 active torsions:
REMARK  status: ('A' for Active; 'I' for Inactive)
REMARK    1  A    between atoms: C1_2  and  C2_6 
REMARK    2  A    between atoms: C6_12  and  C7_13 
ROOT
HETATM    1  C2  UNL     1      45.859  25.959  50.008  1.00  0.00     0.007 A 
HETATM    2  C3  UNL     1      45.346  25.402  48.870  1.00  0.00     0.017 A 
HETATM    3  C4  UNL     1      45.018  24.045  48.801  1.00  0.00     0.033 A 
HETATM    4  C5  UNL     1      45.210  23.252  49.892  1.00  0.00     0.060 A 
HETATM    5  N3  UNL     1      44.987  21.927  50.112  1.00  0.00    -0.340 N 
ATOM      6  H3  UNL     1      44.606  21.277  49.424  1.00  0.00     0.167 HD
HETATM    7  C6  UNL     1      45.339  21.601  51.362  1.00  0.00     0.122 A 
HETATM    8  N5  UNL     1      45.797  22.764  51.941  1.00  0.00    -0.340 N 
ATOM      9  H5  UNL     1      46.140  22.846  52.898  1.00  0.00     0.167 HD
HETATM   10  C12 UNL     1      45.724  23.772  51.060  1.00  0.00     0.061 A 
HETATM   11  C13 UNL     1      46.044  25.112  51.112  1.00  0.00     0.046 A 
ENDROOT
BRANCH   7  12
HETATM   12  C7  UNL     1      45.284  20.320  52.050  1.00  0.00     0.076 A 
HETATM   13  C8  UNL     1      46.065  20.107  53.179  1.00  0.00     0.022 A 
HETATM   14  C9  UNL     1      46.046  18.909  53.864  1.00  0.00     0.018 A 
HETATM   15  C10 UNL     1      45.220  17.901  53.399  1.00  0.00     0.091 A 
HETATM   16  N4  UNL     1      44.467  18.096  52.315  1.00  0.00    -0.333 N 
HETATM   17  C11 UNL     1      44.494  19.285  51.647  1.00  0.00     0.259 A 
ATOM     18  H4  UNL     1      43.861  17.346  51.982  1.00  0.00     0.168 HD
HETATM   19  O1  UNL     1      43.760  19.412  50.629  1.00  0.00    -0.267 OA
ENDBRANCH   7  12
BRANCH   1  20
HETATM   20  C1  UNL     1      46.222  27.377  50.135  1.00  0.00     0.120 C 
HETATM   21  N1  UNL     1      46.279  28.198  48.958  1.00  0.00    -0.082 NA
HETATM   22  N2  UNL     1      46.484  27.867  51.285  1.00  0.00    -0.387 N 
ATOM     23  H22 UNL     1      46.735  28.851  51.373  1.00  0.00     0.157 HD
ATOM     24  H21 UNL     1      46.443  27.283  52.120  1.00  0.00     0.157 HD
ENDBRANCH   1  20
TORSDOF 2
ENDMDL
