MODEL 14
REMARK VINA RESULT: -6.766178049      2.309      2.989
REMARK  2 active torsions:
REMARK  status: ('A' for Active; 'I' for Inactive)
REMARK    1  A    between atoms: C1_2  and  C2_6 
REMARK    2  A    between atoms: C6_12  and  C7_13 
ROOT
HETATM    1  C2  UNL     1      45.196  19.379  52.658  1.00  0.00     0.007 A 
HETATM    2  C3  UNL     1      44.555  19.063  51.492  1.00  0.00     0.017 A 
HETATM    3  C4  UNL     1      44.062  20.052  50.635  1.00  0.00     0.033 A 
HETATM    4  C5  UNL     1      44.220  21.364  50.964  1.00  0.00     0.060 A 
HETATM    5  N3  UNL     1      43.851  22.515  50.337  1.00  0.00    -0.340 N 
ATOM      6  H3  UNL     1      43.357  22.562  49.446  1.00  0.00     0.167 HD
HETATM    7  C6  UNL     1      44.232  23.576  51.059  1.00  0.00     0.122 A 
HETATM    8  N5  UNL     1      44.861  23.068  52.174  1.00  0.00    -0.340 N 
ATOM      9  H5  UNL     1      45.267  23.628  52.924  1.00  0.00     0.167 HD
HETATM   10  C12 UNL     1      44.860  21.728  52.128  1.00  0.00     0.061 A 
HETATM   11  C13 UNL     1      45.341  20.741  52.963  1.00  0.00     0.046 A 
ENDROOT
BRANCH   7  12
HETATM   12  C7  UNL     1      44.064  24.999  50.802  1.00  0.00     0.076 A 
HETATM   13  C8  UNL     1      44.349  25.512  49.543  1.00  0.00     0.022 A 
HETATM   14  C9  UNL     1      44.204  26.853  49.253  1.00  0.00     0.018 A 
HETATM   15  C10 UNL     1      43.762  27.698  50.255  1.00  0.00     0.091 A 
HETATM   16  N4  UNL     1      43.486  27.213  51.468  1.00  0.00    -0.333 N 
HETATM   17  C11 UNL     1      43.633  25.885  51.743  1.00  0.00     0.259 A 
ATOM     18  H4  UNL     1      43.161  27.845  52.199  1.00  0.00     0.168 HD
HETATM   19  O1  UNL     1      43.357  25.485  52.906  1.00  0.00    -0.267 OA
ENDBRANCH   7  12
BRANCH   1  20
HETATM   20  C1  UNL     1      45.733  18.383  53.594  1.00  0.00     0.120 C 
HETATM   21  N1  UNL     1      45.132  17.081  53.659  1.00  0.00    -0.082 NA
HETATM   22  N2  UNL     1      46.725  18.681  54.341  1.00  0.00    -0.387 N 
ATOM     23  H22 UNL     1      47.098  17.990  54.991  1.00  0.00     0.157 HD
ATOM     24  H21 UNL     1      47.152  19.606  54.295  1.00  0.00     0.157 HD
ENDBRANCH   1  20
TORSDOF 2
ENDMDL
