MODEL 2
REMARK VINA RESULT: -7.598538395      1.324      1.984
REMARK  2 active torsions:
REMARK  status: ('A' for Active; 'I' for Inactive)
REMARK    1  A    between atoms: C1_2  and  C2_6 
REMARK    2  A    between atoms: C6_12  and  C7_13 
ROOT
HETATM    1  C2  UNL     1      45.426  19.282  52.643  1.00  0.00     0.007 A 
HETATM    2  C3  UNL     1      44.618  18.931  51.596  1.00  0.00     0.017 A 
HETATM    3  C4  UNL     1      44.243  19.856  50.618  1.00  0.00     0.033 A 
HETATM    4  C5  UNL     1      44.689  21.140  50.702  1.00  0.00     0.060 A 
HETATM    5  N3  UNL     1      44.491  22.231  49.912  1.00  0.00    -0.340 N 
ATOM      6  H3  UNL     1      43.925  22.243  49.063  1.00  0.00     0.167 HD
HETATM    7  C6  UNL     1      45.145  23.287  50.411  1.00  0.00     0.122 A 
HETATM    8  N5  UNL     1      45.774  22.837  51.551  1.00  0.00    -0.340 N 
ATOM      9  H5  UNL     1      46.358  23.408  52.162  1.00  0.00     0.167 HD
HETATM   10  C12 UNL     1      45.505  21.537  51.738  1.00  0.00     0.061 A 
HETATM   11  C13 UNL     1      45.866  20.613  52.696  1.00  0.00     0.046 A 
ENDROOT
BRANCH   7  12
HETATM   12  C7  UNL     1      45.234  24.655  49.923  1.00  0.00     0.076 A 
HETATM   13  C8  UNL     1      46.051  25.570  50.575  1.00  0.00     0.022 A 
HETATM   14  C9  UNL     1      46.166  26.878  50.148  1.00  0.00     0.018 A 
HETATM   15  C10 UNL     1      45.440  27.272  49.039  1.00  0.00     0.091 A 
HETATM   16  N4  UNL     1      44.653  26.400  48.406  1.00  0.00    -0.333 N 
HETATM   17  C11 UNL     1      44.547  25.110  48.837  1.00  0.00     0.259 A 
ATOM     18  H4  UNL     1      44.122  26.702  47.589  1.00  0.00     0.168 HD
HETATM   19  O1  UNL     1      43.788  24.331  48.200  1.00  0.00    -0.267 OA
ENDBRANCH   7  12
BRANCH   1  20
HETATM   20  C1  UNL     1      45.851  18.352  53.697  1.00  0.00     0.120 C 
HETATM   21  N1  UNL     1      45.119  17.133  53.899  1.00  0.00    -0.082 NA
HETATM   22  N2  UNL     1      46.862  18.634  54.425  1.00  0.00    -0.387 N 
ATOM     23  H22 UNL     1      47.158  17.989  55.157  1.00  0.00     0.157 HD
ATOM     24  H21 UNL     1      47.381  19.500  54.281  1.00  0.00     0.157 HD
ENDBRANCH   1  20
TORSDOF 2
ENDMDL
