MODEL 4
REMARK VINA RESULT: -7.308677633      1.795      2.418
REMARK  2 active torsions:
REMARK  status: ('A' for Active; 'I' for Inactive)
REMARK    1  A    between atoms: C1_2  and  C2_6 
REMARK    2  A    between atoms: C6_12  and  C7_13 
ROOT
HETATM    1  C2  UNL     1      45.209  19.276  52.711  1.00  0.00     0.007 A 
HETATM    2  C3  UNL     1      44.595  18.848  51.566  1.00  0.00     0.017 A 
HETATM    3  C4  UNL     1      44.058  19.748  50.641  1.00  0.00     0.033 A 
HETATM    4  C5  UNL     1      44.146  21.086  50.879  1.00  0.00     0.060 A 
HETATM    5  N3  UNL     1      43.723  22.170  50.172  1.00  0.00    -0.340 N 
ATOM      6  H3  UNL     1      43.234  22.131  49.278  1.00  0.00     0.167 HD
HETATM    7  C6  UNL     1      44.042  23.298  50.821  1.00  0.00     0.122 A 
HETATM    8  N5  UNL     1      44.687  22.901  51.972  1.00  0.00    -0.340 N 
ATOM      9  H5  UNL     1      45.057  23.531  52.683  1.00  0.00     0.167 HD
HETATM   10  C12 UNL     1      44.755  21.562  52.018  1.00  0.00     0.061 A 
HETATM   11  C13 UNL     1      45.280  20.662  52.922  1.00  0.00     0.046 A 
ENDROOT
BRANCH   7  12
HETATM   12  C7  UNL     1      43.802  24.688  50.465  1.00  0.00     0.076 A 
HETATM   13  C8  UNL     1      43.726  25.653  51.461  1.00  0.00     0.022 A 
HETATM   14  C9  UNL     1      43.500  26.984  51.171  1.00  0.00     0.018 A 
HETATM   15  C10 UNL     1      43.347  27.349  49.846  1.00  0.00     0.091 A 
HETATM   16  N4  UNL     1      43.418  26.428  48.883  1.00  0.00    -0.333 N 
HETATM   17  C11 UNL     1      43.642  25.117  49.181  1.00  0.00     0.259 A 
ATOM     18  H4  UNL     1      43.303  26.710  47.909  1.00  0.00     0.168 HD
HETATM   19  O1  UNL     1      43.700  24.291  48.230  1.00  0.00    -0.267 OA
ENDBRANCH   7  12
BRANCH   1  20
HETATM   20  C1  UNL     1      45.789  18.376  53.716  1.00  0.00     0.120 C 
HETATM   21  N1  UNL     1      45.168  17.106  53.966  1.00  0.00    -0.082 NA
HETATM   22  N2  UNL     1      46.835  18.728  54.358  1.00  0.00    -0.387 N 
ATOM     23  H22 UNL     1      47.238  18.103  55.055  1.00  0.00     0.157 HD
ATOM     24  H21 UNL     1      47.276  19.631  54.180  1.00  0.00     0.157 HD
ENDBRANCH   1  20
TORSDOF 2
ENDMDL
