MODEL 6
REMARK VINA RESULT: -7.198063579      1.792      2.468
REMARK  3 active torsions:
REMARK  status: ('A' for Active; 'I' for Inactive)
REMARK    1  A    between atoms: C1_2  and  C2_6 
REMARK    2  A    between atoms: C6_12  and  C7_13 
REMARK    3  A    between atoms: C12_18  and  O1_19 
ROOT
HETATM    1  C2  UNL     1      29.121  14.791  16.870  1.00  0.00     0.007 A 
HETATM    2  C3  UNL     1      28.451  15.562  17.811  1.00  0.00     0.017 A 
HETATM    3  C4  UNL     1      27.871  14.912  18.876  1.00  0.00     0.033 A 
HETATM    4  C5  UNL     1      27.932  13.543  19.040  1.00  0.00     0.060 A 
HETATM    5  N3  UNL     1      27.463  12.678  19.970  1.00  0.00    -0.340 N 
ATOM      6  H3  UNL     1      26.924  12.950  20.791  1.00  0.00     0.167 HD
HETATM    7  C6  UNL     1      27.800  11.414  19.665  1.00  0.00     0.119 A 
HETATM    8  N4  UNL     1      28.496  11.495  18.518  1.00  0.00    -0.340 N 
ATOM      9  H4  UNL     1      28.894  10.696  18.024  1.00  0.00     0.167 HD
HETATM   10  C13 UNL     1      28.594  12.765  18.115  1.00  0.00     0.061 A 
HETATM   11  C14 UNL     1      29.187  13.421  17.028  1.00  0.00     0.046 A 
ENDROOT
BRANCH   7  12
HETATM   12  C7  UNL     1      27.482  10.190  20.415  1.00  0.00     0.041 A 
HETATM   13  C8  UNL     1      27.215   9.008  19.773  1.00  0.00     0.018 A 
HETATM   14  C9  UNL     1      26.913   7.839  20.451  1.00  0.00     0.001 A 
HETATM   15  C10 UNL     1      26.877   7.856  21.828  1.00  0.00     0.003 A 
HETATM   16  C11 UNL     1      27.145   9.042  22.479  1.00  0.00     0.037 A 
HETATM   17  C12 UNL     1      27.444  10.195  21.788  1.00  0.00     0.079 A 
BRANCH  17  18
HETATM   18  O1  UNL     1      27.717  11.402  22.437  1.00  0.00    -0.360 OA
ATOM     19  H1  UNL     1      27.643  11.417  23.383  1.00  0.00     0.217 HD
ENDBRANCH  17  18
ENDBRANCH   7  12
BRANCH   1  20
HETATM   20  C1  UNL     1      29.740  15.479  15.734  1.00  0.00     0.120 C 
HETATM   21  N1  UNL     1      29.110  16.690  15.249  1.00  0.00    -0.082 NA
HETATM   22  N2  UNL     1      30.803  15.063  15.154  1.00  0.00    -0.387 N 
ATOM     23  H22 UNL     1      31.234  15.542  14.363  1.00  0.00     0.157 HD
ATOM     24  H21 UNL     1      31.246  14.211  15.496  1.00  0.00     0.157 HD
ENDBRANCH   1  20
TORSDOF 3
ENDMDL
