MODEL 10
REMARK VINA RESULT: -6.876010449      2.322      7.098
REMARK  3 active torsions:
REMARK  status: ('A' for Active; 'I' for Inactive)
REMARK    1  A    between atoms: C1_2  and  C2_6 
REMARK    2  A    between atoms: C6_12  and  C7_13 
REMARK    3  A    between atoms: C12_18  and  O1_19 
ROOT
HETATM    1  C2  UNL     1      29.509   9.154  21.899  1.00  0.00     0.007 A 
HETATM    2  C3  UNL     1      29.175  10.083  22.876  1.00  0.00     0.017 A 
HETATM    3  C4  UNL     1      28.990  11.389  22.483  1.00  0.00     0.033 A 
HETATM    4  C5  UNL     1      29.122  11.800  21.172  1.00  0.00     0.060 A 
HETATM    5  N3  UNL     1      28.997  12.989  20.535  1.00  0.00    -0.340 N 
ATOM      6  H3  UNL     1      28.757  13.867  20.994  1.00  0.00     0.167 HD
HETATM    7  C6  UNL     1      29.233  12.857  19.220  1.00  0.00     0.119 A 
HETATM    8  N4  UNL     1      29.511  11.555  19.034  1.00  0.00    -0.340 N 
ATOM      9  H4  UNL     1      29.737  11.133  18.133  1.00  0.00     0.167 HD
HETATM   10  C13 UNL     1      29.452  10.890  20.192  1.00  0.00     0.061 A 
HETATM   11  C14 UNL     1      29.641   9.559  20.586  1.00  0.00     0.046 A 
ENDROOT
BRANCH   7  12
HETATM   12  C7  UNL     1      29.200  13.903  18.188  1.00  0.00     0.041 A 
HETATM   13  C8  UNL     1      30.018  13.849  17.088  1.00  0.00     0.018 A 
HETATM   14  C9  UNL     1      30.009  14.819  16.100  1.00  0.00     0.001 A 
HETATM   15  C10 UNL     1      29.147  15.886  16.219  1.00  0.00     0.003 A 
HETATM   16  C11 UNL     1      28.322  15.946  17.323  1.00  0.00     0.037 A 
HETATM   17  C12 UNL     1      28.343  14.972  18.296  1.00  0.00     0.079 A 
BRANCH  17  18
HETATM   18  O1  UNL     1      27.513  15.023  19.418  1.00  0.00    -0.360 OA
ATOM     19  H1  UNL     1      27.133  15.863  19.645  1.00  0.00     0.217 HD
ENDBRANCH  17  18
ENDBRANCH   7  12
BRANCH   1  20
HETATM   20  C1  UNL     1      29.707   7.763  22.313  1.00  0.00     0.120 C 
HETATM   21  N1  UNL     1      30.277   7.519  23.622  1.00  0.00    -0.082 NA
HETATM   22  N2  UNL     1      29.401   6.760  21.579  1.00  0.00    -0.387 N 
ATOM     23  H22 UNL     1      29.539   5.791  21.867  1.00  0.00     0.157 HD
ATOM     24  H21 UNL     1      28.999   6.932  20.657  1.00  0.00     0.157 HD
ENDBRANCH   1  20
TORSDOF 3
ENDMDL
