MODEL 11
REMARK VINA RESULT: -6.807850348      2.508      7.091
REMARK  3 active torsions:
REMARK  status: ('A' for Active; 'I' for Inactive)
REMARK    1  A    between atoms: C1_2  and  C2_6 
REMARK    2  A    between atoms: C6_12  and  C7_13 
REMARK    3  A    between atoms: C12_18  and  O1_19 
ROOT
HETATM    1  C2  UNL     1      29.297  10.232  22.989  1.00  0.00     0.007 A 
HETATM    2  C3  UNL     1      29.463   9.235  22.037  1.00  0.00     0.017 A 
HETATM    3  C4  UNL     1      29.504   9.613  20.714  1.00  0.00     0.033 A 
HETATM    4  C5  UNL     1      29.388  10.926  20.308  1.00  0.00     0.060 A 
HETATM    5  N3  UNL     1      29.396  11.551  19.106  1.00  0.00    -0.340 N 
ATOM      6  H3  UNL     1      29.502  11.077  18.210  1.00  0.00     0.167 HD
HETATM    7  C6  UNL     1      29.245  12.878  19.252  1.00  0.00     0.119 A 
HETATM    8  N4  UNL     1      29.140  13.083  20.576  1.00  0.00    -0.340 N 
ATOM      9  H4  UNL     1      29.014  13.996  21.014  1.00  0.00     0.167 HD
HETATM   10  C13 UNL     1      29.223  11.926  21.241  1.00  0.00     0.061 A 
HETATM   11  C14 UNL     1      29.181  11.549  22.589  1.00  0.00     0.046 A 
ENDROOT
BRANCH   7  12
HETATM   12  C7  UNL     1      29.200  13.901  18.199  1.00  0.00     0.041 A 
HETATM   13  C8  UNL     1      28.381  14.997  18.302  1.00  0.00     0.018 A 
HETATM   14  C9  UNL     1      28.317  15.978  17.326  1.00  0.00     0.001 A 
HETATM   15  C10 UNL     1      29.104  15.856  16.204  1.00  0.00     0.003 A 
HETATM   16  C11 UNL     1      29.929  14.756  16.094  1.00  0.00     0.037 A 
HETATM   17  C12 UNL     1      29.981  13.790  17.074  1.00  0.00     0.079 A 
BRANCH  17  18
HETATM   18  O1  UNL     1      30.812  12.673  16.974  1.00  0.00    -0.360 OA
ATOM     19  H1  UNL     1      30.980  12.327  16.106  1.00  0.00     0.217 HD
ENDBRANCH  17  18
ENDBRANCH   7  12
BRANCH   1  20
HETATM   20  C1  UNL     1      29.252   9.834  24.398  1.00  0.00     0.120 C 
HETATM   21  N1  UNL     1      30.412  10.114  25.219  1.00  0.00    -0.082 NA
HETATM   22  N2  UNL     1      28.244   9.256  24.935  1.00  0.00    -0.387 N 
ATOM     23  H22 UNL     1      28.212   8.979  25.917  1.00  0.00     0.157 HD
ATOM     24  H21 UNL     1      27.427   9.060  24.357  1.00  0.00     0.157 HD
ENDBRANCH   1  20
TORSDOF 3
ENDMDL
