MODEL 5
REMARK VINA RESULT: -7.204620869      1.591      2.385
REMARK  3 active torsions:
REMARK  status: ('A' for Active; 'I' for Inactive)
REMARK    1  A    between atoms: C1_2  and  C2_6 
REMARK    2  A    between atoms: C6_12  and  C7_13 
REMARK    3  A    between atoms: C12_18  and  O1_19 
ROOT
HETATM    1  C2  UNL     1      29.474  14.764  16.979  1.00  0.00     0.007 A 
HETATM    2  C3  UNL     1      28.745  15.448  17.942  1.00  0.00     0.017 A 
HETATM    3  C4  UNL     1      28.483  14.800  19.128  1.00  0.00     0.033 A 
HETATM    4  C5  UNL     1      28.914  13.516  19.389  1.00  0.00     0.060 A 
HETATM    5  N3  UNL     1      28.797  12.673  20.442  1.00  0.00    -0.340 N 
ATOM      6  H3  UNL     1      28.308  12.896  21.308  1.00  0.00     0.167 HD
HETATM    7  C6  UNL     1      29.410  11.504  20.193  1.00  0.00     0.119 A 
HETATM    8  N4  UNL     1      29.920  11.623  18.955  1.00  0.00    -0.340 N 
ATOM      9  H4  UNL     1      30.449  10.896  18.473  1.00  0.00     0.167 HD
HETATM   10  C13 UNL     1      29.639  12.825  18.442  1.00  0.00     0.061 A 
HETATM   11  C14 UNL     1      29.909  13.479  17.234  1.00  0.00     0.046 A 
ENDROOT
BRANCH   7  12
HETATM   12  C7  UNL     1      29.511  10.333  21.075  1.00  0.00     0.041 A 
HETATM   13  C8  UNL     1      29.195  10.411  22.407  1.00  0.00     0.018 A 
HETATM   14  C9  UNL     1      29.280   9.325  23.263  1.00  0.00     0.001 A 
HETATM   15  C10 UNL     1      29.698   8.113  22.762  1.00  0.00     0.003 A 
HETATM   16  C11 UNL     1      30.016   8.026  21.423  1.00  0.00     0.037 A 
HETATM   17  C12 UNL     1      29.926   9.117  20.587  1.00  0.00     0.079 A 
BRANCH  17  18
HETATM   18  O1  UNL     1      30.247   9.042  19.230  1.00  0.00    -0.360 OA
ATOM     19  H1  UNL     1      31.162   9.121  18.990  1.00  0.00     0.217 HD
ENDBRANCH  17  18
ENDBRANCH   7  12
BRANCH   1  20
HETATM   20  C1  UNL     1      29.755  15.450  15.715  1.00  0.00     0.120 C 
HETATM   21  N1  UNL     1      28.991  16.640  15.404  1.00  0.00    -0.082 NA
HETATM   22  N2  UNL     1      30.638  15.050  14.878  1.00  0.00    -0.387 N 
ATOM     23  H22 UNL     1      30.834  15.527  13.998  1.00  0.00     0.157 HD
ATOM     24  H21 UNL     1      31.176  14.212  15.098  1.00  0.00     0.157 HD
ENDBRANCH   1  20
TORSDOF 3
ENDMDL
