MODEL 2
REMARK VINA RESULT: -7.622524202      1.110      1.811
REMARK  3 active torsions:
REMARK  status: ('A' for Active; 'I' for Inactive)
REMARK    1  A    between atoms: C1_2  and  C2_6 
REMARK    2  A    between atoms: C6_12  and  C7_13 
REMARK    3  A    between atoms: C12_18  and  O1_19 
ROOT
HETATM    1  C2  UNL     1      29.482  14.847  16.980  1.00  0.00     0.007 A 
HETATM    2  C3  UNL     1      28.997  15.641  18.010  1.00  0.00     0.017 A 
HETATM    3  C4  UNL     1      28.767  15.043  19.228  1.00  0.00     0.033 A 
HETATM    4  C5  UNL     1      28.999  13.702  19.458  1.00  0.00     0.060 A 
HETATM    5  N3  UNL     1      28.862  12.887  20.530  1.00  0.00    -0.340 N 
ATOM      6  H3  UNL     1      28.522  13.186  21.443  1.00  0.00     0.167 HD
HETATM    7  C6  UNL     1      29.233  11.631  20.231  1.00  0.00     0.119 A 
HETATM    8  N4  UNL     1      29.610  11.666  18.941  1.00  0.00    -0.340 N 
ATOM      9  H4  UNL     1      29.947  10.861  18.412  1.00  0.00     0.167 HD
HETATM   10  C13 UNL     1      29.481  12.901  18.445  1.00  0.00     0.061 A 
HETATM   11  C14 UNL     1      29.717  13.504  17.204  1.00  0.00     0.046 A 
ENDROOT
BRANCH   7  12
HETATM   12  C7  UNL     1      29.233  10.456  21.113  1.00  0.00     0.041 A 
HETATM   13  C8  UNL     1      29.959   9.333  20.808  1.00  0.00     0.018 A 
HETATM   14  C9  UNL     1      29.979   8.210  21.618  1.00  0.00     0.001 A 
HETATM   15  C10 UNL     1      29.241   8.214  22.781  1.00  0.00     0.003 A 
HETATM   16  C11 UNL     1      28.509   9.340  23.094  1.00  0.00     0.037 A 
HETATM   17  C12 UNL     1      28.501  10.448  22.276  1.00  0.00     0.079 A 
BRANCH  17  18
HETATM   18  O1  UNL     1      27.764  11.593  22.582  1.00  0.00    -0.360 OA
ATOM     19  H1  UNL     1      27.599  11.777  23.499  1.00  0.00     0.217 HD
ENDBRANCH  17  18
ENDBRANCH   7  12
BRANCH   1  20
HETATM   20  C1  UNL     1      29.727  15.480  15.682  1.00  0.00     0.120 C 
HETATM   21  N1  UNL     1      28.939  16.643  15.334  1.00  0.00    -0.082 NA
HETATM   22  N2  UNL     1      30.600  15.056  14.847  1.00  0.00    -0.387 N 
ATOM     23  H22 UNL     1      30.772  15.497  13.942  1.00  0.00     0.157 HD
ATOM     24  H21 UNL     1      31.156  14.237  15.092  1.00  0.00     0.157 HD
ENDBRANCH   1  20
TORSDOF 3
ENDMDL
