MODEL 4
REMARK VINA RESULT: -7.240653842      1.351      1.537
REMARK  3 active torsions:
REMARK  status: ('A' for Active; 'I' for Inactive)
REMARK    1  A    between atoms: C1_2  and  C2_6 
REMARK    2  A    between atoms: C6_12  and  C7_13 
REMARK    3  A    between atoms: C12_18  and  O1_19 
ROOT
HETATM    1  C2  UNL     1      29.155  14.852  17.156  1.00  0.00     0.007 A 
HETATM    2  C3  UNL     1      30.188  14.025  16.734  1.00  0.00     0.017 A 
HETATM    3  C4  UNL     1      30.436  12.885  17.465  1.00  0.00     0.033 A 
HETATM    4  C5  UNL     1      29.706  12.540  18.583  1.00  0.00     0.060 A 
HETATM    5  N3  UNL     1      29.741  11.506  19.456  1.00  0.00    -0.340 N 
ATOM      6  H3  UNL     1      30.401  10.731  19.406  1.00  0.00     0.167 HD
HETATM    7  C6  UNL     1      28.792  11.638  20.397  1.00  0.00     0.119 A 
HETATM    8  N4  UNL     1      28.151  12.782  20.102  1.00  0.00    -0.340 N 
ATOM      9  H4  UNL     1      27.370  13.164  20.636  1.00  0.00     0.167 HD
HETATM   10  C13 UNL     1      28.677  13.351  19.013  1.00  0.00     0.061 A 
HETATM   11  C14 UNL     1      28.419  14.512  18.274  1.00  0.00     0.046 A 
ENDROOT
BRANCH   7  12
HETATM   12  C7  UNL     1      28.502  10.734  21.519  1.00  0.00     0.041 A 
HETATM   13  C8  UNL     1      29.454  10.433  22.459  1.00  0.00     0.018 A 
HETATM   14  C9  UNL     1      29.211   9.585  23.527  1.00  0.00     0.001 A 
HETATM   15  C10 UNL     1      27.965   9.015  23.656  1.00  0.00     0.003 A 
HETATM   16  C11 UNL     1      27.002   9.313  22.714  1.00  0.00     0.037 A 
HETATM   17  C12 UNL     1      27.261  10.159  21.659  1.00  0.00     0.079 A 
BRANCH  17  18
HETATM   18  O1  UNL     1      26.296  10.468  20.699  1.00  0.00    -0.360 OA
ATOM     19  H1  UNL     1      25.391  10.272  20.908  1.00  0.00     0.217 HD
ENDBRANCH  17  18
ENDBRANCH   7  12
BRANCH   1  20
HETATM   20  C1  UNL     1      28.888  16.066  16.382  1.00  0.00     0.120 C 
HETATM   21  N1  UNL     1      27.769  16.894  16.783  1.00  0.00    -0.082 NA
HETATM   22  N2  UNL     1      29.590  16.427  15.374  1.00  0.00    -0.387 N 
ATOM     23  H22 UNL     1      29.404  17.273  14.834  1.00  0.00     0.157 HD
ATOM     24  H21 UNL     1      30.378  15.844  15.092  1.00  0.00     0.157 HD
ENDBRANCH   1  20
TORSDOF 3
ENDMDL
