MODEL 1
REMARK VINA RESULT: -7.756743716      0.000      0.000
REMARK  3 active torsions:
REMARK  status: ('A' for Active; 'I' for Inactive)
REMARK    1  A    between atoms: C1_2  and  C2_6 
REMARK    2  A    between atoms: C6_12  and  C7_13 
REMARK    3  A    between atoms: C12_18  and  O1_19 
ROOT
HETATM    1  C2  UNL     1      29.180  14.886  17.116  1.00  0.00     0.007 A 
HETATM    2  C3  UNL     1      29.947  13.916  16.485  1.00  0.00     0.017 A 
HETATM    3  C4  UNL     1      30.243  12.772  17.192  1.00  0.00     0.033 A 
HETATM    4  C5  UNL     1      29.810  12.560  18.485  1.00  0.00     0.060 A 
HETATM    5  N3  UNL     1      29.955  11.554  19.379  1.00  0.00    -0.340 N 
ATOM      6  H3  UNL     1      30.474  10.695  19.202  1.00  0.00     0.167 HD
HETATM    7  C6  UNL     1      29.325  11.839  20.531  1.00  0.00     0.119 A 
HETATM    8  N4  UNL     1      28.775  13.051  20.348  1.00  0.00    -0.340 N 
ATOM      9  H4  UNL     1      28.224  13.550  21.047  1.00  0.00     0.167 HD
HETATM   10  C13 UNL     1      29.048  13.514  19.124  1.00  0.00     0.061 A 
HETATM   11  C14 UNL     1      28.744  14.680  18.410  1.00  0.00     0.046 A 
ENDROOT
BRANCH   7  12
HETATM   12  C7  UNL     1      29.244  11.012  21.743  1.00  0.00     0.041 A 
HETATM   13  C8  UNL     1      29.118   9.648  21.671  1.00  0.00     0.018 A 
HETATM   14  C9  UNL     1      29.040   8.843  22.796  1.00  0.00     0.001 A 
HETATM   15  C10 UNL     1      29.089   9.429  24.041  1.00  0.00     0.003 A 
HETATM   16  C11 UNL     1      29.216  10.800  24.120  1.00  0.00     0.037 A 
HETATM   17  C12 UNL     1      29.293  11.585  22.991  1.00  0.00     0.079 A 
BRANCH  17  18
HETATM   18  O1  UNL     1      29.421  12.974  23.058  1.00  0.00    -0.360 OA
ATOM     19  H1  UNL     1      28.706  13.462  23.448  1.00  0.00     0.217 HD
ENDBRANCH  17  18
ENDBRANCH   7  12
BRANCH   1  20
HETATM   20  C1  UNL     1      28.863  16.105  16.368  1.00  0.00     0.120 C 
HETATM   21  N1  UNL     1      27.747  16.908  16.820  1.00  0.00    -0.082 NA
HETATM   22  N2  UNL     1      29.522  16.492  15.340  1.00  0.00    -0.387 N 
ATOM     23  H22 UNL     1      29.302  17.340  14.819  1.00  0.00     0.157 HD
ATOM     24  H21 UNL     1      30.309  15.926  15.022  1.00  0.00     0.157 HD
ENDBRANCH   1  20
TORSDOF 3
ENDMDL
