MODEL 7
REMARK VINA RESULT: -7.193466298      2.321      6.987
REMARK  3 active torsions:
REMARK  status: ('A' for Active; 'I' for Inactive)
REMARK    1  A    between atoms: C1_2  and  C2_6 
REMARK    2  A    between atoms: C6_12  and  C7_13 
REMARK    3  A    between atoms: C12_18  and  O1_19 
ROOT
HETATM    1  C2  UNL     1      29.248  10.253  23.095  1.00  0.00     0.007 A 
HETATM    2  C3  UNL     1      29.488   9.248  22.168  1.00  0.00     0.017 A 
HETATM    3  C4  UNL     1      29.575   9.606  20.842  1.00  0.00     0.033 A 
HETATM    4  C5  UNL     1      29.436  10.908  20.409  1.00  0.00     0.060 A 
HETATM    5  N3  UNL     1      29.477  11.514  19.199  1.00  0.00    -0.340 N 
ATOM      6  H3  UNL     1      29.638  11.030  18.316  1.00  0.00     0.167 HD
HETATM    7  C6  UNL     1      29.277  12.837  19.315  1.00  0.00     0.119 A 
HETATM    8  N4  UNL     1      29.108  13.060  20.630  1.00  0.00    -0.340 N 
ATOM      9  H4  UNL     1      28.934  13.975  21.046  1.00  0.00     0.167 HD
HETATM   10  C13 UNL     1      29.198  11.917  21.318  1.00  0.00     0.061 A 
HETATM   11  C14 UNL     1      29.109  11.559  22.669  1.00  0.00     0.046 A 
ENDROOT
BRANCH   7  12
HETATM   12  C7  UNL     1      29.246  13.843  18.244  1.00  0.00     0.041 A 
HETATM   13  C8  UNL     1      30.088  13.764  17.165  1.00  0.00     0.018 A 
HETATM   14  C9  UNL     1      30.083  14.695  16.140  1.00  0.00     0.001 A 
HETATM   15  C10 UNL     1      29.198  15.748  16.201  1.00  0.00     0.003 A 
HETATM   16  C11 UNL     1      28.348  15.834  17.283  1.00  0.00     0.037 A 
HETATM   17  C12 UNL     1      28.367  14.898  18.294  1.00  0.00     0.079 A 
BRANCH  17  18
HETATM   18  O1  UNL     1      27.512  14.974  19.395  1.00  0.00    -0.360 OA
ATOM     19  H1  UNL     1      27.855  14.697  20.236  1.00  0.00     0.217 HD
ENDBRANCH  17  18
ENDBRANCH   7  12
BRANCH   1  20
HETATM   20  C1  UNL     1      29.154   9.876  24.507  1.00  0.00     0.120 C 
HETATM   21  N1  UNL     1      30.325   9.300  25.136  1.00  0.00    -0.082 NA
HETATM   22  N2  UNL     1      28.094  10.031  25.209  1.00  0.00    -0.387 N 
ATOM     23  H22 UNL     1      28.028   9.768  26.192  1.00  0.00     0.157 HD
ATOM     24  H21 UNL     1      27.270  10.437  24.766  1.00  0.00     0.157 HD
ENDBRANCH   1  20
TORSDOF 3
ENDMDL
