MODEL 10
REMARK VINA RESULT: -6.766651098      1.640      1.710
REMARK  3 active torsions:
REMARK  status: ('A' for Active; 'I' for Inactive)
REMARK    1  A    between atoms: C1_2  and  C2_6 
REMARK    2  A    between atoms: C6_12  and  C7_13 
REMARK    3  A    between atoms: C12_18  and  O1_19 
ROOT
HETATM    1  C2  UNL     1      43.622  -2.559  26.545  1.00  0.00     0.007 A 
HETATM    2  C3  UNL     1      44.189  -1.340  26.862  1.00  0.00     0.017 A 
HETATM    3  C4  UNL     1      43.780  -0.702  28.001  1.00  0.00     0.033 A 
HETATM    4  C5  UNL     1      42.813  -1.239  28.851  1.00  0.00     0.060 A 
HETATM    5  N3  UNL     1      42.248  -0.833  29.995  1.00  0.00    -0.340 N 
ATOM      6  H3  UNL     1      42.474   0.040  30.471  1.00  0.00     0.167 HD
HETATM    7  C6  UNL     1      41.330  -1.741  30.442  1.00  0.00     0.119 A 
HETATM    8  N4  UNL     1      41.345  -2.728  29.531  1.00  0.00    -0.340 N 
ATOM      9  H4  UNL     1      40.766  -3.567  29.573  1.00  0.00     0.167 HD
HETATM   10  C13 UNL     1      42.241  -2.451  28.546  1.00  0.00     0.061 A 
HETATM   11  C14 UNL     1      42.655  -3.100  27.389  1.00  0.00     0.046 A 
ENDROOT
BRANCH   7  12
HETATM   12  C7  UNL     1      40.531  -1.613  31.660  1.00  0.00     0.041 A 
HETATM   13  C8  UNL     1      40.698  -2.574  32.659  1.00  0.00     0.018 A 
HETATM   14  C9  UNL     1      39.992  -2.538  33.841  1.00  0.00     0.001 A 
HETATM   15  C10 UNL     1      39.079  -1.533  34.079  1.00  0.00     0.003 A 
HETATM   16  C11 UNL     1      38.919  -0.589  33.090  1.00  0.00     0.037 A 
HETATM   17  C12 UNL     1      39.630  -0.618  31.892  1.00  0.00     0.079 A 
BRANCH  17  18
HETATM   18  O1  UNL     1      39.431   0.354  30.930  1.00  0.00    -0.360 OA
ATOM     19  H1  UNL     1      39.375   1.265  31.194  1.00  0.00     0.217 HD
ENDBRANCH  17  18
ENDBRANCH   7  12
BRANCH   1  20
HETATM   20  C1  UNL     1      44.041  -3.250  25.342  1.00  0.00     0.120 C 
HETATM   21  N1  UNL     1      44.322  -2.462  24.171  1.00  0.00    -0.082 NA
HETATM   22  N2  UNL     1      44.172  -4.528  25.289  1.00  0.00    -0.387 N 
ATOM     23  H22 UNL     1      44.467  -5.014  24.442  1.00  0.00     0.157 HD
ATOM     24  H21 UNL     1      43.974  -5.087  26.119  1.00  0.00     0.157 HD
ENDBRANCH   1  20
TORSDOF 3
ENDMDL
