MODEL 13
REMARK VINA RESULT: -6.697246625      1.161      1.859
REMARK  3 active torsions:
REMARK  status: ('A' for Active; 'I' for Inactive)
REMARK    1  A    between atoms: C1_2  and  C2_6 
REMARK    2  A    between atoms: C6_12  and  C7_13 
REMARK    3  A    between atoms: C12_18  and  O1_19 
ROOT
HETATM    1  C2  UNL     1      43.671  -2.064  26.731  1.00  0.00     0.007 A 
HETATM    2  C3  UNL     1      43.440  -3.400  26.993  1.00  0.00     0.017 A 
HETATM    3  C4  UNL     1      43.079  -3.766  28.261  1.00  0.00     0.033 A 
HETATM    4  C5  UNL     1      42.937  -2.840  29.294  1.00  0.00     0.060 A 
HETATM    5  N3  UNL     1      42.603  -2.929  30.588  1.00  0.00    -0.340 N 
ATOM      6  H3  UNL     1      42.376  -3.802  31.065  1.00  0.00     0.167 HD
HETATM    7  C6  UNL     1      42.608  -1.701  31.186  1.00  0.00     0.119 A 
HETATM    8  N4  UNL     1      42.956  -0.843  30.213  1.00  0.00    -0.340 N 
ATOM      9  H4  UNL     1      43.052   0.166  30.334  1.00  0.00     0.167 HD
HETATM   10  C13 UNL     1      43.164  -1.507  29.045  1.00  0.00     0.061 A 
HETATM   11  C14 UNL     1      43.532  -1.134  27.758  1.00  0.00     0.046 A 
ENDROOT
BRANCH   7  12
HETATM   12  C7  UNL     1      42.291  -1.437  32.588  1.00  0.00     0.041 A 
HETATM   13  C8  UNL     1      41.268  -2.181  33.181  1.00  0.00     0.018 A 
HETATM   14  C9  UNL     1      40.898  -2.006  34.496  1.00  0.00     0.001 A 
HETATM   15  C10 UNL     1      41.536  -1.072  35.284  1.00  0.00     0.003 A 
HETATM   16  C11 UNL     1      42.543  -0.342  34.692  1.00  0.00     0.037 A 
HETATM   17  C12 UNL     1      42.924  -0.514  33.364  1.00  0.00     0.079 A 
BRANCH  17  18
HETATM   18  O1  UNL     1      43.941   0.246  32.818  1.00  0.00    -0.360 OA
ATOM     19  H1  UNL     1      44.785  -0.157  32.653  1.00  0.00     0.217 HD
ENDBRANCH  17  18
ENDBRANCH   7  12
BRANCH   1  20
HETATM   20  C1  UNL     1      44.057  -1.655  25.394  1.00  0.00     0.120 C 
HETATM   21  N1  UNL     1      43.856  -0.278  25.023  1.00  0.00    -0.082 NA
HETATM   22  N2  UNL     1      44.567  -2.470  24.542  1.00  0.00    -0.387 N 
ATOM     23  H22 UNL     1      44.838  -2.183  23.602  1.00  0.00     0.157 HD
ATOM     24  H21 UNL     1      44.709  -3.446  24.805  1.00  0.00     0.157 HD
ENDBRANCH   1  20
TORSDOF 3
ENDMDL
