MODEL 8
REMARK VINA RESULT: -6.844580917      1.335      1.432
REMARK  3 active torsions:
REMARK  status: ('A' for Active; 'I' for Inactive)
REMARK    1  A    between atoms: C1_2  and  C2_6 
REMARK    2  A    between atoms: C6_12  and  C7_13 
REMARK    3  A    between atoms: C12_18  and  O1_19 
ROOT
HETATM    1  C2  UNL     1      43.652  -2.663  26.674  1.00  0.00     0.007 A 
HETATM    2  C3  UNL     1      44.097  -1.406  27.033  1.00  0.00     0.017 A 
HETATM    3  C4  UNL     1      43.811  -0.943  28.288  1.00  0.00     0.033 A 
HETATM    4  C5  UNL     1      43.090  -1.694  29.215  1.00  0.00     0.060 A 
HETATM    5  N3  UNL     1      42.684  -1.483  30.474  1.00  0.00    -0.340 N 
ATOM      6  H3  UNL     1      42.871  -0.632  31.004  1.00  0.00     0.167 HD
HETATM    7  C6  UNL     1      41.989  -2.556  30.955  1.00  0.00     0.119 A 
HETATM    8  N4  UNL     1      41.977  -3.443  29.947  1.00  0.00    -0.340 N 
ATOM      9  H4  UNL     1      41.532  -4.360  29.985  1.00  0.00     0.167 HD
HETATM   10  C13 UNL     1      42.641  -2.947  28.869  1.00  0.00     0.061 A 
HETATM   11  C14 UNL     1      42.929  -3.418  27.595  1.00  0.00     0.046 A 
ENDROOT
BRANCH   7  12
HETATM   12  C7  UNL     1      41.406  -2.660  32.292  1.00  0.00     0.041 A 
HETATM   13  C8  UNL     1      42.237  -2.426  33.390  1.00  0.00     0.018 A 
HETATM   14  C9  UNL     1      41.780  -2.500  34.688  1.00  0.00     0.001 A 
HETATM   15  C10 UNL     1      40.463  -2.814  34.948  1.00  0.00     0.003 A 
HETATM   16  C11 UNL     1      39.651  -3.043  33.861  1.00  0.00     0.037 A 
HETATM   17  C12 UNL     1      40.104  -2.970  32.546  1.00  0.00     0.079 A 
BRANCH  17  18
HETATM   18  O1  UNL     1      39.247  -3.211  31.489  1.00  0.00    -0.360 OA
ATOM     19  H1  UNL     1      38.352  -2.898  31.536  1.00  0.00     0.217 HD
ENDBRANCH  17  18
ENDBRANCH   7  12
BRANCH   1  20
HETATM   20  C1  UNL     1      43.943  -3.172  25.348  1.00  0.00     0.120 C 
HETATM   21  N1  UNL     1      44.232  -2.221  24.306  1.00  0.00    -0.082 NA
HETATM   22  N2  UNL     1      43.953  -4.428  25.077  1.00  0.00    -0.387 N 
ATOM     23  H22 UNL     1      44.158  -4.787  24.144  1.00  0.00     0.157 HD
ATOM     24  H21 UNL     1      43.749  -5.102  25.815  1.00  0.00     0.157 HD
ENDBRANCH   1  20
TORSDOF 3
ENDMDL
