MODEL 1
REMARK VINA RESULT: -7.310035435      0.000      0.000
REMARK  3 active torsions:
REMARK  status: ('A' for Active; 'I' for Inactive)
REMARK    1  A    between atoms: C1_2  and  C2_6 
REMARK    2  A    between atoms: C6_12  and  C7_13 
REMARK    3  A    between atoms: C12_18  and  O1_19 
ROOT
HETATM    1  C2  UNL     1      43.770  -2.629  26.493  1.00  0.00     0.007 A 
HETATM    2  C3  UNL     1      44.109  -1.307  26.706  1.00  0.00     0.017 A 
HETATM    3  C4  UNL     1      43.932  -0.778  27.955  1.00  0.00     0.033 A 
HETATM    4  C5  UNL     1      43.423  -1.524  29.017  1.00  0.00     0.060 A 
HETATM    5  N3  UNL     1      43.157  -1.257  30.302  1.00  0.00    -0.340 N 
ATOM      6  H3  UNL     1      43.310  -0.351  30.746  1.00  0.00     0.167 HD
HETATM    7  C6  UNL     1      42.656  -2.356  30.942  1.00  0.00     0.119 A 
HETATM    8  N4  UNL     1      42.620  -3.317  30.005  1.00  0.00    -0.340 N 
ATOM      9  H4  UNL     1      42.291  -4.270  30.162  1.00  0.00     0.167 HD
HETATM   10  C13 UNL     1      43.082  -2.841  28.818  1.00  0.00     0.061 A 
HETATM   11  C14 UNL     1      43.260  -3.380  27.550  1.00  0.00     0.046 A 
ENDROOT
BRANCH   7  12
HETATM   12  C7  UNL     1      42.261  -2.413  32.349  1.00  0.00     0.041 A 
HETATM   13  C8  UNL     1      42.207  -3.666  32.964  1.00  0.00     0.018 A 
HETATM   14  C9  UNL     1      41.847  -3.823  34.284  1.00  0.00     0.001 A 
HETATM   15  C10 UNL     1      41.521  -2.727  35.055  1.00  0.00     0.003 A 
HETATM   16  C11 UNL     1      41.576  -1.496  34.441  1.00  0.00     0.037 A 
HETATM   17  C12 UNL     1      41.940  -1.329  33.107  1.00  0.00     0.079 A 
BRANCH  17  18
HETATM   18  O1  UNL     1      41.979  -0.070  32.538  1.00  0.00    -0.360 OA
ATOM     19  H1  UNL     1      41.274   0.203  31.964  1.00  0.00     0.217 HD
ENDBRANCH  17  18
ENDBRANCH   7  12
BRANCH   1  20
HETATM   20  C1  UNL     1      43.948  -3.209  25.176  1.00  0.00     0.120 C 
HETATM   21  N1  UNL     1      44.251  -2.324  24.082  1.00  0.00    -0.082 NA
HETATM   22  N2  UNL     1      43.849  -4.472  24.958  1.00  0.00    -0.387 N 
ATOM     23  H22 UNL     1      43.975  -4.880  24.032  1.00  0.00     0.157 HD
ATOM     24  H21 UNL     1      43.635  -5.099  25.734  1.00  0.00     0.157 HD
ENDBRANCH   1  20
TORSDOF 3
ENDMDL
