MODEL 3
REMARK VINA RESULT: -7.081743406      1.095      1.535
REMARK  3 active torsions:
REMARK  status: ('A' for Active; 'I' for Inactive)
REMARK    1  A    between atoms: C1_2  and  C2_6 
REMARK    2  A    between atoms: C6_12  and  C7_13 
REMARK    3  A    between atoms: C12_18  and  O1_19 
ROOT
HETATM    1  C2  UNL     1      43.755  -2.606  26.476  1.00  0.00     0.007 A 
HETATM    2  C3  UNL     1      44.035  -1.269  26.678  1.00  0.00     0.017 A 
HETATM    3  C4  UNL     1      43.839  -0.738  27.923  1.00  0.00     0.033 A 
HETATM    4  C5  UNL     1      43.368  -1.498  28.993  1.00  0.00     0.060 A 
HETATM    5  N3  UNL     1      43.095  -1.233  30.277  1.00  0.00    -0.340 N 
ATOM      6  H3  UNL     1      43.209  -0.318  30.713  1.00  0.00     0.167 HD
HETATM    7  C6  UNL     1      42.646  -2.348  30.927  1.00  0.00     0.119 A 
HETATM    8  N4  UNL     1      42.649  -3.317  29.998  1.00  0.00    -0.340 N 
ATOM      9  H4  UNL     1      42.364  -4.283  30.163  1.00  0.00     0.167 HD
HETATM   10  C13 UNL     1      43.085  -2.830  28.805  1.00  0.00     0.061 A 
HETATM   11  C14 UNL     1      43.283  -3.371  27.541  1.00  0.00     0.046 A 
ENDROOT
BRANCH   7  12
HETATM   12  C7  UNL     1      42.259  -2.412  32.336  1.00  0.00     0.041 A 
HETATM   13  C8  UNL     1      41.878  -1.225  32.966  1.00  0.00     0.018 A 
HETATM   14  C9  UNL     1      41.497  -1.184  34.289  1.00  0.00     0.001 A 
HETATM   15  C10 UNL     1      41.479  -2.335  35.047  1.00  0.00     0.003 A 
HETATM   16  C11 UNL     1      41.855  -3.501  34.419  1.00  0.00     0.037 A 
HETATM   17  C12 UNL     1      42.242  -3.551  33.082  1.00  0.00     0.079 A 
BRANCH  17  18
HETATM   18  O1  UNL     1      42.612  -4.748  32.498  1.00  0.00    -0.360 OA
ATOM     19  H1  UNL     1      42.264  -5.561  32.845  1.00  0.00     0.217 HD
ENDBRANCH  17  18
ENDBRANCH   7  12
BRANCH   1  20
HETATM   20  C1  UNL     1      43.955  -3.188  25.163  1.00  0.00     0.120 C 
HETATM   21  N1  UNL     1      44.265  -2.303  24.071  1.00  0.00    -0.082 NA
HETATM   22  N2  UNL     1      43.867  -4.452  24.947  1.00  0.00    -0.387 N 
ATOM     23  H22 UNL     1      44.008  -4.861  24.023  1.00  0.00     0.157 HD
ATOM     24  H21 UNL     1      43.648  -5.079  25.721  1.00  0.00     0.157 HD
ENDBRANCH   1  20
TORSDOF 3
ENDMDL
