MODEL 11
REMARK VINA RESULT: -6.717532759      2.729      7.229
REMARK  3 active torsions:
REMARK  status: ('A' for Active; 'I' for Inactive)
REMARK    1  A    between atoms: C1_2  and  C2_6 
REMARK    2  A    between atoms: C6_12  and  C7_13 
REMARK    3  A    between atoms: C12_18  and  O1_19 
ROOT
HETATM    1  C2  UNL     1      41.232  -0.858  33.470  1.00  0.00     0.007 A 
HETATM    2  C3  UNL     1      40.171  -0.258  32.819  1.00  0.00     0.017 A 
HETATM    3  C4  UNL     1      40.146  -0.276  31.452  1.00  0.00     0.033 A 
HETATM    4  C5  UNL     1      41.150  -0.878  30.694  1.00  0.00     0.060 A 
HETATM    5  N3  UNL     1      41.362  -1.032  29.381  1.00  0.00    -0.340 N 
ATOM      6  H3  UNL     1      40.737  -0.688  28.652  1.00  0.00     0.167 HD
HETATM    7  C6  UNL     1      42.523  -1.712  29.144  1.00  0.00     0.119 A 
HETATM    8  N4  UNL     1      43.027  -1.974  30.361  1.00  0.00    -0.340 N 
ATOM      9  H4  UNL     1      43.898  -2.475  30.535  1.00  0.00     0.167 HD
HETATM   10  C13 UNL     1      42.211  -1.478  31.330  1.00  0.00     0.061 A 
HETATM   11  C14 UNL     1      42.239  -1.459  32.719  1.00  0.00     0.046 A 
ENDROOT
BRANCH   7  12
HETATM   12  C7  UNL     1      43.055  -2.052  27.826  1.00  0.00     0.041 A 
HETATM   13  C8  UNL     1      43.680  -1.043  27.089  1.00  0.00     0.018 A 
HETATM   14  C9  UNL     1      44.212  -1.266  25.839  1.00  0.00     0.001 A 
HETATM   15  C10 UNL     1      44.143  -2.516  25.263  1.00  0.00     0.003 A 
HETATM   16  C11 UNL     1      43.526  -3.506  25.994  1.00  0.00     0.037 A 
HETATM   17  C12 UNL     1      42.986  -3.289  27.259  1.00  0.00     0.079 A 
BRANCH  17  18
HETATM   18  O1  UNL     1      42.376  -4.317  27.952  1.00  0.00    -0.360 OA
ATOM     19  H1  UNL     1      41.489  -4.201  28.271  1.00  0.00     0.217 HD
ENDBRANCH  17  18
ENDBRANCH   7  12
BRANCH   1  20
HETATM   20  C1  UNL     1      41.279  -0.849  34.919  1.00  0.00     0.120 C 
HETATM   21  N1  UNL     1      40.221  -0.175  35.626  1.00  0.00    -0.082 NA
HETATM   22  N2  UNL     1      42.220  -1.417  35.583  1.00  0.00    -0.387 N 
ATOM     23  H22 UNL     1      42.253  -1.411  36.603  1.00  0.00     0.157 HD
ATOM     24  H21 UNL     1      42.970  -1.895  35.082  1.00  0.00     0.157 HD
ENDBRANCH   1  20
TORSDOF 3
ENDMDL
