MODEL 6
REMARK VINA RESULT: -6.904602132      3.796      7.423
REMARK  3 active torsions:
REMARK  status: ('A' for Active; 'I' for Inactive)
REMARK    1  A    between atoms: C1_2  and  C2_6 
REMARK    2  A    between atoms: C6_12  and  C7_13 
REMARK    3  A    between atoms: C12_18  and  O1_19 
ROOT
HETATM    1  C2  UNL     1      38.255   1.004  32.841  1.00  0.00     0.007 A 
HETATM    2  C3  UNL     1      39.154   0.563  33.793  1.00  0.00     0.017 A 
HETATM    3  C4  UNL     1      40.270  -0.111  33.379  1.00  0.00     0.033 A 
HETATM    4  C5  UNL     1      40.531  -0.366  32.033  1.00  0.00     0.060 A 
HETATM    5  N3  UNL     1      41.520  -0.986  31.377  1.00  0.00    -0.340 N 
ATOM      6  H3  UNL     1      42.329  -1.415  31.826  1.00  0.00     0.167 HD
HETATM    7  C6  UNL     1      41.304  -0.969  30.027  1.00  0.00     0.119 A 
HETATM    8  N4  UNL     1      40.142  -0.314  29.870  1.00  0.00    -0.340 N 
ATOM      9  H4  UNL     1      39.696  -0.129  28.971  1.00  0.00     0.167 HD
HETATM   10  C13 UNL     1      39.645   0.067  31.076  1.00  0.00     0.061 A 
HETATM   11  C14 UNL     1      38.510   0.751  31.496  1.00  0.00     0.046 A 
ENDROOT
BRANCH   7  12
HETATM   12  C7  UNL     1      42.185  -1.555  29.018  1.00  0.00     0.041 A 
HETATM   13  C8  UNL     1      41.952  -2.876  28.631  1.00  0.00     0.018 A 
HETATM   14  C9  UNL     1      42.727  -3.514  27.688  1.00  0.00     0.001 A 
HETATM   15  C10 UNL     1      43.778  -2.857  27.086  1.00  0.00     0.003 A 
HETATM   16  C11 UNL     1      44.002  -1.555  27.473  1.00  0.00     0.037 A 
HETATM   17  C12 UNL     1      43.223  -0.902  28.425  1.00  0.00     0.079 A 
BRANCH  17  18
HETATM   18  O1  UNL     1      43.490   0.407  28.779  1.00  0.00    -0.360 OA
ATOM     19  H1  UNL     1      44.063   0.929  28.230  1.00  0.00     0.217 HD
ENDBRANCH  17  18
ENDBRANCH   7  12
BRANCH   1  20
HETATM   20  C1  UNL     1      37.065   1.719  33.259  1.00  0.00     0.120 C 
HETATM   21  N1  UNL     1      35.811   1.013  33.245  1.00  0.00    -0.082 NA
HETATM   22  N2  UNL     1      37.094   2.946  33.640  1.00  0.00    -0.387 N 
ATOM     23  H22 UNL     1      36.257   3.449  33.935  1.00  0.00     0.157 HD
ATOM     24  H21 UNL     1      37.983   3.447  33.651  1.00  0.00     0.157 HD
ENDBRANCH   1  20
TORSDOF 3
ENDMDL
