MODEL 9
REMARK VINA RESULT: -6.821992955      2.827      7.286
REMARK  3 active torsions:
REMARK  status: ('A' for Active; 'I' for Inactive)
REMARK    1  A    between atoms: C1_2  and  C2_6 
REMARK    2  A    between atoms: C6_12  and  C7_13 
REMARK    3  A    between atoms: C12_18  and  O1_19 
ROOT
HETATM    1  C2  UNL     1      40.289  -0.416  33.024  1.00  0.00     0.007 A 
HETATM    2  C3  UNL     1      41.138  -1.353  33.578  1.00  0.00     0.017 A 
HETATM    3  C4  UNL     1      41.994  -2.032  32.754  1.00  0.00     0.033 A 
HETATM    4  C5  UNL     1      42.038  -1.811  31.378  1.00  0.00     0.060 A 
HETATM    5  N3  UNL     1      42.759  -2.323  30.373  1.00  0.00    -0.340 N 
ATOM      6  H3  UNL     1      43.473  -3.043  30.486  1.00  0.00     0.167 HD
HETATM    7  C6  UNL     1      42.414  -1.757  29.178  1.00  0.00     0.119 A 
HETATM    8  N4  UNL     1      41.450  -0.872  29.478  1.00  0.00    -0.340 N 
ATOM      9  H4  UNL     1      40.975  -0.277  28.800  1.00  0.00     0.167 HD
HETATM   10  C13 UNL     1      41.197  -0.880  30.815  1.00  0.00     0.061 A 
HETATM   11  C14 UNL     1      40.327  -0.191  31.650  1.00  0.00     0.046 A 
ENDROOT
BRANCH   7  12
HETATM   12  C7  UNL     1      43.004  -2.085  27.881  1.00  0.00     0.041 A 
HETATM   13  C8  UNL     1      43.681  -1.075  27.194  1.00  0.00     0.018 A 
HETATM   14  C9  UNL     1      44.270  -1.286  25.967  1.00  0.00     0.001 A 
HETATM   15  C10 UNL     1      44.208  -2.525  25.366  1.00  0.00     0.003 A 
HETATM   16  C11 UNL     1      43.540  -3.516  26.050  1.00  0.00     0.037 A 
HETATM   17  C12 UNL     1      42.942  -3.311  27.291  1.00  0.00     0.079 A 
BRANCH  17  18
HETATM   18  O1  UNL     1      42.281  -4.340  27.935  1.00  0.00    -0.360 OA
ATOM     19  H1  UNL     1      42.781  -4.967  28.443  1.00  0.00     0.217 HD
ENDBRANCH  17  18
ENDBRANCH   7  12
BRANCH   1  20
HETATM   20  C1  UNL     1      39.374   0.313  33.880  1.00  0.00     0.120 C 
HETATM   21  N1  UNL     1      39.432   0.068  35.298  1.00  0.00    -0.082 NA
HETATM   22  N2  UNL     1      38.525   1.162  33.421  1.00  0.00    -0.387 N 
ATOM     23  H22 UNL     1      37.881   1.675  34.023  1.00  0.00     0.157 HD
ATOM     24  H21 UNL     1      38.484   1.336  32.416  1.00  0.00     0.157 HD
ENDBRANCH   1  20
TORSDOF 3
ENDMDL
