MODEL 7
REMARK VINA RESULT: -7.745525726      1.779      2.293
REMARK  2 active torsions:
REMARK  status: ('A' for Active; 'I' for Inactive)
REMARK    1  A    between atoms: C1_2  and  C2_6 
REMARK    2  A    between atoms: C6_12  and  C7_13 
ROOT
HETATM    1  C2  UNL     1       9.090   0.973  24.707  1.00  0.00     0.007 A 
HETATM    2  C3  UNL     1       9.401   1.084  23.379  1.00  0.00     0.017 A 
HETATM    3  C4  UNL     1       9.763   2.308  22.810  1.00  0.00     0.033 A 
HETATM    4  C5  UNL     1       9.810   3.423  23.591  1.00  0.00     0.060 A 
HETATM    5  N3  UNL     1      10.123   4.720  23.317  1.00  0.00    -0.340 N 
ATOM      6  H3  UNL     1      10.392   5.074  22.400  1.00  0.00     0.167 HD
HETATM    7  C6  UNL     1      10.026   5.462  24.428  1.00  0.00     0.122 A 
HETATM    8  N5  UNL     1       9.640   4.597  25.428  1.00  0.00    -0.340 N 
ATOM      9  H5  UNL     1       9.481   4.860  26.400  1.00  0.00     0.167 HD
HETATM   10  C12 UNL     1       9.506   3.358  24.933  1.00  0.00     0.061 A 
HETATM   11  C13 UNL     1       9.150   2.143  25.480  1.00  0.00     0.046 A 
ENDROOT
BRANCH   7  12
HETATM   12  C7  UNL     1      10.259   6.884  24.631  1.00  0.00     0.076 A 
HETATM   13  C8  UNL     1      11.210   7.546  23.865  1.00  0.00     0.022 A 
HETATM   14  C9  UNL     1      11.465   8.893  24.023  1.00  0.00     0.018 A 
HETATM   15  C10 UNL     1      10.744   9.590  24.976  1.00  0.00     0.091 A 
HETATM   16  N4  UNL     1       9.829   8.962  25.717  1.00  0.00    -0.333 N 
HETATM   17  C11 UNL     1       9.585   7.631  25.552  1.00  0.00     0.259 A 
ATOM     18  H4  UNL     1       9.303   9.486  26.417  1.00  0.00     0.168 HD
HETATM   19  O1  UNL     1       8.708   7.091  26.280  1.00  0.00    -0.267 OA
ENDBRANCH   7  12
BRANCH   1  20
HETATM   20  C1  UNL     1       8.704  -0.286  25.356  1.00  0.00     0.120 C 
HETATM   21  N1  UNL     1       8.440  -1.443  24.548  1.00  0.00    -0.082 NA
HETATM   22  N2  UNL     1       8.604  -0.342  26.628  1.00  0.00    -0.387 N 
ATOM     23  H22 UNL     1       8.336  -1.216  27.079  1.00  0.00     0.157 HD
ATOM     24  H21 UNL     1       8.791   0.480  27.201  1.00  0.00     0.157 HD
ENDBRANCH   1  20
TORSDOF 2
ENDMDL
