MODEL 10
REMARK VINA RESULT: -7.378889459      1.722      7.006
REMARK  2 active torsions:
REMARK  status: ('A' for Active; 'I' for Inactive)
REMARK    1  A    between atoms: C1_2  and  C2_6 
REMARK    2  A    between atoms: C6_12  and  C7_13 
ROOT
HETATM    1  C2  UNL     1       9.440   7.885  22.567  1.00  0.00     0.007 A 
HETATM    2  C3  UNL     1      10.711   7.758  23.056  1.00  0.00     0.017 A 
HETATM    3  C4  UNL     1      11.186   6.543  23.557  1.00  0.00     0.033 A 
HETATM    4  C5  UNL     1      10.368   5.454  23.561  1.00  0.00     0.060 A 
HETATM    5  N3  UNL     1      10.554   4.171  23.978  1.00  0.00    -0.340 N 
ATOM      6  H3  UNL     1      11.416   3.808  24.385  1.00  0.00     0.167 HD
HETATM    7  C6  UNL     1       9.441   3.453  23.775  1.00  0.00     0.122 A 
HETATM    8  N5  UNL     1       8.531   4.320  23.213  1.00  0.00    -0.340 N 
ATOM      9  H5  UNL     1       7.580   4.074  22.939  1.00  0.00     0.167 HD
HETATM   10  C12 UNL     1       9.081   5.536  23.078  1.00  0.00     0.061 A 
HETATM   11  C13 UNL     1       8.627   6.742  22.587  1.00  0.00     0.046 A 
ENDROOT
BRANCH   7  12
HETATM   12  C7  UNL     1       9.161   2.053  24.056  1.00  0.00     0.076 A 
HETATM   13  C8  UNL     1       8.841   1.658  25.349  1.00  0.00     0.022 A 
HETATM   14  C9  UNL     1       8.568   0.342  25.662  1.00  0.00     0.018 A 
HETATM   15  C10 UNL     1       8.619  -0.598  24.649  1.00  0.00     0.091 A 
HETATM   16  N4  UNL     1       8.925  -0.227  23.404  1.00  0.00    -0.333 N 
HETATM   17  C11 UNL     1       9.193   1.077  23.106  1.00  0.00     0.259 A 
ATOM     18  H4  UNL     1       8.960  -0.929  22.664  1.00  0.00     0.168 HD
HETATM   19  O1  UNL     1       9.477   1.368  21.912  1.00  0.00    -0.267 OA
ENDBRANCH   7  12
BRANCH   1  20
HETATM   20  C1  UNL     1       8.890   9.136  22.029  1.00  0.00     0.120 C 
HETATM   21  N1  UNL     1       7.466   9.316  21.980  1.00  0.00    -0.082 NA
HETATM   22  N2  UNL     1       9.677  10.050  21.610  1.00  0.00    -0.387 N 
ATOM     23  H22 UNL     1       9.295  10.918  21.236  1.00  0.00     0.157 HD
ATOM     24  H21 UNL     1      10.688   9.922  21.644  1.00  0.00     0.157 HD
ENDBRANCH   1  20
TORSDOF 2
ENDMDL
