MODEL 4
REMARK VINA RESULT: -7.923305706      1.127      1.776
REMARK  2 active torsions:
REMARK  status: ('A' for Active; 'I' for Inactive)
REMARK    1  A    between atoms: C1_2  and  C2_6 
REMARK    2  A    between atoms: C6_12  and  C7_13 
ROOT
HETATM    1  C2  UNL     1       8.899   0.743  24.623  1.00  0.00     0.007 A 
HETATM    2  C3  UNL     1       9.324   0.694  23.325  1.00  0.00     0.017 A 
HETATM    3  C4  UNL     1       9.625   1.856  22.608  1.00  0.00     0.033 A 
HETATM    4  C5  UNL     1       9.495   3.069  23.212  1.00  0.00     0.060 A 
HETATM    5  N3  UNL     1       9.712   4.339  22.771  1.00  0.00    -0.340 N 
ATOM      6  H3  UNL     1      10.034   4.585  21.835  1.00  0.00     0.167 HD
HETATM    7  C6  UNL     1       9.440   5.219  23.744  1.00  0.00     0.122 A 
HETATM    8  N5  UNL     1       9.042   4.470  24.829  1.00  0.00    -0.340 N 
ATOM      9  H5  UNL     1       8.766   4.851  25.734  1.00  0.00     0.167 HD
HETATM   10  C12 UNL     1       9.071   3.166  24.518  1.00  0.00     0.061 A 
HETATM   11  C13 UNL     1       8.777   2.011  25.213  1.00  0.00     0.046 A 
ENDROOT
BRANCH   7  12
HETATM   12  C7  UNL     1       9.521   6.672  23.747  1.00  0.00     0.076 A 
HETATM   13  C8  UNL     1      10.163   7.326  24.791  1.00  0.00     0.022 A 
HETATM   14  C9  UNL     1      10.264   8.701  24.837  1.00  0.00     0.018 A 
HETATM   15  C10 UNL     1       9.705   9.435  23.806  1.00  0.00     0.091 A 
HETATM   16  N4  UNL     1       9.086   8.815  22.799  1.00  0.00    -0.333 N 
HETATM   17  C11 UNL     1       8.993   7.455  22.765  1.00  0.00     0.259 A 
ATOM     18  H4  UNL     1       8.678   9.366  22.044  1.00  0.00     0.168 HD
HETATM   19  O1  UNL     1       8.397   6.924  21.788  1.00  0.00    -0.267 OA
ENDBRANCH   7  12
BRANCH   1  20
HETATM   20  C1  UNL     1       8.569  -0.444  25.423  1.00  0.00     0.120 C 
HETATM   21  N1  UNL     1       8.111  -1.634  24.761  1.00  0.00    -0.082 NA
HETATM   22  N2  UNL     1       8.689  -0.410  26.693  1.00  0.00    -0.387 N 
ATOM     23  H22 UNL     1       8.461  -1.234  27.249  1.00  0.00     0.157 HD
ATOM     24  H21 UNL     1       9.014   0.435  27.163  1.00  0.00     0.157 HD
ENDBRANCH   1  20
TORSDOF 2
ENDMDL
