MODEL 8
REMARK VINA RESULT: -7.694539764      2.858      3.810
REMARK  2 active torsions:
REMARK  status: ('A' for Active; 'I' for Inactive)
REMARK    1  A    between atoms: C1_2  and  C2_6 
REMARK    2  A    between atoms: C6_12  and  C7_13 
ROOT
HETATM    1  C2  UNL     1       9.124   0.850  24.239  1.00  0.00     0.007 A 
HETATM    2  C3  UNL     1       9.559   1.651  23.220  1.00  0.00     0.017 A 
HETATM    3  C4  UNL     1       9.794   3.016  23.409  1.00  0.00     0.033 A 
HETATM    4  C5  UNL     1       9.585   3.569  24.636  1.00  0.00     0.060 A 
HETATM    5  N3  UNL     1       9.727   4.840  25.103  1.00  0.00    -0.340 N 
ATOM      6  H3  UNL     1      10.040   5.635  24.546  1.00  0.00     0.167 HD
HETATM    7  C6  UNL     1       9.397   4.895  26.400  1.00  0.00     0.122 A 
HETATM    8  N5  UNL     1       9.037   3.612  26.752  1.00  0.00    -0.340 N 
ATOM      9  H5  UNL     1       8.733   3.324  27.682  1.00  0.00     0.167 HD
HETATM   10  C12 UNL     1       9.148   2.800  25.691  1.00  0.00     0.061 A 
HETATM   11  C13 UNL     1       8.921   1.455  25.489  1.00  0.00     0.046 A 
ENDROOT
BRANCH   7  12
HETATM   12  C7  UNL     1       9.388   6.021  27.321  1.00  0.00     0.076 A 
HETATM   13  C8  UNL     1       9.304   5.794  28.689  1.00  0.00     0.022 A 
HETATM   14  C9  UNL     1       9.293   6.831  29.600  1.00  0.00     0.018 A 
HETATM   15  C10 UNL     1       9.369   8.127  29.121  1.00  0.00     0.091 A 
HETATM   16  N4  UNL     1       9.450   8.353  27.809  1.00  0.00    -0.333 N 
HETATM   17  C11 UNL     1       9.460   7.321  26.917  1.00  0.00     0.259 A 
ATOM     18  H4  UNL     1       9.505   9.313  27.467  1.00  0.00     0.168 HD
HETATM   19  O1  UNL     1       9.538   7.596  25.689  1.00  0.00    -0.267 OA
ENDBRANCH   7  12
BRANCH   1  20
HETATM   20  C1  UNL     1       8.862  -0.588  24.097  1.00  0.00     0.120 C 
HETATM   21  N1  UNL     1       8.773  -1.161  22.783  1.00  0.00    -0.082 NA
HETATM   22  N2  UNL     1       8.714  -1.314  25.137  1.00  0.00    -0.387 N 
ATOM     23  H22 UNL     1       8.533  -2.313  25.038  1.00  0.00     0.157 HD
ATOM     24  H21 UNL     1       8.777  -0.907  26.069  1.00  0.00     0.157 HD
ENDBRANCH   1  20
TORSDOF 2
ENDMDL
