MODEL 3
REMARK VINA RESULT: -8.256403915      1.643      2.225
REMARK  2 active torsions:
REMARK  status: ('A' for Active; 'I' for Inactive)
REMARK    1  A    between atoms: C1_2  and  C2_6 
REMARK    2  A    between atoms: C6_12  and  C7_13 
ROOT
HETATM    1  C2  UNL     1       9.062   0.896  24.685  1.00  0.00     0.007 A 
HETATM    2  C3  UNL     1       9.379   0.956  23.356  1.00  0.00     0.017 A 
HETATM    3  C4  UNL     1       9.742   2.158  22.742  1.00  0.00     0.033 A 
HETATM    4  C5  UNL     1       9.784   3.302  23.480  1.00  0.00     0.060 A 
HETATM    5  N3  UNL     1      10.095   4.588  23.159  1.00  0.00    -0.340 N 
ATOM      6  H3  UNL     1      10.368   4.908  22.229  1.00  0.00     0.167 HD
HETATM    7  C6  UNL     1       9.991   5.372  24.239  1.00  0.00     0.122 A 
HETATM    8  N5  UNL     1       9.602   4.546  25.270  1.00  0.00    -0.340 N 
ATOM      9  H5  UNL     1       9.438   4.845  26.231  1.00  0.00     0.167 HD
HETATM   10  C12 UNL     1       9.473   3.288  24.822  1.00  0.00     0.061 A 
HETATM   11  C13 UNL     1       9.116   2.094  25.413  1.00  0.00     0.046 A 
ENDROOT
BRANCH   7  12
HETATM   12  C7  UNL     1      10.221   6.802  24.389  1.00  0.00     0.076 A 
HETATM   13  C8  UNL     1       9.850   7.442  25.565  1.00  0.00     0.022 A 
HETATM   14  C9  UNL     1      10.048   8.795  25.752  1.00  0.00     0.018 A 
HETATM   15  C10 UNL     1      10.634   9.520  24.730  1.00  0.00     0.091 A 
HETATM   16  N4  UNL     1      10.994   8.913  23.597  1.00  0.00    -0.333 N 
HETATM   17  C11 UNL     1      10.793   7.575  23.423  1.00  0.00     0.259 A 
ATOM     18  H4  UNL     1      11.426   9.457  22.850  1.00  0.00     0.168 HD
HETATM   19  O1  UNL     1      11.154   7.056  22.332  1.00  0.00    -0.267 OA
ENDBRANCH   7  12
BRANCH   1  20
HETATM   20  C1  UNL     1       8.674  -0.338  25.380  1.00  0.00     0.120 C 
HETATM   21  N1  UNL     1       8.401  -1.522  24.614  1.00  0.00    -0.082 NA
HETATM   22  N2  UNL     1       8.582  -0.350  26.653  1.00  0.00    -0.387 N 
ATOM     23  H22 UNL     1       8.313  -1.207  27.136  1.00  0.00     0.157 HD
ATOM     24  H21 UNL     1       8.775   0.491  27.197  1.00  0.00     0.157 HD
ENDBRANCH   1  20
TORSDOF 2
ENDMDL
