MODEL 14
REMARK VINA RESULT: -7.245831462      2.665      3.088
REMARK  2 active torsions:
REMARK  status: ('A' for Active; 'I' for Inactive)
REMARK    1  A    between atoms: C1_2  and  C2_6 
REMARK    2  A    between atoms: C6_12  and  C7_13 
ROOT
HETATM    1  C2  UNL     1       9.105   1.164  24.982  1.00  0.00     0.007 A 
HETATM    2  C3  UNL     1       9.734   1.576  23.840  1.00  0.00     0.017 A 
HETATM    3  C4  UNL     1      10.075   2.916  23.633  1.00  0.00     0.033 A 
HETATM    4  C5  UNL     1       9.776   3.839  24.589  1.00  0.00     0.060 A 
HETATM    5  N3  UNL     1       9.983   5.183  24.660  1.00  0.00    -0.340 N 
ATOM      6  H3  UNL     1      10.435   5.743  23.937  1.00  0.00     0.167 HD
HETATM    7  C6  UNL     1       9.507   5.663  25.816  1.00  0.00     0.122 A 
HETATM    8  N5  UNL     1       8.987   4.580  26.489  1.00  0.00    -0.340 N 
ATOM      9  H5  UNL     1       8.548   4.618  27.409  1.00  0.00     0.167 HD
HETATM   10  C12 UNL     1       9.144   3.469  25.755  1.00  0.00     0.061 A 
HETATM   11  C13 UNL     1       8.814   2.143  25.945  1.00  0.00     0.046 A 
ENDROOT
BRANCH   7  12
HETATM   12  C7  UNL     1       9.498   7.022  26.337  1.00  0.00     0.076 A 
HETATM   13  C8  UNL     1       9.359   7.238  27.702  1.00  0.00     0.022 A 
HETATM   14  C9  UNL     1       9.344   8.509  28.241  1.00  0.00     0.018 A 
HETATM   15  C10 UNL     1       9.474   9.587  27.384  1.00  0.00     0.091 A 
HETATM   16  N4  UNL     1       9.608   9.388  26.071  1.00  0.00    -0.333 N 
HETATM   17  C11 UNL     1       9.621   8.128  25.550  1.00  0.00     0.259 A 
ATOM     18  H4  UNL     1       9.703  10.191  25.449  1.00  0.00     0.168 HD
HETATM   19  O1  UNL     1       9.751   8.002  24.302  1.00  0.00    -0.267 OA
ENDBRANCH   7  12
BRANCH   1  20
HETATM   20  C1  UNL     1       8.725  -0.229  25.252  1.00  0.00     0.120 C 
HETATM   21  N1  UNL     1       8.595  -1.148  24.156  1.00  0.00    -0.082 NA
HETATM   22  N2  UNL     1       8.512  -0.610  26.451  1.00  0.00    -0.387 N 
ATOM     23  H22 UNL     1       8.248  -1.577  26.639  1.00  0.00     0.157 HD
ATOM     24  H21 UNL     1       8.604   0.043  27.229  1.00  0.00     0.157 HD
ENDBRANCH   1  20
TORSDOF 2
ENDMDL
