MODEL 11
REMARK VINA RESULT: -7.374124893      1.998      7.136
REMARK  2 active torsions:
REMARK  status: ('A' for Active; 'I' for Inactive)
REMARK    1  A    between atoms: C1_2  and  C2_6 
REMARK    2  A    between atoms: C6_12  and  C7_13 
ROOT
HETATM    1  C2  UNL     1      10.631   8.184  23.210  1.00  0.00     0.007 A 
HETATM    2  C3  UNL     1       9.512   8.149  22.424  1.00  0.00     0.017 A 
HETATM    3  C4  UNL     1       8.742   6.988  22.296  1.00  0.00     0.033 A 
HETATM    4  C5  UNL     1       9.109   5.863  22.970  1.00  0.00     0.060 A 
HETATM    5  N3  UNL     1       8.564   4.617  23.035  1.00  0.00    -0.340 N 
ATOM      6  H3  UNL     1       7.722   4.321  22.541  1.00  0.00     0.167 HD
HETATM    7  C6  UNL     1       9.293   3.835  23.842  1.00  0.00     0.122 A 
HETATM    8  N5  UNL     1      10.328   4.623  24.295  1.00  0.00    -0.340 N 
ATOM      9  H5  UNL     1      11.062   4.315  24.934  1.00  0.00     0.167 HD
HETATM   10  C12 UNL     1      10.227   5.854  23.774  1.00  0.00     0.061 A 
HETATM   11  C13 UNL     1      10.977   7.006  23.889  1.00  0.00     0.046 A 
ENDROOT
BRANCH   7  12
HETATM   12  C7  UNL     1       9.109   2.442  24.219  1.00  0.00     0.076 A 
HETATM   13  C8  UNL     1       9.364   1.436  23.296  1.00  0.00     0.022 A 
HETATM   14  C9  UNL     1       9.204   0.101  23.610  1.00  0.00     0.018 A 
HETATM   15  C10 UNL     1       8.775  -0.227  24.883  1.00  0.00     0.091 A 
HETATM   16  N4  UNL     1       8.527   0.733  25.776  1.00  0.00    -0.333 N 
HETATM   17  C11 UNL     1       8.690   2.049  25.455  1.00  0.00     0.259 A 
ATOM     18  H4  UNL     1       8.211   0.480  26.713  1.00  0.00     0.168 HD
HETATM   19  O1  UNL     1       8.440   2.912  26.340  1.00  0.00    -0.267 OA
ENDBRANCH   7  12
BRANCH   1  20
HETATM   20  C1  UNL     1      11.475   9.374  23.380  1.00  0.00     0.120 C 
HETATM   21  N1  UNL     1      11.945   9.722  24.692  1.00  0.00    -0.082 NA
HETATM   22  N2  UNL     1      11.783  10.086  22.367  1.00  0.00    -0.387 N 
ATOM     23  H22 UNL     1      12.370  10.912  22.484  1.00  0.00     0.157 HD
ATOM     24  H21 UNL     1      11.450   9.838  21.435  1.00  0.00     0.157 HD
ENDBRANCH   1  20
TORSDOF 2
ENDMDL
