MODEL 9
REMARK VINA RESULT: -7.525646847      2.003      6.901
REMARK  2 active torsions:
REMARK  status: ('A' for Active; 'I' for Inactive)
REMARK    1  A    between atoms: C1_2  and  C2_6 
REMARK    2  A    between atoms: C6_12  and  C7_13 
ROOT
HETATM    1  C2  UNL     1      10.862   7.523  24.042  1.00  0.00     0.007 A 
HETATM    2  C3  UNL     1      10.114   7.664  25.178  1.00  0.00     0.017 A 
HETATM    3  C4  UNL     1       9.458   6.578  25.764  1.00  0.00     0.033 A 
HETATM    4  C5  UNL     1       9.562   5.345  25.195  1.00  0.00     0.060 A 
HETATM    5  N3  UNL     1       9.045   4.132  25.536  1.00  0.00    -0.340 N 
ATOM      6  H3  UNL     1       8.449   3.959  26.345  1.00  0.00     0.167 HD
HETATM    7  C6  UNL     1       9.433   3.200  24.656  1.00  0.00     0.122 A 
HETATM    8  N5  UNL     1      10.220   3.856  23.735  1.00  0.00    -0.340 N 
ATOM      9  H5  UNL     1      10.671   3.417  22.932  1.00  0.00     0.167 HD
HETATM   10  C12 UNL     1      10.305   5.156  24.051  1.00  0.00     0.061 A 
HETATM   11  C13 UNL     1      10.947   6.238  23.484  1.00  0.00     0.046 A 
ENDROOT
BRANCH   7  12
HETATM   12  C7  UNL     1       9.138   1.776  24.603  1.00  0.00     0.076 A 
HETATM   13  C8  UNL     1       8.837   1.089  25.772  1.00  0.00     0.022 A 
HETATM   14  C9  UNL     1       8.551  -0.262  25.769  1.00  0.00     0.018 A 
HETATM   15  C10 UNL     1       8.570  -0.935  24.561  1.00  0.00     0.091 A 
HETATM   16  N4  UNL     1       8.859  -0.282  23.434  1.00  0.00    -0.333 N 
HETATM   17  C11 UNL     1       9.139   1.053  23.448  1.00  0.00     0.259 A 
ATOM     18  H4  UNL     1       8.869  -0.788  22.548  1.00  0.00     0.168 HD
HETATM   19  O1  UNL     1       9.405   1.616  22.351  1.00  0.00    -0.267 OA
ENDBRANCH   7  12
BRANCH   1  20
HETATM   20  C1  UNL     1      11.571   8.628  23.385  1.00  0.00     0.120 C 
HETATM   21  N1  UNL     1      11.635   8.671  21.951  1.00  0.00    -0.082 NA
HETATM   22  N2  UNL     1      12.125   9.538  24.089  1.00  0.00    -0.387 N 
ATOM     23  H22 UNL     1      12.617  10.306  23.633  1.00  0.00     0.157 HD
ATOM     24  H21 UNL     1      12.080   9.507  25.108  1.00  0.00     0.157 HD
ENDBRANCH   1  20
TORSDOF 2
ENDMDL
