MODEL 6
REMARK VINA RESULT: -7.667635107      1.330      1.516
REMARK  4 active torsions:
REMARK  status: ('A' for Active; 'I' for Inactive)
REMARK    1  A    between atoms: C1_2  and  C2_6 
REMARK    2  A    between atoms: C6_10  and  C7_11 
REMARK    3  A    between atoms: C11_15  and  C12_16 
REMARK    4  A    between atoms: C18_22  and  O1_23 
ROOT
HETATM    1  C2  UNL     1      43.612  -3.067  26.385  1.00  0.00     0.027 A 
HETATM    2  C3  UNL     1      43.105  -3.422  27.609  1.00  0.00     0.030 A 
HETATM    3  C4  UNL     1      42.969  -2.457  28.606  1.00  0.00    -0.006 A 
HETATM    4  C5  UNL     1      42.504  -2.524  29.894  1.00  0.00     0.044 A 
HETATM    5  C6  UNL     1      42.589  -1.247  30.455  1.00  0.00     0.046 A 
HETATM    6  N3  UNL     1      43.094  -0.462  29.502  1.00  0.00    -0.355 N 
ATOM      7  H3  UNL     1      43.273   0.535  29.615  1.00  0.00     0.166 HD
HETATM    8  C19 UNL     1      43.339  -1.156  28.367  1.00  0.00     0.044 A 
HETATM    9  C20 UNL     1      43.848  -0.781  27.147  1.00  0.00     0.055 A 
HETATM   10  C21 UNL     1      43.976  -1.743  26.172  1.00  0.00     0.049 A 
HETATM   11 CL1  UNL     1      44.630  -1.284  24.593  1.00  0.00    -0.083 Cl
ENDROOT
BRANCH   5  12
HETATM   12  C7  UNL     1      42.182  -0.905  31.832  1.00  0.00     0.025 A 
HETATM   13  C8  UNL     1      40.872  -1.140  32.230  1.00  0.00     0.016 A 
HETATM   14  C9  UNL     1      40.441  -0.841  33.501  1.00  0.00     0.002 A 
HETATM   15  C10 UNL     1      41.328  -0.295  34.406  1.00  0.00     0.015 A 
HETATM   16  C11 UNL     1      42.631  -0.052  34.040  1.00  0.00     0.008 A 
HETATM   17  C18 UNL     1      43.029  -0.362  32.763  1.00  0.00     0.089 A 
BRANCH  16  18
HETATM   18  C12 UNL     1      43.583   0.495  35.009  1.00  0.00    -0.023 A 
HETATM   19  C13 UNL     1      43.975   1.820  34.945  1.00  0.00     0.012 A 
HETATM   20  C14 UNL     1      44.852   2.315  35.881  1.00  0.00     0.001 A 
HETATM   21  C15 UNL     1      45.374   1.543  36.906  1.00  0.00     0.000 A 
HETATM   22  C16 UNL     1      44.963   0.234  36.935  1.00  0.00     0.001 A 
HETATM   23  C17 UNL     1      44.089  -0.286  36.015  1.00  0.00     0.012 A 
ENDBRANCH  16  18
BRANCH  17  24
HETATM   24  O1  UNL     1      44.331  -0.117  32.387  1.00  0.00    -0.359 OA
ATOM     25  H1  UNL     1      44.672  -0.582  31.631  1.00  0.00     0.217 HD
ENDBRANCH  17  24
ENDBRANCH   5  12
BRANCH   1  26
HETATM   26  C1  UNL     1      43.785  -4.016  25.294  1.00  0.00     0.121 C 
HETATM   27  N1  UNL     1      42.871  -4.034  24.212  1.00  0.00    -0.082 NA
HETATM   28  N2  UNL     1      44.765  -4.837  25.316  1.00  0.00    -0.387 N 
ATOM     29  H22 UNL     1      44.887  -5.502  24.552  1.00  0.00     0.157 HD
ATOM     30  H21 UNL     1      45.423  -4.824  26.095  1.00  0.00     0.157 HD
ENDBRANCH   1  26
TORSDOF 4
ENDMDL
