MODEL 5
REMARK VINA RESULT: -7.794783940      1.171      1.592
REMARK  4 active torsions:
REMARK  status: ('A' for Active; 'I' for Inactive)
REMARK    1  A    between atoms: C1_2  and  C2_6 
REMARK    2  A    between atoms: C6_10  and  C7_11 
REMARK    3  A    between atoms: C11_15  and  C12_16 
REMARK    4  A    between atoms: C18_22  and  O1_23 
ROOT
HETATM    1  C2  UNL     1      43.737  -2.992  25.693  1.00  0.00     0.027 A 
HETATM    2  C3  UNL     1      43.422  -3.689  26.832  1.00  0.00     0.030 A 
HETATM    3  C4  UNL     1      43.195  -3.000  28.022  1.00  0.00    -0.006 A 
HETATM    4  C5  UNL     1      42.871  -3.425  29.284  1.00  0.00     0.044 A 
HETATM    5  C6  UNL     1      42.760  -2.302  30.108  1.00  0.00     0.046 A 
HETATM    6  N3  UNL     1      43.015  -1.250  29.328  1.00  0.00    -0.355 N 
ATOM      7  H3  UNL     1      43.008  -0.282  29.649  1.00  0.00     0.166 HD
HETATM    8  C19 UNL     1      43.284  -1.630  28.058  1.00  0.00     0.044 A 
HETATM    9  C20 UNL     1      43.598  -0.914  26.927  1.00  0.00     0.055 A 
HETATM   10  C21 UNL     1      43.819  -1.607  25.760  1.00  0.00     0.049 A 
HETATM   11 CL1  UNL     1      44.225  -0.707  24.291  1.00  0.00    -0.083 Cl
ENDROOT
BRANCH   5  12
HETATM   12  C7  UNL     1      42.422  -2.343  31.544  1.00  0.00     0.025 A 
HETATM   13  C8  UNL     1      42.691  -3.495  32.271  1.00  0.00     0.016 A 
HETATM   14  C9  UNL     1      42.398  -3.587  33.612  1.00  0.00     0.002 A 
HETATM   15  C10 UNL     1      41.823  -2.510  34.253  1.00  0.00     0.015 A 
HETATM   16  C11 UNL     1      41.545  -1.355  33.559  1.00  0.00     0.008 A 
HETATM   17  C18 UNL     1      41.850  -1.297  32.222  1.00  0.00     0.089 A 
BRANCH  16  18
HETATM   18  C12 UNL     1      40.967  -0.198  34.247  1.00  0.00    -0.023 A 
HETATM   19  C13 UNL     1      39.631   0.125  34.086  1.00  0.00     0.012 A 
HETATM   20  C14 UNL     1      39.107   1.202  34.761  1.00  0.00     0.001 A 
HETATM   21  C15 UNL     1      39.860   1.997  35.610  1.00  0.00     0.000 A 
HETATM   22  C16 UNL     1      41.180   1.646  35.742  1.00  0.00     0.001 A 
HETATM   23  C17 UNL     1      41.729   0.576  35.082  1.00  0.00     0.012 A 
ENDBRANCH  16  18
BRANCH  17  24
HETATM   24  O1  UNL     1      41.572  -0.147  31.518  1.00  0.00    -0.359 OA
ATOM     25  H1  UNL     1      40.871   0.411  31.835  1.00  0.00     0.217 HD
ENDBRANCH  17  24
ENDBRANCH   5  12
BRANCH   1  26
HETATM   26  C1  UNL     1      43.989  -3.639  24.413  1.00  0.00     0.121 C 
HETATM   27  N1  UNL     1      43.069  -4.586  23.899  1.00  0.00    -0.082 NA
HETATM   28  N2  UNL     1      45.045  -3.351  23.753  1.00  0.00    -0.387 N 
ATOM     29  H22 UNL     1      45.222  -3.804  22.856  1.00  0.00     0.157 HD
ATOM     30  H21 UNL     1      45.708  -2.670  24.123  1.00  0.00     0.157 HD
ENDBRANCH   1  26
TORSDOF 4
ENDMDL
