MODEL 1
REMARK VINA RESULT: -8.895075654      0.000      0.000
REMARK  4 active torsions:
REMARK  status: ('A' for Active; 'I' for Inactive)
REMARK    1  A    between atoms: C1_2  and  C2_6 
REMARK    2  A    between atoms: C6_10  and  C7_11 
REMARK    3  A    between atoms: C11_15  and  C12_16 
REMARK    4  A    between atoms: C18_22  and  O1_23 
ROOT
HETATM    1  C2  UNL     1      43.809  -2.940  25.717  1.00  0.00     0.027 A 
HETATM    2  C3  UNL     1      43.629  -3.615  26.897  1.00  0.00     0.030 A 
HETATM    3  C4  UNL     1      43.435  -2.901  28.078  1.00  0.00    -0.006 A 
HETATM    4  C5  UNL     1      43.235  -3.301  29.374  1.00  0.00     0.044 A 
HETATM    5  C6  UNL     1      43.098  -2.160  30.168  1.00  0.00     0.046 A 
HETATM    6  N3  UNL     1      43.218  -1.122  29.338  1.00  0.00    -0.355 N 
ATOM      7  H3  UNL     1      43.161  -0.146  29.628  1.00  0.00     0.166 HD
HETATM    8  C19 UNL     1      43.424  -1.527  28.065  1.00  0.00     0.044 A 
HETATM    9  C20 UNL     1      43.602  -0.833  26.892  1.00  0.00     0.055 A 
HETATM   10  C21 UNL     1      43.792  -1.550  25.734  1.00  0.00     0.049 A 
HETATM   11 CL1  UNL     1      44.024  -0.678  24.211  1.00  0.00    -0.083 Cl
ENDROOT
BRANCH   5  12
HETATM   12  C7  UNL     1      42.867  -2.172  31.625  1.00  0.00     0.025 A 
HETATM   13  C8  UNL     1      42.430  -3.342  32.232  1.00  0.00     0.016 A 
HETATM   14  C9  UNL     1      42.200  -3.409  33.587  1.00  0.00     0.002 A 
HETATM   15  C10 UNL     1      42.408  -2.289  34.364  1.00  0.00     0.015 A 
HETATM   16  C11 UNL     1      42.842  -1.116  33.791  1.00  0.00     0.008 A 
HETATM   17  C18 UNL     1      43.061  -1.083  32.436  1.00  0.00     0.089 A 
BRANCH  16  18
HETATM   18  C12 UNL     1      43.097   0.065  34.620  1.00  0.00    -0.023 A 
HETATM   19  C13 UNL     1      42.060   0.894  35.007  1.00  0.00     0.012 A 
HETATM   20  C14 UNL     1      42.323   1.983  35.805  1.00  0.00     0.001 A 
HETATM   21  C15 UNL     1      43.596   2.299  36.251  1.00  0.00     0.000 A 
HETATM   22  C16 UNL     1      44.598   1.453  35.845  1.00  0.00     0.001 A 
HETATM   23  C17 UNL     1      44.364   0.361  35.050  1.00  0.00     0.012 A 
ENDBRANCH  16  18
BRANCH  17  24
HETATM   24  O1  UNL     1      43.491   0.088  31.853  1.00  0.00    -0.359 OA
ATOM     25  H1  UNL     1      44.202   0.559  32.270  1.00  0.00     0.217 HD
ENDBRANCH  17  24
ENDBRANCH   5  12
BRANCH   1  26
HETATM   26  C1  UNL     1      44.017  -3.614  24.443  1.00  0.00     0.121 C 
HETATM   27  N1  UNL     1      43.065  -4.547  23.965  1.00  0.00    -0.082 NA
HETATM   28  N2  UNL     1      45.065  -3.361  23.755  1.00  0.00    -0.387 N 
ATOM     29  H22 UNL     1      45.211  -3.833  22.862  1.00  0.00     0.157 HD
ATOM     30  H21 UNL     1      45.751  -2.689  24.098  1.00  0.00     0.157 HD
ENDBRANCH   1  26
TORSDOF 4
ENDMDL
