MODEL 4
REMARK VINA RESULT: -7.981112984      3.875      8.883
REMARK  4 active torsions:
REMARK  status: ('A' for Active; 'I' for Inactive)
REMARK    1  A    between atoms: C1_2  and  C2_6 
REMARK    2  A    between atoms: C6_10  and  C7_11 
REMARK    3  A    between atoms: C11_15  and  C12_16 
REMARK    4  A    between atoms: C18_22  and  O1_23 
ROOT
HETATM    1  C2  UNL     1      42.444   1.862  36.082  1.00  0.00     0.027 A 
HETATM    2  C3  UNL     1      41.895   0.733  35.528  1.00  0.00     0.030 A 
HETATM    3  C4  UNL     1      42.478   0.168  34.395  1.00  0.00    -0.006 A 
HETATM    4  C5  UNL     1      42.153  -0.933  33.644  1.00  0.00     0.044 A 
HETATM    5  C6  UNL     1      43.084  -1.044  32.608  1.00  0.00     0.046 A 
HETATM    6  N3  UNL     1      43.928  -0.024  32.764  1.00  0.00    -0.355 N 
ATOM      7  H3  UNL     1      44.723   0.162  32.153  1.00  0.00     0.166 HD
HETATM    8  C19 UNL     1      43.596   0.735  33.833  1.00  0.00     0.044 A 
HETATM    9  C20 UNL     1      44.160   1.865  34.374  1.00  0.00     0.055 A 
HETATM   10  C21 UNL     1      43.575   2.412  35.492  1.00  0.00     0.049 A 
HETATM   11 CL1  UNL     1      44.284   3.868  36.207  1.00  0.00    -0.083 Cl
ENDROOT
BRANCH   5  12
HETATM   12  C7  UNL     1      43.075  -2.105  31.581  1.00  0.00     0.025 A 
HETATM   13  C8  UNL     1      42.784  -3.410  31.957  1.00  0.00     0.016 A 
HETATM   14  C9  UNL     1      42.762  -4.436  31.041  1.00  0.00     0.002 A 
HETATM   15  C10 UNL     1      43.034  -4.166  29.717  1.00  0.00     0.015 A 
HETATM   16  C11 UNL     1      43.325  -2.883  29.315  1.00  0.00     0.008 A 
HETATM   17  C18 UNL     1      43.340  -1.882  30.255  1.00  0.00     0.089 A 
BRANCH  16  18
HETATM   18  C12 UNL     1      43.581  -2.589  27.903  1.00  0.00    -0.023 A 
HETATM   19  C13 UNL     1      43.692  -3.610  26.976  1.00  0.00     0.012 A 
HETATM   20  C14 UNL     1      43.909  -3.305  25.653  1.00  0.00     0.001 A 
HETATM   21  C15 UNL     1      44.024  -2.005  25.188  1.00  0.00     0.000 A 
HETATM   22  C16 UNL     1      43.909  -1.020  26.138  1.00  0.00     0.001 A 
HETATM   23  C17 UNL     1      43.692  -1.295  27.464  1.00  0.00     0.012 A 
ENDBRANCH  16  18
BRANCH  17  24
HETATM   24  O1  UNL     1      43.635  -0.596  29.862  1.00  0.00    -0.359 OA
ATOM     25  H1  UNL     1      44.430  -0.454  29.361  1.00  0.00     0.217 HD
ENDBRANCH  17  24
ENDBRANCH   5  12
BRANCH   1  26
HETATM   26  C1  UNL     1      41.894   2.511  37.263  1.00  0.00     0.121 C 
HETATM   27  N1  UNL     1      42.407   2.208  38.548  1.00  0.00    -0.082 NA
HETATM   28  N2  UNL     1      40.943   3.357  37.139  1.00  0.00    -0.387 N 
ATOM     29  H22 UNL     1      40.557   3.812  37.967  1.00  0.00     0.157 HD
ATOM     30  H21 UNL     1      40.573   3.575  36.214  1.00  0.00     0.157 HD
ENDBRANCH   1  26
TORSDOF 4
ENDMDL
