MODEL 3
REMARK VINA RESULT: -7.992256688      3.912      8.934
REMARK  4 active torsions:
REMARK  status: ('A' for Active; 'I' for Inactive)
REMARK    1  A    between atoms: C1_2  and  C2_6 
REMARK    2  A    between atoms: C6_10  and  C7_11 
REMARK    3  A    between atoms: C11_15  and  C12_16 
REMARK    4  A    between atoms: C18_22  and  O1_23 
ROOT
HETATM    1  C2  UNL     1      42.898   1.786  36.114  1.00  0.00     0.027 A 
HETATM    2  C3  UNL     1      41.952   1.068  35.427  1.00  0.00     0.030 A 
HETATM    3  C4  UNL     1      42.305   0.408  34.252  1.00  0.00    -0.006 A 
HETATM    4  C5  UNL     1      41.585  -0.366  33.379  1.00  0.00     0.044 A 
HETATM    5  C6  UNL     1      42.441  -0.783  32.356  1.00  0.00     0.046 A 
HETATM    6  N3  UNL     1      43.633  -0.256  32.641  1.00  0.00    -0.355 N 
ATOM      7  H3  UNL     1      44.469  -0.386  32.072  1.00  0.00     0.166 HD
HETATM    8  C19 UNL     1      43.594   0.472  33.780  1.00  0.00     0.044 A 
HETATM    9  C20 UNL     1      44.556   1.186  34.454  1.00  0.00     0.055 A 
HETATM   10  C21 UNL     1      44.194   1.832  35.613  1.00  0.00     0.049 A 
HETATM   11 CL1  UNL     1      45.416   2.757  36.498  1.00  0.00    -0.083 Cl
ENDROOT
BRANCH   5  12
HETATM   12  C7  UNL     1      42.041  -1.635  31.220  1.00  0.00     0.025 A 
HETATM   13  C8  UNL     1      40.892  -2.408  31.324  1.00  0.00     0.016 A 
HETATM   14  C9  UNL     1      40.473  -3.219  30.295  1.00  0.00     0.002 A 
HETATM   15  C10 UNL     1      41.210  -3.268  29.130  1.00  0.00     0.015 A 
HETATM   16  C11 UNL     1      42.353  -2.514  28.998  1.00  0.00     0.008 A 
HETATM   17  C18 UNL     1      42.743  -1.715  30.045  1.00  0.00     0.089 A 
BRANCH  16  18
HETATM   18  C12 UNL     1      43.117  -2.539  27.749  1.00  0.00    -0.023 A 
HETATM   19  C13 UNL     1      43.490  -3.740  27.172  1.00  0.00     0.012 A 
HETATM   20  C14 UNL     1      44.187  -3.736  25.987  1.00  0.00     0.001 A 
HETATM   21  C15 UNL     1      44.543  -2.571  25.326  1.00  0.00     0.000 A 
HETATM   22  C16 UNL     1      44.157  -1.401  25.931  1.00  0.00     0.001 A 
HETATM   23  C17 UNL     1      43.461  -1.375  27.112  1.00  0.00     0.012 A 
ENDBRANCH  16  18
BRANCH  17  24
HETATM   24  O1  UNL     1      43.888  -0.960  29.923  1.00  0.00    -0.359 OA
ATOM     25  H1  UNL     1      43.825  -0.026  30.084  1.00  0.00     0.217 HD
ENDBRANCH  17  24
ENDBRANCH   5  12
BRANCH   1  26
HETATM   26  C1  UNL     1      42.607   2.502  37.347  1.00  0.00     0.121 C 
HETATM   27  N1  UNL     1      42.788   1.868  38.601  1.00  0.00    -0.082 NA
HETATM   28  N2  UNL     1      42.187   3.709  37.297  1.00  0.00    -0.387 N 
ATOM     29  H22 UNL     1      41.983   4.212  38.161  1.00  0.00     0.157 HD
ATOM     30  H21 UNL     1      42.057   4.166  36.394  1.00  0.00     0.157 HD
ENDBRANCH   1  26
TORSDOF 4
ENDMDL
