MODEL 2
REMARK VINA RESULT: -8.421716896      0.877      1.300
REMARK  4 active torsions:
REMARK  status: ('A' for Active; 'I' for Inactive)
REMARK    1  A    between atoms: C1_2  and  C2_6 
REMARK    2  A    between atoms: C6_10  and  C7_11 
REMARK    3  A    between atoms: C11_15  and  C12_16 
REMARK    4  A    between atoms: C18_22  and  O1_23 
ROOT
HETATM    1  C2  UNL     1      43.756  -3.002  26.525  1.00  0.00     0.027 A 
HETATM    2  C3  UNL     1      43.504  -3.588  27.740  1.00  0.00     0.030 A 
HETATM    3  C4  UNL     1      43.378  -2.791  28.876  1.00  0.00    -0.006 A 
HETATM    4  C5  UNL     1      43.133  -3.095  30.191  1.00  0.00     0.044 A 
HETATM    5  C6  UNL     1      43.107  -1.902  30.917  1.00  0.00     0.046 A 
HETATM    6  N3  UNL     1      43.333  -0.931  30.031  1.00  0.00    -0.355 N 
ATOM      7  H3  UNL     1      43.372   0.061  30.265  1.00  0.00     0.166 HD
HETATM    8  C19 UNL     1      43.503  -1.427  28.785  1.00  0.00     0.044 A 
HETATM    9  C20 UNL     1      43.754  -0.821  27.576  1.00  0.00     0.055 A 
HETATM   10  C21 UNL     1      43.876  -1.619  26.463  1.00  0.00     0.049 A 
HETATM   11 CL1  UNL     1      44.200  -0.863  24.896  1.00  0.00    -0.083 Cl
ENDROOT
BRANCH   5  12
HETATM   12  C7  UNL     1      42.870  -1.808  32.371  1.00  0.00     0.025 A 
HETATM   13  C8  UNL     1      42.281  -2.877  33.032  1.00  0.00     0.016 A 
HETATM   14  C9  UNL     1      42.038  -2.843  34.386  1.00  0.00     0.002 A 
HETATM   15  C10 UNL     1      42.388  -1.720  35.107  1.00  0.00     0.015 A 
HETATM   16  C11 UNL     1      42.973  -0.646  34.478  1.00  0.00     0.008 A 
HETATM   17  C18 UNL     1      43.201  -0.713  33.126  1.00  0.00     0.089 A 
BRANCH  16  18
HETATM   18  C12 UNL     1      43.376   0.534  35.249  1.00  0.00    -0.023 A 
HETATM   19  C13 UNL     1      44.658   0.641  35.758  1.00  0.00     0.012 A 
HETATM   20  C14 UNL     1      45.018   1.769  36.457  1.00  0.00     0.001 A 
HETATM   21  C15 UNL     1      44.150   2.825  36.683  1.00  0.00     0.000 A 
HETATM   22  C16 UNL     1      42.887   2.680  36.163  1.00  0.00     0.001 A 
HETATM   23  C17 UNL     1      42.501   1.567  35.462  1.00  0.00     0.012 A 
ENDBRANCH  16  18
BRANCH  17  24
HETATM   24  O1  UNL     1      43.782   0.360  32.489  1.00  0.00    -0.359 OA
ATOM     25  H1  UNL     1      44.719   0.484  32.588  1.00  0.00     0.217 HD
ENDBRANCH  17  24
ENDBRANCH   5  12
BRANCH   1  26
HETATM   26  C1  UNL     1      43.901  -3.766  25.293  1.00  0.00     0.121 C 
HETATM   27  N1  UNL     1      43.149  -3.418  24.145  1.00  0.00    -0.082 NA
HETATM   28  N2  UNL     1      44.711  -4.754  25.251  1.00  0.00    -0.387 N 
ATOM     29  H22 UNL     1      44.813  -5.290  24.388  1.00  0.00     0.157 HD
ATOM     30  H21 UNL     1      45.253  -5.005  26.078  1.00  0.00     0.157 HD
ENDBRANCH   1  26
TORSDOF 4
ENDMDL
