MODEL 7
REMARK VINA RESULT: -7.549706002      4.266      8.776
REMARK  4 active torsions:
REMARK  status: ('A' for Active; 'I' for Inactive)
REMARK    1  A    between atoms: C1_2  and  C2_6 
REMARK    2  A    between atoms: C6_10  and  C7_11 
REMARK    3  A    between atoms: C11_15  and  C12_16 
REMARK    4  A    between atoms: C18_22  and  O1_23 
ROOT
HETATM    1  C2  UNL     1      38.835   1.541  34.838  1.00  0.00     0.027 A 
HETATM    2  C3  UNL     1      39.942   0.730  34.813  1.00  0.00     0.030 A 
HETATM    3  C4  UNL     1      40.214  -0.030  33.677  1.00  0.00    -0.006 A 
HETATM    4  C5  UNL     1      41.224  -0.908  33.378  1.00  0.00     0.044 A 
HETATM    5  C6  UNL     1      41.009  -1.396  32.086  1.00  0.00     0.046 A 
HETATM    6  N3  UNL     1      39.894  -0.805  31.654  1.00  0.00    -0.355 N 
ATOM      7  H3  UNL     1      39.481  -0.963  30.735  1.00  0.00     0.166 HD
HETATM    8  C19 UNL     1      39.381   0.028  32.587  1.00  0.00     0.044 A 
HETATM    9  C20 UNL     1      38.267   0.834  32.593  1.00  0.00     0.055 A 
HETATM   10  C21 UNL     1      38.011   1.580  33.720  1.00  0.00     0.049 A 
HETATM   11 CL1  UNL     1      36.583   2.625  33.751  1.00  0.00    -0.083 Cl
ENDROOT
BRANCH   5  12
HETATM   12  C7  UNL     1      41.883  -2.367  31.399  1.00  0.00     0.025 A 
HETATM   13  C8  UNL     1      42.275  -3.518  32.068  1.00  0.00     0.016 A 
HETATM   14  C9  UNL     1      43.088  -4.456  31.474  1.00  0.00     0.002 A 
HETATM   15  C10 UNL     1      43.525  -4.251  30.182  1.00  0.00     0.015 A 
HETATM   16  C11 UNL     1      43.152  -3.120  29.494  1.00  0.00     0.008 A 
HETATM   17  C18 UNL     1      42.341  -2.203  30.116  1.00  0.00     0.089 A 
BRANCH  16  18
HETATM   18  C12 UNL     1      43.587  -2.917  28.110  1.00  0.00    -0.023 A 
HETATM   19  C13 UNL     1      43.215  -3.804  27.115  1.00  0.00     0.012 A 
HETATM   20  C14 UNL     1      43.617  -3.578  25.820  1.00  0.00     0.001 A 
HETATM   21  C15 UNL     1      44.389  -2.488  25.450  1.00  0.00     0.000 A 
HETATM   22  C16 UNL     1      44.738  -1.633  26.465  1.00  0.00     0.001 A 
HETATM   23  C17 UNL     1      44.351  -1.834  27.765  1.00  0.00     0.012 A 
ENDBRANCH  16  18
BRANCH  17  24
HETATM   24  O1  UNL     1      41.966  -1.066  29.436  1.00  0.00    -0.359 OA
ATOM     25  H1  UNL     1      42.625  -0.620  28.918  1.00  0.00     0.217 HD
ENDBRANCH  17  24
ENDBRANCH   5  12
BRANCH   1  26
HETATM   26  C1  UNL     1      38.483   2.365  35.986  1.00  0.00     0.121 C 
HETATM   27  N1  UNL     1      37.591   1.874  36.971  1.00  0.00    -0.082 NA
HETATM   28  N2  UNL     1      38.982   3.536  36.103  1.00  0.00    -0.387 N 
ATOM     29  H22 UNL     1      38.735   4.114  36.907  1.00  0.00     0.157 HD
ATOM     30  H21 UNL     1      39.623   3.890  35.394  1.00  0.00     0.157 HD
ENDBRANCH   1  26
TORSDOF 4
ENDMDL
