MODEL 1
REMARK VINA RESULT: -8.772358623      0.000      0.000
REMARK  4 active torsions:
REMARK  status: ('A' for Active; 'I' for Inactive)
REMARK    1  A    between atoms: C1_2  and  C2_6 
REMARK    2  A    between atoms: C6_12  and  C7_13 
REMARK    3  A    between atoms: C11_17  and  C12_18 
REMARK    4  A    between atoms: C18_24  and  O1_25 
ROOT
HETATM    1  C2  UNL     1       8.442   0.688  24.888  1.00  0.00     0.007 A 
HETATM    2  C3  UNL     1       9.068   0.548  23.666  1.00  0.00     0.017 A 
HETATM    3  C4  UNL     1       9.536   1.651  23.014  1.00  0.00     0.033 A 
HETATM    4  C5  UNL     1       9.407   2.917  23.532  1.00  0.00     0.060 A 
HETATM    5  N3  UNL     1       9.750   4.135  23.142  1.00  0.00    -0.340 N 
ATOM      6  H3  UNL     1      10.233   4.344  22.268  1.00  0.00     0.167 HD
HETATM    7  C6  UNL     1       9.374   5.073  24.057  1.00  0.00     0.119 A 
HETATM    8  N4  UNL     1       8.784   4.377  25.032  1.00  0.00    -0.340 N 
ATOM      9  H4  UNL     1       8.386   4.787  25.877  1.00  0.00     0.167 HD
HETATM   10  C19 UNL     1       8.785   3.046  24.743  1.00  0.00     0.061 A 
HETATM   11  C20 UNL     1       8.307   1.939  25.413  1.00  0.00     0.046 A 
ENDROOT
BRANCH   7  12
HETATM   12  C7  UNL     1       9.620   6.506  23.897  1.00  0.00     0.042 A 
HETATM   13  C8  UNL     1       8.613   7.404  24.243  1.00  0.00     0.018 A 
HETATM   14  C9  UNL     1       8.788   8.760  24.114  1.00  0.00     0.002 A 
HETATM   15  C10 UNL     1      10.002   9.231  23.625  1.00  0.00     0.015 A 
HETATM   16  C11 UNL     1      11.019   8.373  23.274  1.00  0.00     0.008 A 
HETATM   17  C18 UNL     1      10.811   6.997  23.417  1.00  0.00     0.090 A 
BRANCH  16  18
HETATM   18  C12 UNL     1      12.244   8.911  22.746  1.00  0.00    -0.023 A 
HETATM   19  C13 UNL     1      13.282   9.277  23.598  1.00  0.00     0.012 A 
HETATM   20  C14 UNL     1      14.457   9.809  23.120  1.00  0.00     0.001 A 
HETATM   21  C15 UNL     1      14.639   9.997  21.767  1.00  0.00     0.000 A 
HETATM   22  C16 UNL     1      13.623   9.639  20.930  1.00  0.00     0.001 A 
HETATM   23  C17 UNL     1      12.436   9.102  21.394  1.00  0.00     0.012 A 
ENDBRANCH  16  18
BRANCH  17  24
HETATM   24  O1  UNL     1      11.807   6.099  23.079  1.00  0.00    -0.359 OA
ATOM     25  H1  UNL     1      12.690   6.260  23.393  1.00  0.00     0.217 HD
ENDBRANCH  17  24
ENDBRANCH   7  12
BRANCH   1  26
HETATM   26  C1  UNL     1       7.962  -0.521  25.539  1.00  0.00     0.120 C 
HETATM   27  N1  UNL     1       7.465  -1.585  24.753  1.00  0.00    -0.082 NA
HETATM   28  N2  UNL     1       7.993  -0.617  26.806  1.00  0.00    -0.387 N 
ATOM     29  H22 UNL     1       7.657  -1.465  27.263  1.00  0.00     0.157 HD
ATOM     30  H21 UNL     1       8.351   0.151  27.374  1.00  0.00     0.157 HD
ENDBRANCH   1  26
TORSDOF 4
ENDMDL
