MODEL 2
REMARK VINA RESULT: -8.433770730      3.244      8.589
REMARK  4 active torsions:
REMARK  status: ('A' for Active; 'I' for Inactive)
REMARK    1  A    between atoms: C1_2  and  C2_6 
REMARK    2  A    between atoms: C6_12  and  C7_13 
REMARK    3  A    between atoms: C11_17  and  C12_18 
REMARK    4  A    between atoms: C18_24  and  O1_25 
ROOT
HETATM    1  C2  UNL     1      14.676   9.883  22.308  1.00  0.00     0.007 A 
HETATM    2  C3  UNL     1      13.811  10.785  21.723  1.00  0.00     0.017 A 
HETATM    3  C4  UNL     1      12.478  10.501  21.660  1.00  0.00     0.033 A 
HETATM    4  C5  UNL     1      11.952   9.336  22.163  1.00  0.00     0.060 A 
HETATM    5  N3  UNL     1      10.743   8.804  22.243  1.00  0.00    -0.340 N 
ATOM      6  H3  UNL     1       9.895   9.248  21.890  1.00  0.00     0.167 HD
HETATM    7  C6  UNL     1      10.776   7.587  22.857  1.00  0.00     0.119 A 
HETATM    8  N4  UNL     1      12.063   7.391  23.153  1.00  0.00    -0.340 N 
ATOM      9  H4  UNL     1      12.430   6.564  23.624  1.00  0.00     0.167 HD
HETATM   10  C19 UNL     1      12.818   8.447  22.740  1.00  0.00     0.061 A 
HETATM   11  C20 UNL     1      14.169   8.721  22.810  1.00  0.00     0.046 A 
ENDROOT
BRANCH   7  12
HETATM   12  C7  UNL     1       9.589   6.762  23.087  1.00  0.00     0.042 A 
HETATM   13  C8  UNL     1       8.330   7.343  22.950  1.00  0.00     0.018 A 
HETATM   14  C9  UNL     1       7.182   6.617  23.153  1.00  0.00     0.002 A 
HETATM   15  C10 UNL     1       7.295   5.276  23.504  1.00  0.00     0.015 A 
HETATM   16  C11 UNL     1       8.523   4.670  23.648  1.00  0.00     0.008 A 
HETATM   17  C18 UNL     1       9.675   5.435  23.434  1.00  0.00     0.090 A 
BRANCH  16  18
HETATM   18  C12 UNL     1       8.584   3.288  24.040  1.00  0.00    -0.023 A 
HETATM   19  C13 UNL     1       9.062   2.322  23.160  1.00  0.00     0.012 A 
HETATM   20  C14 UNL     1       9.115   0.991  23.505  1.00  0.00     0.001 A 
HETATM   21  C15 UNL     1       8.690   0.574  24.749  1.00  0.00     0.000 A 
HETATM   22  C16 UNL     1       8.221   1.519  25.613  1.00  0.00     0.001 A 
HETATM   23  C17 UNL     1       8.162   2.861  25.282  1.00  0.00     0.012 A 
ENDBRANCH  16  18
BRANCH  17  24
HETATM   24  O1  UNL     1      10.928   4.865  23.565  1.00  0.00    -0.359 OA
ATOM     25  H1  UNL     1      11.045   4.164  24.195  1.00  0.00     0.217 HD
ENDBRANCH  17  24
ENDBRANCH   7  12
BRANCH   1  26
HETATM   26  C1  UNL     1      16.087  10.235  22.348  1.00  0.00     0.120 C 
HETATM   27  N1  UNL     1      16.494  11.525  21.941  1.00  0.00    -0.082 NA
HETATM   28  N2  UNL     1      16.944   9.386  22.749  1.00  0.00    -0.387 N 
ATOM     29  H22 UNL     1      17.934   9.632  22.777  1.00  0.00     0.157 HD
ATOM     30  H21 UNL     1      16.651   8.455  23.043  1.00  0.00     0.157 HD
ENDBRANCH   1  26
TORSDOF 4
ENDMDL
