MODEL 4
REMARK VINA RESULT: -8.250140171      1.303      1.928
REMARK  4 active torsions:
REMARK  status: ('A' for Active; 'I' for Inactive)
REMARK    1  A    between atoms: C1_2  and  C2_6 
REMARK    2  A    between atoms: C6_12  and  C7_13 
REMARK    3  A    between atoms: C11_17  and  C12_18 
REMARK    4  A    between atoms: C18_24  and  O1_25 
ROOT
HETATM    1  C2  UNL     1       8.612   1.909  24.617  1.00  0.00     0.007 A 
HETATM    2  C3  UNL     1       8.042   2.525  25.713  1.00  0.00     0.017 A 
HETATM    3  C4  UNL     1       8.009   3.887  25.782  1.00  0.00     0.033 A 
HETATM    4  C5  UNL     1       8.527   4.684  24.790  1.00  0.00     0.060 A 
HETATM    5  N3  UNL     1       8.635   5.988  24.588  1.00  0.00    -0.340 N 
ATOM      6  H3  UNL     1       8.299   6.700  25.236  1.00  0.00     0.167 HD
HETATM    7  C6  UNL     1       9.254   6.256  23.402  1.00  0.00     0.119 A 
HETATM    8  N4  UNL     1       9.522   5.057  22.882  1.00  0.00    -0.340 N 
ATOM      9  H4  UNL     1       9.988   4.905  21.987  1.00  0.00     0.167 HD
HETATM   10  C19 UNL     1       9.090   4.064  23.708  1.00  0.00     0.061 A 
HETATM   11  C20 UNL     1       9.131   2.687  23.625  1.00  0.00     0.046 A 
ENDROOT
BRANCH   7  12
HETATM   12  C7  UNL     1       9.513   7.609  22.911  1.00  0.00     0.042 A 
HETATM   13  C8  UNL     1       8.471   8.535  22.909  1.00  0.00     0.018 A 
HETATM   14  C9  UNL     1       8.656   9.819  22.460  1.00  0.00     0.002 A 
HETATM   15  C10 UNL     1       9.916  10.189  21.999  1.00  0.00     0.015 A 
HETATM   16  C11 UNL     1      10.967   9.300  21.986  1.00  0.00     0.008 A 
HETATM   17  C18 UNL     1      10.748   7.999  22.451  1.00  0.00     0.090 A 
BRANCH  16  18
HETATM   18  C12 UNL     1      12.242   9.725  21.473  1.00  0.00    -0.023 A 
HETATM   19  C13 UNL     1      13.276  10.066  22.339  1.00  0.00     0.012 A 
HETATM   20  C14 UNL     1      14.499  10.491  21.873  1.00  0.00     0.001 A 
HETATM   21  C15 UNL     1      14.734  10.592  20.518  1.00  0.00     0.000 A 
HETATM   22  C16 UNL     1      13.721  10.259  19.668  1.00  0.00     0.001 A 
HETATM   23  C17 UNL     1      12.487   9.829  20.120  1.00  0.00     0.012 A 
ENDBRANCH  16  18
BRANCH  17  24
HETATM   24  O1  UNL     1      11.777   7.076  22.460  1.00  0.00    -0.359 OA
ATOM     25  H1  UNL     1      12.420   7.106  21.761  1.00  0.00     0.217 HD
ENDBRANCH  17  24
ENDBRANCH   7  12
BRANCH   1  26
HETATM   26  C1  UNL     1       8.621   0.454  24.594  1.00  0.00     0.120 C 
HETATM   27  N1  UNL     1       8.927  -0.221  23.391  1.00  0.00    -0.082 NA
HETATM   28  N2  UNL     1       8.357  -0.201  25.651  1.00  0.00    -0.387 N 
ATOM     29  H22 UNL     1       8.364  -1.221  25.636  1.00  0.00     0.157 HD
ATOM     30  H21 UNL     1       8.137   0.286  26.519  1.00  0.00     0.157 HD
ENDBRANCH   1  26
TORSDOF 4
ENDMDL
