MODEL 3
REMARK VINA RESULT: -8.365991330      0.968      1.398
REMARK  4 active torsions:
REMARK  status: ('A' for Active; 'I' for Inactive)
REMARK    1  A    between atoms: C1_2  and  C2_6 
REMARK    2  A    between atoms: C6_12  and  C7_13 
REMARK    3  A    between atoms: C11_17  and  C12_18 
REMARK    4  A    between atoms: C18_24  and  O1_25 
ROOT
HETATM    1  C2  UNL     1       8.626   1.347  24.632  1.00  0.00     0.007 A 
HETATM    2  C3  UNL     1       9.137   1.188  23.360  1.00  0.00     0.017 A 
HETATM    3  C4  UNL     1       9.476   2.285  22.623  1.00  0.00     0.033 A 
HETATM    4  C5  UNL     1       9.328   3.563  23.103  1.00  0.00     0.060 A 
HETATM    5  N3  UNL     1       9.562   4.779  22.635  1.00  0.00    -0.340 N 
ATOM      6  H3  UNL     1       9.945   4.975  21.710  1.00  0.00     0.167 HD
HETATM    7  C6  UNL     1       9.225   5.735  23.547  1.00  0.00     0.119 A 
HETATM    8  N4  UNL     1       8.772   5.053  24.601  1.00  0.00    -0.340 N 
ATOM      9  H4  UNL     1       8.437   5.478  25.466  1.00  0.00     0.167 HD
HETATM   10  C19 UNL     1       8.820   3.712  24.364  1.00  0.00     0.061 A 
HETATM   11  C20 UNL     1       8.472   2.611  25.120  1.00  0.00     0.046 A 
ENDROOT
BRANCH   7  12
HETATM   12  C7  UNL     1       9.374   7.171  23.309  1.00  0.00     0.042 A 
HETATM   13  C8  UNL     1       8.344   8.027  23.695  1.00  0.00     0.018 A 
HETATM   14  C9  UNL     1       8.429   9.382  23.496  1.00  0.00     0.002 A 
HETATM   15  C10 UNL     1       9.573   9.898  22.895  1.00  0.00     0.015 A 
HETATM   16  C11 UNL     1      10.609   9.082  22.501  1.00  0.00     0.008 A 
HETATM   17  C18 UNL     1      10.494   7.704  22.717  1.00  0.00     0.090 A 
BRANCH  16  18
HETATM   18  C12 UNL     1      11.757   9.662  21.858  1.00  0.00    -0.023 A 
HETATM   19  C13 UNL     1      11.778   9.848  20.479  1.00  0.00     0.012 A 
HETATM   20  C14 UNL     1      12.871  10.385  19.838  1.00  0.00     0.001 A 
HETATM   21  C15 UNL     1      13.988  10.759  20.555  1.00  0.00     0.000 A 
HETATM   22  C16 UNL     1      13.968  10.579  21.907  1.00  0.00     0.001 A 
HETATM   23  C17 UNL     1      12.878  10.040  22.566  1.00  0.00     0.012 A 
ENDBRANCH  16  18
BRANCH  17  24
HETATM   24  O1  UNL     1      11.513   6.849  22.340  1.00  0.00    -0.359 OA
ATOM     25  H1  UNL     1      12.372   6.968  22.727  1.00  0.00     0.217 HD
ENDBRANCH  17  24
ENDBRANCH   7  12
BRANCH   1  26
HETATM   26  C1  UNL     1       8.281   0.144  25.373  1.00  0.00     0.120 C 
HETATM   27  N1  UNL     1       7.969  -1.041  24.670  1.00  0.00    -0.082 NA
HETATM   28  N2  UNL     1       8.261   0.163  26.644  1.00  0.00    -0.387 N 
ATOM     29  H22 UNL     1       8.019  -0.680  27.164  1.00  0.00     0.157 HD
ATOM     30  H21 UNL     1       8.486   1.018  27.151  1.00  0.00     0.157 HD
ENDBRANCH   1  26
TORSDOF 4
ENDMDL
