MODEL 6
REMARK VINA RESULT: -8.172284517      3.155      8.600
REMARK  4 active torsions:
REMARK  status: ('A' for Active; 'I' for Inactive)
REMARK    1  A    between atoms: C1_2  and  C2_6 
REMARK    2  A    between atoms: C6_12  and  C7_13 
REMARK    3  A    between atoms: C11_17  and  C12_18 
REMARK    4  A    between atoms: C18_24  and  O1_25 
ROOT
HETATM    1  C2  UNL     1      13.871   9.896  21.116  1.00  0.00     0.007 A 
HETATM    2  C3  UNL     1      14.692   9.332  22.071  1.00  0.00     0.017 A 
HETATM    3  C4  UNL     1      14.171   8.460  22.982  1.00  0.00     0.033 A 
HETATM    4  C5  UNL     1      12.842   8.112  22.986  1.00  0.00     0.060 A 
HETATM    5  N3  UNL     1      12.077   7.320  23.720  1.00  0.00    -0.340 N 
ATOM      6  H3  UNL     1      12.413   6.766  24.509  1.00  0.00     0.167 HD
HETATM    7  C6  UNL     1      10.784   7.338  23.287  1.00  0.00     0.119 A 
HETATM    8  N4  UNL     1      10.787   8.179  22.251  1.00  0.00    -0.340 N 
ATOM      9  H4  UNL     1       9.964   8.417  21.696  1.00  0.00     0.167 HD
HETATM   10  C19 UNL     1      12.037   8.676  22.036  1.00  0.00     0.061 A 
HETATM   11  C20 UNL     1      12.549   9.561  21.109  1.00  0.00     0.046 A 
ENDROOT
BRANCH   7  12
HETATM   12  C7  UNL     1       9.711   6.560  23.905  1.00  0.00     0.042 A 
HETATM   13  C8  UNL     1       8.665   7.235  24.531  1.00  0.00     0.018 A 
HETATM   14  C9  UNL     1       7.631   6.556  25.127  1.00  0.00     0.002 A 
HETATM   15  C10 UNL     1       7.643   5.165  25.100  1.00  0.00     0.015 A 
HETATM   16  C11 UNL     1       8.661   4.466  24.492  1.00  0.00     0.008 A 
HETATM   17  C18 UNL     1       9.700   5.185  23.892  1.00  0.00     0.090 A 
BRANCH  16  18
HETATM   18  C12 UNL     1       8.639   3.028  24.516  1.00  0.00    -0.023 A 
HETATM   19  C13 UNL     1       8.264   2.345  25.669  1.00  0.00     0.012 A 
HETATM   20  C14 UNL     1       8.253   0.970  25.723  1.00  0.00     0.001 A 
HETATM   21  C15 UNL     1       8.616   0.224  24.622  1.00  0.00     0.000 A 
HETATM   22  C16 UNL     1       8.984   0.892  23.492  1.00  0.00     0.001 A 
HETATM   23  C17 UNL     1       9.002   2.273  23.420  1.00  0.00     0.012 A 
ENDBRANCH  16  18
BRANCH  17  24
HETATM   24  O1  UNL     1      10.740   4.522  23.266  1.00  0.00    -0.359 OA
ATOM     25  H1  UNL     1      11.307   3.969  23.791  1.00  0.00     0.217 HD
ENDBRANCH  17  24
ENDBRANCH   7  12
BRANCH   1  26
HETATM   26  C1  UNL     1      14.478  10.820  20.170  1.00  0.00     0.120 C 
HETATM   27  N1  UNL     1      15.653  11.516  20.533  1.00  0.00    -0.082 NA
HETATM   28  N2  UNL     1      13.952  10.997  19.026  1.00  0.00    -0.387 N 
ATOM     29  H22 UNL     1      14.377  11.645  18.363  1.00  0.00     0.157 HD
ATOM     30  H21 UNL     1      13.105  10.495  18.764  1.00  0.00     0.157 HD
ENDBRANCH   1  26
TORSDOF 4
ENDMDL
