MODEL 12
REMARK VINA RESULT: -7.541086786      4.593      8.671
REMARK  4 active torsions:
REMARK  status: ('A' for Active; 'I' for Inactive)
REMARK    1  A    between atoms: C1_2  and  C2_6 
REMARK    2  A    between atoms: C6_12  and  C7_13 
REMARK    3  A    between atoms: C11_17  and  C12_18 
REMARK    4  A    between atoms: C18_24  and  O1_25 
ROOT
HETATM    1  C2  UNL     1       3.286  10.428  22.722  1.00  0.00     0.007 A 
HETATM    2  C3  UNL     1       2.653   9.572  23.600  1.00  0.00     0.017 A 
HETATM    3  C4  UNL     1       3.325   8.495  24.099  1.00  0.00     0.033 A 
HETATM    4  C5  UNL     1       4.628   8.223  23.759  1.00  0.00     0.060 A 
HETATM    5  N3  UNL     1       5.508   7.286  24.073  1.00  0.00    -0.340 N 
ATOM      6  H3  UNL     1       5.321   6.510  24.710  1.00  0.00     0.167 HD
HETATM    7  C6  UNL     1       6.697   7.488  23.436  1.00  0.00     0.119 A 
HETATM    8  N4  UNL     1       6.510   8.596  22.715  1.00  0.00    -0.340 N 
ATOM      9  H4  UNL     1       7.217   9.023  22.116  1.00  0.00     0.167 HD
HETATM   10  C19 UNL     1       5.247   9.077  22.888  1.00  0.00     0.061 A 
HETATM   11  C20 UNL     1       4.579  10.169  22.375  1.00  0.00     0.046 A 
ENDROOT
BRANCH   7  12
HETATM   12  C7  UNL     1       7.859   6.612  23.590  1.00  0.00     0.042 A 
HETATM   13  C8  UNL     1       9.135   7.161  23.475  1.00  0.00     0.018 A 
HETATM   14  C9  UNL     1      10.260   6.387  23.610  1.00  0.00     0.002 A 
HETATM   15  C10 UNL     1      10.108   5.027  23.864  1.00  0.00     0.015 A 
HETATM   16  C11 UNL     1       8.863   4.452  23.983  1.00  0.00     0.008 A 
HETATM   17  C18 UNL     1       7.735   5.266  23.841  1.00  0.00     0.090 A 
BRANCH  16  18
HETATM   18  C12 UNL     1       8.761   3.037  24.217  1.00  0.00    -0.023 A 
HETATM   19  C13 UNL     1       8.300   2.553  25.438  1.00  0.00     0.012 A 
HETATM   20  C14 UNL     1       8.209   1.204  25.693  1.00  0.00     0.001 A 
HETATM   21  C15 UNL     1       8.577   0.284  24.734  1.00  0.00     0.000 A 
HETATM   22  C16 UNL     1       9.029   0.757  23.537  1.00  0.00     0.001 A 
HETATM   23  C17 UNL     1       9.127   2.110  23.264  1.00  0.00     0.012 A 
ENDBRANCH  16  18
BRANCH  17  24
HETATM   24  O1  UNL     1       6.465   4.731  23.956  1.00  0.00    -0.359 OA
ATOM     25  H1  UNL     1       6.328   4.015  24.566  1.00  0.00     0.217 HD
ENDBRANCH  17  24
ENDBRANCH   7  12
BRANCH   1  26
HETATM   26  C1  UNL     1       2.523  11.560  22.219  1.00  0.00     0.120 C 
HETATM   27  N1  UNL     1       1.532  12.149  23.036  1.00  0.00    -0.082 NA
HETATM   28  N2  UNL     1       2.749  12.012  21.053  1.00  0.00    -0.387 N 
ATOM     29  H22 UNL     1       2.214  12.806  20.700  1.00  0.00     0.157 HD
ATOM     30  H21 UNL     1       3.464  11.587  20.463  1.00  0.00     0.157 HD
ENDBRANCH   1  26
TORSDOF 4
ENDMDL
