MODEL 9
REMARK VINA RESULT: -7.803617697      1.600      2.538
REMARK  4 active torsions:
REMARK  status: ('A' for Active; 'I' for Inactive)
REMARK    1  A    between atoms: C1_2  and  C2_6 
REMARK    2  A    between atoms: C6_12  and  C7_13 
REMARK    3  A    between atoms: C11_17  and  C12_18 
REMARK    4  A    between atoms: C18_24  and  O1_25 
ROOT
HETATM    1  C2  UNL     1       8.862   2.316  24.000  1.00  0.00     0.007 A 
HETATM    2  C3  UNL     1       7.915   2.853  24.849  1.00  0.00     0.017 A 
HETATM    3  C4  UNL     1       7.939   4.188  25.132  1.00  0.00     0.033 A 
HETATM    4  C5  UNL     1       8.880   5.033  24.598  1.00  0.00     0.060 A 
HETATM    5  N3  UNL     1       9.144   6.327  24.687  1.00  0.00    -0.340 N 
ATOM      6  H3  UNL     1       8.606   6.987  25.250  1.00  0.00     0.167 HD
HETATM    7  C6  UNL     1      10.228   6.666  23.931  1.00  0.00     0.119 A 
HETATM    8  N4  UNL     1      10.620   5.520  23.370  1.00  0.00    -0.340 N 
ATOM      9  H4  UNL     1      11.415   5.427  22.737  1.00  0.00     0.167 HD
HETATM   10  C19 UNL     1       9.815   4.492  23.758  1.00  0.00     0.061 A 
HETATM   11  C20 UNL     1       9.803   3.144  23.464  1.00  0.00     0.046 A 
ENDROOT
BRANCH   7  12
HETATM   12  C7  UNL     1      10.755   8.027  23.833  1.00  0.00     0.042 A 
HETATM   13  C8  UNL     1      10.556   8.903  24.898  1.00  0.00     0.018 A 
HETATM   14  C9  UNL     1      11.028  10.192  24.861  1.00  0.00     0.002 A 
HETATM   15  C10 UNL     1      11.717  10.617  23.729  1.00  0.00     0.015 A 
HETATM   16  C11 UNL     1      11.931   9.779  22.659  1.00  0.00     0.008 A 
HETATM   17  C18 UNL     1      11.438   8.471  22.726  1.00  0.00     0.090 A 
BRANCH  16  18
HETATM   18  C12 UNL     1      12.624  10.277  21.501  1.00  0.00    -0.023 A 
HETATM   19  C13 UNL     1      14.008  10.167  21.402  1.00  0.00     0.012 A 
HETATM   20  C14 UNL     1      14.695  10.651  20.313  1.00  0.00     0.001 A 
HETATM   21  C15 UNL     1      14.023  11.265  19.278  1.00  0.00     0.000 A 
HETATM   22  C16 UNL     1      12.667  11.374  19.374  1.00  0.00     0.001 A 
HETATM   23  C17 UNL     1      11.960  10.893  20.461  1.00  0.00     0.012 A 
ENDBRANCH  16  18
BRANCH  17  24
HETATM   24  O1  UNL     1      11.634   7.594  21.675  1.00  0.00    -0.359 OA
ATOM     25  H1  UNL     1      12.271   7.820  21.007  1.00  0.00     0.217 HD
ENDBRANCH  17  24
ENDBRANCH   7  12
BRANCH   1  26
HETATM   26  C1  UNL     1       8.791   0.888  23.733  1.00  0.00     0.120 C 
HETATM   27  N1  UNL     1       8.666  -0.016  24.811  1.00  0.00    -0.082 NA
HETATM   28  N2  UNL     1       8.842   0.461  22.537  1.00  0.00    -0.387 N 
ATOM     29  H22 UNL     1       8.792  -0.541  22.349  1.00  0.00     0.157 HD
ATOM     30  H21 UNL     1       8.932   1.113  21.759  1.00  0.00     0.157 HD
ENDBRANCH   1  26
TORSDOF 4
ENDMDL
