MODEL 3
REMARK VINA RESULT: -8.932413332      3.874     10.421
REMARK  20 active torsions:
REMARK  status: ('A' for Active; 'I' for Inactive)
REMARK       I    between atoms: C2_2  and  N1_4 
REMARK    1  A    between atoms: N1_4  and  C3_6 
REMARK    2  A    between atoms: C3_6  and  C4_7 
REMARK    3  A    between atoms: C3_6  and  C11_14 
REMARK    4  A    between atoms: C4_7  and  C5_8 
REMARK    5  A    between atoms: C11_14  and  O2_15 
REMARK    6  A    between atoms: C11_14  and  C12_17 
REMARK    7  A    between atoms: C12_17  and  C13_18 
REMARK    8  A    between atoms: C13_18  and  C14_19 
REMARK    9  A    between atoms: C13_18  and  C26_45 
REMARK       I    between atoms: C14_19  and  N2_21 
REMARK   10  A    between atoms: N2_21  and  C15_23 
REMARK   11  A    between atoms: C15_23  and  C16_24 
REMARK   12  A    between atoms: C15_23  and  C19_29 
REMARK   13  A    between atoms: C16_24  and  C17_25 
REMARK   14  A    between atoms: C17_25  and  C18_26 
REMARK       I    between atoms: C19_29  and  N4_31 
REMARK   15  A    between atoms: N4_31  and  C20_33 
REMARK   16  A    between atoms: C20_33  and  C21_34 
REMARK   17  A    between atoms: C20_33  and  C25_42 
REMARK   18  A    between atoms: C21_34  and  C22_35 
REMARK   19  A    between atoms: C22_35  and  C23_36 
REMARK   20  A    between atoms: C23_36  and  N5_37 
ROOT
HETATM    1  C14 UNL     1      -7.578  16.719  28.420  1.00  0.00     0.248 C 
HETATM    2  O3  UNL     1      -7.137  15.499  28.356  1.00  0.00    -0.268 OA
HETATM    3  N2  UNL     1      -8.363  17.031  29.543  1.00  0.00    -0.344 N 
ATOM      4  H2  UNL     1      -8.703  17.988  29.647  1.00  0.00     0.163 HD
ENDROOT
BRANCH   3   5
HETATM    5  C15 UNL     1      -8.710  16.069  30.551  1.00  0.00     0.177 C 
BRANCH   5   6
HETATM    6  C16 UNL     1      -8.209  16.329  31.900  1.00  0.00     0.043 C 
BRANCH   6   7
HETATM    7  C17 UNL     1      -9.011  17.143  32.843  1.00  0.00     0.102 C 
BRANCH   7   8
HETATM    8  C18 UNL     1      -9.530  16.445  34.008  1.00  0.00     0.231 C 
HETATM    9  N3  UNL     1      -9.154  15.128  34.332  1.00  0.00    -0.062 NA
HETATM   10  O4  UNL     1     -10.337  17.056  34.743  1.00  0.00    -0.277 OA
ENDBRANCH   7   8
ENDBRANCH   6   7
ENDBRANCH   5   6
BRANCH   5  11
HETATM   11  C19 UNL     1     -10.184  15.810  30.519  1.00  0.00     0.241 C 
HETATM   12  O5  UNL     1     -10.934  16.522  29.805  1.00  0.00    -0.271 OA
HETATM   13  N4  UNL     1     -10.781  14.776  31.278  1.00  0.00    -0.346 N 
ATOM     14  H4  UNL     1     -10.192  14.183  31.864  1.00  0.00     0.163 HD
BRANCH  13  15
HETATM   15  C20 UNL     1     -12.238  14.537  31.240  1.00  0.00     0.173 C 
BRANCH  15  16
HETATM   16  C21 UNL     1     -12.506  13.126  30.827  1.00  0.00     0.036 C 
BRANCH  16  17
HETATM   17  C22 UNL     1     -13.937  12.730  30.740  1.00  0.00     0.022 C 
BRANCH  17  18
HETATM   18  C23 UNL     1     -14.188  11.386  31.432  1.00  0.00     0.122 C 
BRANCH  18  19
HETATM   19  N5  UNL     1     -13.347  11.265  32.605  1.00  0.00    -0.367 N 
HETATM   20  C24 UNL     1     -13.540  10.351  33.473  1.00  0.00     0.196 C 
HETATM   21  N6  UNL     1     -12.661  10.303  34.603  1.00  0.00    -0.067 NA
HETATM   22  N7  UNL     1     -14.565   9.397  33.370  1.00  0.00    -0.067 NA
ATOM     23  H5  UNL     1     -12.583  11.926  32.739  1.00  0.00     0.161 HD
ENDBRANCH  18  19
ENDBRANCH  17  18
ENDBRANCH  16  17
ENDBRANCH  15  16
BRANCH  15  24
HETATM   24  C25 UNL     1     -12.677  14.762  32.656  1.00  0.00     0.254 C 
HETATM   25  N8  UNL     1     -12.232  13.855  33.667  1.00  0.00    -0.060 NA
HETATM   26  O6  UNL     1     -13.421  15.704  33.006  1.00  0.00    -0.275 OA
ENDBRANCH  15  24
ENDBRANCH  13  15
ENDBRANCH   5  11
ENDBRANCH   3   5
BRANCH   1  27
HETATM   27  C13 UNL     1      -7.247  17.652  27.345  1.00  0.00     0.014 C 
BRANCH  27  28
HETATM   28  C12 UNL     1      -8.369  18.610  27.170  1.00  0.00     0.078 C 
BRANCH  28  29
HETATM   29  C11 UNL     1      -9.664  18.178  26.657  1.00  0.00     0.145 C 
BRANCH  29  30
HETATM   30  C3  UNL     1      -9.762  16.825  26.012  1.00  0.00     0.113 C 
BRANCH  30  31
HETATM   31  N1  UNL     1     -10.867  16.047  26.539  1.00  0.00    -0.354 N 
HETATM   32  C2  UNL     1     -10.687  14.683  26.897  1.00  0.00     0.214 C 
HETATM   33  C1  UNL     1     -11.797  13.848  27.441  1.00  0.00     0.117 C 
HETATM   34  O1  UNL     1      -9.545  14.182  26.743  1.00  0.00    -0.274 OA
ATOM     35  H1  UNL     1     -11.782  16.483  26.654  1.00  0.00     0.162 HD
ENDBRANCH  30  31
BRANCH  30  36
HETATM   36  C4  UNL     1      -9.740  16.974  24.536  1.00  0.00     0.032 C 
BRANCH  36  37
HETATM   37  C5  UNL     1      -8.542  16.511  23.796  1.00  0.00    -0.013 C 
HETATM   38  C6  UNL     1      -7.986  17.424  22.765  1.00  0.00     0.005 C 
HETATM   39  C7  UNL     1      -7.413  16.563  21.630  1.00  0.00     0.000 C 
HETATM   40  C8  UNL     1      -8.546  15.999  20.836  1.00  0.00     0.000 C 
HETATM   41  C9  UNL     1      -9.611  15.499  21.775  1.00  0.00     0.000 C 
HETATM   42  C10 UNL     1      -8.957  15.203  23.092  1.00  0.00     0.005 C 
ENDBRANCH  36  37
ENDBRANCH  30  36
ENDBRANCH  29  30
BRANCH  29  43
HETATM   43  O2  UNL     1     -10.629  18.287  27.687  1.00  0.00    -0.393 OA
ATOM     44  H2  UNL     1     -11.212  17.537  27.660  1.00  0.00     0.210 HD
ENDBRANCH  29  43
ENDBRANCH  28  29
ENDBRANCH  27  28
BRANCH  27  45
HETATM   45  C26 UNL     1      -5.868  18.157  27.315  1.00  0.00    -0.076 C 
HETATM   46  C27 UNL     1      -5.630  19.625  27.272  1.00  0.00     0.044 C 
HETATM   47  C28 UNL     1      -4.861  17.397  26.483  1.00  0.00     0.044 C 
ENDBRANCH  27  45
ENDBRANCH   1  27
TORSDOF 20
ENDMDL
