MODEL 1
REMARK VINA RESULT: -9.163208905      0.000      0.000
REMARK  20 active torsions:
REMARK  status: ('A' for Active; 'I' for Inactive)
REMARK       I    between atoms: C2_2  and  N1_4 
REMARK    1  A    between atoms: N1_4  and  C3_6 
REMARK    2  A    between atoms: C3_6  and  C4_7 
REMARK    3  A    between atoms: C3_6  and  C11_14 
REMARK    4  A    between atoms: C4_7  and  C5_8 
REMARK    5  A    between atoms: C11_14  and  O2_15 
REMARK    6  A    between atoms: C11_14  and  C12_17 
REMARK    7  A    between atoms: C12_17  and  C13_18 
REMARK    8  A    between atoms: C13_18  and  C14_19 
REMARK    9  A    between atoms: C13_18  and  C26_45 
REMARK       I    between atoms: C14_19  and  N2_21 
REMARK   10  A    between atoms: N2_21  and  C15_23 
REMARK   11  A    between atoms: C15_23  and  C16_24 
REMARK   12  A    between atoms: C15_23  and  C19_29 
REMARK   13  A    between atoms: C16_24  and  C17_25 
REMARK   14  A    between atoms: C17_25  and  C18_26 
REMARK       I    between atoms: C19_29  and  N4_31 
REMARK   15  A    between atoms: N4_31  and  C20_33 
REMARK   16  A    between atoms: C20_33  and  C21_34 
REMARK   17  A    between atoms: C20_33  and  C25_42 
REMARK   18  A    between atoms: C21_34  and  C22_35 
REMARK   19  A    between atoms: C22_35  and  C23_36 
REMARK   20  A    between atoms: C23_36  and  N5_37 
ROOT
HETATM    1  C14 UNL     1      -9.705  14.665  26.536  1.00  0.00     0.248 C 
HETATM    2  O3  UNL     1      -8.556  14.112  26.784  1.00  0.00    -0.268 OA
HETATM    3  N2  UNL     1      -9.851  15.229  25.257  1.00  0.00    -0.344 N 
ATOM      4  H2  UNL     1     -10.749  15.646  25.010  1.00  0.00     0.163 HD
ENDROOT
BRANCH   3   5
HETATM    5  C15 UNL     1      -8.798  15.247  24.281  1.00  0.00     0.177 C 
BRANCH   5   6
HETATM    6  C16 UNL     1      -9.157  14.827  22.927  1.00  0.00     0.043 C 
BRANCH   6   7
HETATM    7  C17 UNL     1      -8.582  15.530  21.757  1.00  0.00     0.102 C 
BRANCH   7   8
HETATM    8  C18 UNL     1      -9.488  16.402  21.026  1.00  0.00     0.231 C 
HETATM    9  N3  UNL     1      -9.117  17.689  20.595  1.00  0.00    -0.062 NA
HETATM   10  O4  UNL     1     -10.636  15.973  20.775  1.00  0.00    -0.277 OA
ENDBRANCH   7   8
ENDBRANCH   6   7
ENDBRANCH   5   6
BRANCH   5  11
HETATM   11  C19 UNL     1      -8.100  16.571  24.311  1.00  0.00     0.241 C 
HETATM   12  O5  UNL     1      -8.723  17.604  24.665  1.00  0.00    -0.271 OA
HETATM   13  N4  UNL     1      -6.740  16.711  23.949  1.00  0.00    -0.346 N 
ATOM     14  H4  UNL     1      -6.212  15.886  23.661  1.00  0.00     0.163 HD
BRANCH  13  15
HETATM   15  C20 UNL     1      -6.066  18.026  23.979  1.00  0.00     0.173 C 
BRANCH  15  16
HETATM   16  C21 UNL     1      -4.620  17.843  24.306  1.00  0.00     0.036 C 
BRANCH  16  17
HETATM   17  C22 UNL     1      -3.739  19.015  24.051  1.00  0.00     0.022 C 
BRANCH  17  18
HETATM   18  C23 UNL     1      -2.416  18.587  23.406  1.00  0.00     0.122 C 
BRANCH  18  19
HETATM   19  N5  UNL     1      -2.670  17.838  22.194  1.00  0.00    -0.367 N 
HETATM   20  C24 UNL     1      -2.246  16.645  22.045  1.00  0.00     0.196 C 
HETATM   21  N6  UNL     1      -2.543  15.977  20.813  1.00  0.00    -0.067 NA
HETATM   22  N7  UNL     1      -1.508  15.964  23.025  1.00  0.00    -0.067 NA
ATOM     23  H5  UNL     1      -3.202  18.275  21.441  1.00  0.00     0.161 HD
ENDBRANCH  18  19
ENDBRANCH  17  18
ENDBRANCH  16  17
ENDBRANCH  15  16
BRANCH  15  24
HETATM   24  C25 UNL     1      -6.228  18.545  22.582  1.00  0.00     0.254 C 
HETATM   25  N8  UNL     1      -5.676  17.793  21.500  1.00  0.00    -0.060 NA
HETATM   26  O6  UNL     1      -6.820  19.612  22.307  1.00  0.00    -0.275 OA
ENDBRANCH  15  24
ENDBRANCH  13  15
ENDBRANCH   5  11
ENDBRANCH   3   5
BRANCH   1  27
HETATM   27  C13 UNL     1     -10.730  14.674  27.576  1.00  0.00     0.014 C 
BRANCH  27  28
HETATM   28  C12 UNL     1     -11.322  16.033  27.664  1.00  0.00     0.078 C 
BRANCH  28  29
HETATM   29  C11 UNL     1     -10.971  16.947  28.745  1.00  0.00     0.145 C 
BRANCH  29  30
HETATM   30  C3  UNL     1      -9.559  16.937  29.259  1.00  0.00     0.113 C 
BRANCH  30  31
HETATM   31  N1  UNL     1      -8.713  17.880  28.554  1.00  0.00    -0.354 N 
HETATM   32  C2  UNL     1      -7.436  17.487  28.069  1.00  0.00     0.214 C 
HETATM   33  C1  UNL     1      -6.536  18.427  27.340  1.00  0.00     0.117 C 
HETATM   34  O1  UNL     1      -7.072  16.302  28.271  1.00  0.00    -0.274 OA
ATOM     35  H1  UNL     1      -9.038  18.835  28.404  1.00  0.00     0.162 HD
ENDBRANCH  30  31
BRANCH  30  36
HETATM   36  C4  UNL     1      -9.565  17.073  30.737  1.00  0.00     0.032 C 
BRANCH  36  37
HETATM   37  C5  UNL     1      -8.760  16.122  31.539  1.00  0.00    -0.013 C 
HETATM   38  C6  UNL     1      -9.458  14.929  32.080  1.00  0.00     0.005 C 
HETATM   39  C7  UNL     1      -8.825  14.585  33.436  1.00  0.00     0.000 C 
HETATM   40  C8  UNL     1      -9.284  15.585  34.448  1.00  0.00     0.000 C 
HETATM   41  C9  UNL     1      -9.218  16.965  33.848  1.00  0.00     0.000 C 
HETATM   42  C10 UNL     1      -8.214  16.931  32.733  1.00  0.00     0.005 C 
ENDBRANCH  36  37
ENDBRANCH  30  36
ENDBRANCH  29  30
BRANCH  29  43
HETATM   43  O2  UNL     1     -11.334  18.264  28.375  1.00  0.00    -0.393 OA
ATOM     44  H2  UNL     1     -11.943  18.619  29.012  1.00  0.00     0.210 HD
ENDBRANCH  29  43
ENDBRANCH  28  29
ENDBRANCH  27  28
BRANCH  27  45
HETATM   45  C26 UNL     1     -11.618  13.505  27.633  1.00  0.00    -0.076 C 
HETATM   46  C27 UNL     1     -12.708  13.369  26.629  1.00  0.00     0.044 C 
HETATM   47  C28 UNL     1     -12.042  13.012  28.996  1.00  0.00     0.044 C 
ENDBRANCH  27  45
ENDBRANCH   1  27
TORSDOF 20
ENDMDL
