MODEL 2
REMARK VINA RESULT: -9.023456621      1.811      3.568
REMARK  20 active torsions:
REMARK  status: ('A' for Active; 'I' for Inactive)
REMARK       I    between atoms: C2_2  and  N1_4 
REMARK    1  A    between atoms: N1_4  and  C3_6 
REMARK    2  A    between atoms: C3_6  and  C4_7 
REMARK    3  A    between atoms: C3_6  and  C11_14 
REMARK    4  A    between atoms: C4_7  and  C5_8 
REMARK    5  A    between atoms: C11_14  and  O2_15 
REMARK    6  A    between atoms: C11_14  and  C12_17 
REMARK    7  A    between atoms: C12_17  and  C13_18 
REMARK    8  A    between atoms: C13_18  and  C14_19 
REMARK    9  A    between atoms: C13_18  and  C26_45 
REMARK       I    between atoms: C14_19  and  N2_21 
REMARK   10  A    between atoms: N2_21  and  C15_23 
REMARK   11  A    between atoms: C15_23  and  C16_24 
REMARK   12  A    between atoms: C15_23  and  C19_29 
REMARK   13  A    between atoms: C16_24  and  C17_25 
REMARK   14  A    between atoms: C17_25  and  C18_26 
REMARK       I    between atoms: C19_29  and  N4_31 
REMARK   15  A    between atoms: N4_31  and  C20_33 
REMARK   16  A    between atoms: C20_33  and  C21_34 
REMARK   17  A    between atoms: C20_33  and  C25_42 
REMARK   18  A    between atoms: C21_34  and  C22_35 
REMARK   19  A    between atoms: C22_35  and  C23_36 
REMARK   20  A    between atoms: C23_36  and  N5_37 
ROOT
HETATM    1  C14 UNL     1      -9.898  14.870  26.535  1.00  0.00     0.248 C 
HETATM    2  O3  UNL     1      -8.790  14.342  26.960  1.00  0.00    -0.268 OA
HETATM    3  N2  UNL     1      -9.879  15.365  25.220  1.00  0.00    -0.344 N 
ATOM      4  H2  UNL     1     -10.739  15.758  24.837  1.00  0.00     0.163 HD
ENDROOT
BRANCH   3   5
HETATM    5  C15 UNL     1      -8.707  15.343  24.389  1.00  0.00     0.177 C 
BRANCH   5   6
HETATM    6  C16 UNL     1      -8.877  14.812  23.038  1.00  0.00     0.043 C 
BRANCH   6   7
HETATM    7  C17 UNL     1      -9.583  15.614  22.011  1.00  0.00     0.102 C 
BRANCH   7   8
HETATM    8  C18 UNL     1      -8.742  16.408  21.129  1.00  0.00     0.231 C 
HETATM    9  N3  UNL     1      -9.188  17.600  20.530  1.00  0.00    -0.062 NA
HETATM   10  O4  UNL     1      -7.579  16.002  20.910  1.00  0.00    -0.277 OA
ENDBRANCH   7   8
ENDBRANCH   6   7
ENDBRANCH   5   6
BRANCH   5  11
HETATM   11  C19 UNL     1      -8.048  16.687  24.406  1.00  0.00     0.241 C 
HETATM   12  O5  UNL     1      -8.699  17.704  24.755  1.00  0.00    -0.271 OA
HETATM   13  N4  UNL     1      -6.694  16.863  24.037  1.00  0.00    -0.346 N 
ATOM     14  H4  UNL     1      -6.144  16.051  23.753  1.00  0.00     0.163 HD
BRANCH  13  15
HETATM   15  C20 UNL     1      -6.059  18.197  24.054  1.00  0.00     0.173 C 
BRANCH  15  16
HETATM   16  C21 UNL     1      -4.659  18.081  24.564  1.00  0.00     0.036 C 
BRANCH  16  17
HETATM   17  C22 UNL     1      -4.239  19.104  25.559  1.00  0.00     0.022 C 
BRANCH  17  18
HETATM   18  C23 UNL     1      -4.425  18.596  26.993  1.00  0.00     0.122 C 
BRANCH  18  19
HETATM   19  N5  UNL     1      -5.805  18.753  27.403  1.00  0.00    -0.367 N 
HETATM   20  C24 UNL     1      -6.564  17.745  27.592  1.00  0.00     0.196 C 
HETATM   21  N6  UNL     1      -7.915  17.990  27.996  1.00  0.00    -0.067 NA
HETATM   22  N7  UNL     1      -6.136  16.419  27.424  1.00  0.00    -0.067 NA
ATOM     23  H5  UNL     1      -6.179  19.691  27.543  1.00  0.00     0.161 HD
ENDBRANCH  18  19
ENDBRANCH  17  18
ENDBRANCH  16  17
ENDBRANCH  15  16
BRANCH  15  24
HETATM   24  C25 UNL     1      -6.062  18.616  22.615  1.00  0.00     0.254 C 
HETATM   25  N8  UNL     1      -4.998  18.175  21.768  1.00  0.00    -0.060 NA
HETATM   26  O6  UNL     1      -6.947  19.338  22.108  1.00  0.00    -0.275 OA
ENDBRANCH  15  24
ENDBRANCH  13  15
ENDBRANCH   5  11
ENDBRANCH   3   5
BRANCH   1  27
HETATM   27  C13 UNL     1     -11.050  14.922  27.432  1.00  0.00     0.014 C 
BRANCH  27  28
HETATM   28  C12 UNL     1     -10.984  16.167  28.238  1.00  0.00     0.078 C 
BRANCH  28  29
HETATM   29  C11 UNL     1     -10.510  16.155  29.617  1.00  0.00     0.145 C 
BRANCH  29  30
HETATM   30  C3  UNL     1     -11.371  15.508  30.664  1.00  0.00     0.113 C 
BRANCH  30  31
HETATM   31  N1  UNL     1     -11.399  14.064  30.533  1.00  0.00    -0.354 N 
HETATM   32  C2  UNL     1     -12.635  13.366  30.454  1.00  0.00     0.214 C 
HETATM   33  C1  UNL     1     -12.706  11.882  30.322  1.00  0.00     0.117 C 
HETATM   34  O1  UNL     1     -13.693  14.042  30.499  1.00  0.00    -0.274 OA
ATOM     35  H1  UNL     1     -10.522  13.544  30.498  1.00  0.00     0.162 HD
ENDBRANCH  30  31
BRANCH  30  36
HETATM   36  C4  UNL     1     -10.993  16.016  32.006  1.00  0.00     0.032 C 
BRANCH  36  37
HETATM   37  C5  UNL     1     -10.716  15.036  33.081  1.00  0.00    -0.013 C 
HETATM   38  C6  UNL     1     -11.285  15.321  34.423  1.00  0.00     0.005 C 
HETATM   39  C7  UNL     1     -10.300  14.793  35.477  1.00  0.00     0.000 C 
HETATM   40  C8  UNL     1      -9.124  15.713  35.538  1.00  0.00     0.000 C 
HETATM   41  C9  UNL     1      -8.700  16.071  34.138  1.00  0.00     0.000 C 
HETATM   42  C10 UNL     1      -9.181  14.985  33.223  1.00  0.00     0.005 C 
ENDBRANCH  36  37
ENDBRANCH  30  36
ENDBRANCH  29  30
BRANCH  29  43
HETATM   43  O2  UNL     1      -9.210  15.594  29.655  1.00  0.00    -0.393 OA
ATOM     44  H2  UNL     1      -8.844  15.574  28.779  1.00  0.00     0.210 HD
ENDBRANCH  29  43
ENDBRANCH  28  29
ENDBRANCH  27  28
BRANCH  27  45
HETATM   45  C26 UNL     1     -12.342  14.508  26.866  1.00  0.00    -0.076 C 
HETATM   46  C27 UNL     1     -13.571  15.265  27.225  1.00  0.00     0.044 C 
HETATM   47  C28 UNL     1     -12.608  13.026  26.739  1.00  0.00     0.044 C 
ENDBRANCH  27  45
ENDBRANCH   1  27
TORSDOF 20
ENDMDL
