MODEL 3
REMARK VINA RESULT: -8.447429468      2.849      9.622
REMARK  20 active torsions:
REMARK  status: ('A' for Active; 'I' for Inactive)
REMARK       I    between atoms: C2_2  and  N1_4 
REMARK    1  A    between atoms: N1_4  and  C3_6 
REMARK    2  A    between atoms: C3_6  and  C4_7 
REMARK    3  A    between atoms: C3_6  and  C11_14 
REMARK    4  A    between atoms: C4_7  and  C5_8 
REMARK    5  A    between atoms: C11_14  and  O2_15 
REMARK    6  A    between atoms: C11_14  and  C12_17 
REMARK    7  A    between atoms: C12_17  and  C13_18 
REMARK    8  A    between atoms: C13_18  and  C14_19 
REMARK    9  A    between atoms: C13_18  and  C26_45 
REMARK       I    between atoms: C14_19  and  N2_21 
REMARK   10  A    between atoms: N2_21  and  C15_23 
REMARK   11  A    between atoms: C15_23  and  C16_24 
REMARK   12  A    between atoms: C15_23  and  C19_29 
REMARK   13  A    between atoms: C16_24  and  C17_25 
REMARK   14  A    between atoms: C17_25  and  C18_26 
REMARK       I    between atoms: C19_29  and  N4_31 
REMARK   15  A    between atoms: N4_31  and  C20_33 
REMARK   16  A    between atoms: C20_33  and  C21_34 
REMARK   17  A    between atoms: C20_33  and  C25_42 
REMARK   18  A    between atoms: C21_34  and  C22_35 
REMARK   19  A    between atoms: C22_35  and  C23_36 
REMARK   20  A    between atoms: C23_36  and  N5_37 
ROOT
HETATM    1  C14 UNL     1      -9.230  14.724  26.717  1.00  0.00     0.248 C 
HETATM    2  O3  UNL     1      -7.994  14.361  26.888  1.00  0.00    -0.268 OA
HETATM    3  N2  UNL     1      -9.557  15.205  25.438  1.00  0.00    -0.344 N 
ATOM      4  H2  UNL     1     -10.525  15.472  25.253  1.00  0.00     0.163 HD
ENDROOT
BRANCH   3   5
HETATM    5  C15 UNL     1      -8.596  15.341  24.380  1.00  0.00     0.177 C 
BRANCH   5   6
HETATM    6  C16 UNL     1      -9.010  14.868  23.059  1.00  0.00     0.043 C 
BRANCH   6   7
HETATM    7  C17 UNL     1      -8.441  15.488  21.840  1.00  0.00     0.102 C 
BRANCH   7   8
HETATM    8  C18 UNL     1      -9.356  16.288  21.042  1.00  0.00     0.231 C 
HETATM    9  N3  UNL     1      -9.073  17.615  20.669  1.00  0.00    -0.062 NA
HETATM   10  O4  UNL     1     -10.429  15.759  20.677  1.00  0.00    -0.277 OA
ENDBRANCH   7   8
ENDBRANCH   6   7
ENDBRANCH   5   6
BRANCH   5  11
HETATM   11  C19 UNL     1      -8.064  16.740  24.354  1.00  0.00     0.241 C 
HETATM   12  O5  UNL     1      -8.855  17.716  24.371  1.00  0.00    -0.271 OA
HETATM   13  N4  UNL     1      -6.677  17.013  24.309  1.00  0.00    -0.346 N 
ATOM     14  H4  UNL     1      -6.014  16.237  24.298  1.00  0.00     0.163 HD
BRANCH  13  15
HETATM   15  C20 UNL     1      -6.166  18.400  24.280  1.00  0.00     0.173 C 
BRANCH  15  16
HETATM   16  C21 UNL     1      -5.208  18.608  25.408  1.00  0.00     0.036 C 
BRANCH  16  17
HETATM   17  C22 UNL     1      -5.265  19.935  26.077  1.00  0.00     0.022 C 
BRANCH  17  18
HETATM   18  C23 UNL     1      -5.939  19.838  27.451  1.00  0.00     0.122 C 
BRANCH  18  19
HETATM   19  N5  UNL     1      -7.368  19.662  27.294  1.00  0.00    -0.367 N 
HETATM   20  C24 UNL     1      -7.941  18.562  27.589  1.00  0.00     0.196 C 
HETATM   21  N6  UNL     1      -9.358  18.473  27.403  1.00  0.00    -0.067 NA
HETATM   22  N7  UNL     1      -7.251  17.444  28.084  1.00  0.00    -0.067 NA
ATOM     23  H5  UNL     1      -7.929  20.436  26.939  1.00  0.00     0.161 HD
ENDBRANCH  18  19
ENDBRANCH  17  18
ENDBRANCH  16  17
ENDBRANCH  15  16
BRANCH  15  24
HETATM   24  C25 UNL     1      -5.455  18.493  22.963  1.00  0.00     0.254 C 
HETATM   25  N8  UNL     1      -4.272  19.290  22.875  1.00  0.00    -0.060 NA
HETATM   26  O6  UNL     1      -5.844  17.912  21.927  1.00  0.00    -0.275 OA
ENDBRANCH  15  24
ENDBRANCH  13  15
ENDBRANCH   5  11
ENDBRANCH   3   5
BRANCH   1  27
HETATM   27  C13 UNL     1     -10.163  14.621  27.837  1.00  0.00     0.014 C 
BRANCH  27  28
HETATM   28  C12 UNL     1      -9.781  15.607  28.880  1.00  0.00     0.078 C 
BRANCH  28  29
HETATM   29  C11 UNL     1     -10.714  16.007  29.926  1.00  0.00     0.145 C 
BRANCH  29  30
HETATM   30  C3  UNL     1     -10.617  15.335  31.266  1.00  0.00     0.113 C 
BRANCH  30  31
HETATM   31  N1  UNL     1     -11.651  14.336  31.454  1.00  0.00    -0.354 N 
HETATM   32  C2  UNL     1     -12.707  14.550  32.382  1.00  0.00     0.214 C 
HETATM   33  C1  UNL     1     -13.788  13.547  32.605  1.00  0.00     0.117 C 
HETATM   34  O1  UNL     1     -12.711  15.629  33.026  1.00  0.00    -0.274 OA
ATOM     35  H1  UNL     1     -11.621  13.470  30.914  1.00  0.00     0.162 HD
ENDBRANCH  30  31
BRANCH  30  36
HETATM   36  C4  UNL     1      -9.229  14.859  31.486  1.00  0.00     0.032 C 
BRANCH  36  37
HETATM   37  C5  UNL     1      -8.679  14.891  32.862  1.00  0.00    -0.013 C 
HETATM   38  C6  UNL     1      -9.630  14.660  33.979  1.00  0.00     0.005 C 
HETATM   39  C7  UNL     1      -9.171  15.507  35.174  1.00  0.00     0.000 C 
HETATM   40  C8  UNL     1      -9.499  16.940  34.901  1.00  0.00     0.000 C 
HETATM   41  C9  UNL     1      -9.127  17.272  33.480  1.00  0.00     0.000 C 
HETATM   42  C10 UNL     1      -8.073  16.298  33.044  1.00  0.00     0.005 C 
ENDBRANCH  36  37
ENDBRANCH  30  36
ENDBRANCH  29  30
BRANCH  29  43
HETATM   43  O2  UNL     1     -10.651  17.411  30.091  1.00  0.00    -0.393 OA
ATOM     44  H2  UNL     1     -11.040  17.840  29.338  1.00  0.00     0.210 HD
ENDBRANCH  29  43
ENDBRANCH  28  29
ENDBRANCH  27  28
BRANCH  27  45
HETATM   45  C26 UNL     1     -11.583  14.459  27.495  1.00  0.00    -0.076 C 
HETATM   46  C27 UNL     1     -12.456  15.661  27.425  1.00  0.00     0.044 C 
HETATM   47  C28 UNL     1     -12.310  13.266  28.068  1.00  0.00     0.044 C 
ENDBRANCH  27  45
ENDBRANCH   1  27
TORSDOF 20
ENDMDL
