MODEL 1
REMARK VINA RESULT: -8.767165023      0.000      0.000
REMARK  20 active torsions:
REMARK  status: ('A' for Active; 'I' for Inactive)
REMARK       I    between atoms: C2_2  and  N1_4 
REMARK    1  A    between atoms: N1_4  and  C3_6 
REMARK    2  A    between atoms: C3_6  and  C4_7 
REMARK    3  A    between atoms: C3_6  and  C11_14 
REMARK    4  A    between atoms: C4_7  and  C5_8 
REMARK    5  A    between atoms: C11_14  and  O2_15 
REMARK    6  A    between atoms: C11_14  and  C12_17 
REMARK    7  A    between atoms: C12_17  and  C13_18 
REMARK    8  A    between atoms: C13_18  and  C14_19 
REMARK    9  A    between atoms: C13_18  and  C26_45 
REMARK       I    between atoms: C14_19  and  N2_21 
REMARK   10  A    between atoms: N2_21  and  C15_23 
REMARK   11  A    between atoms: C15_23  and  C16_24 
REMARK   12  A    between atoms: C15_23  and  C19_29 
REMARK   13  A    between atoms: C16_24  and  C17_25 
REMARK   14  A    between atoms: C17_25  and  C18_26 
REMARK       I    between atoms: C19_29  and  N4_31 
REMARK   15  A    between atoms: N4_31  and  C20_33 
REMARK   16  A    between atoms: C20_33  and  C21_34 
REMARK   17  A    between atoms: C20_33  and  C25_42 
REMARK   18  A    between atoms: C21_34  and  C22_35 
REMARK   19  A    between atoms: C22_35  and  C23_36 
REMARK   20  A    between atoms: C23_36  and  N5_37 
ROOT
HETATM    1  C14 UNL     1      -7.765  16.598  28.522  1.00  0.00     0.248 C 
HETATM    2  O3  UNL     1      -7.471  15.350  28.310  1.00  0.00    -0.268 OA
HETATM    3  N2  UNL     1      -8.431  16.876  29.728  1.00  0.00    -0.344 N 
ATOM      4  H2  UNL     1      -8.652  17.847  29.948  1.00  0.00     0.163 HD
ENDROOT
BRANCH   3   5
HETATM    5  C15 UNL     1      -8.816  15.859  30.666  1.00  0.00     0.177 C 
BRANCH   5   6
HETATM    6  C16 UNL     1      -8.242  15.958  32.007  1.00  0.00     0.043 C 
BRANCH   6   7
HETATM    7  C17 UNL     1      -8.814  16.910  32.988  1.00  0.00     0.102 C 
BRANCH   7   8
HETATM    8  C18 UNL     1      -9.380  16.325  34.192  1.00  0.00     0.231 C 
HETATM    9  N3  UNL     1     -10.393  16.958  34.937  1.00  0.00    -0.062 NA
HETATM   10  O4  UNL     1      -8.941  15.215  34.565  1.00  0.00    -0.277 OA
ENDBRANCH   7   8
ENDBRANCH   6   7
ENDBRANCH   5   6
BRANCH   5  11
HETATM   11  C19 UNL     1     -10.307  15.721  30.681  1.00  0.00     0.241 C 
HETATM   12  O5  UNL     1     -11.021  16.532  30.041  1.00  0.00    -0.271 OA
HETATM   13  N4  UNL     1     -10.957  14.693  31.404  1.00  0.00    -0.346 N 
ATOM     14  H4  UNL     1     -10.398  14.021  31.930  1.00  0.00     0.163 HD
BRANCH  13  15
HETATM   15  C20 UNL     1     -12.430  14.573  31.414  1.00  0.00     0.173 C 
BRANCH  15  16
HETATM   16  C21 UNL     1     -12.824  13.176  31.060  1.00  0.00     0.036 C 
BRANCH  16  17
HETATM   17  C22 UNL     1     -14.238  12.805  31.337  1.00  0.00     0.022 C 
BRANCH  17  18
HETATM   18  C23 UNL     1     -14.342  11.376  31.882  1.00  0.00     0.122 C 
BRANCH  18  19
HETATM   19  N5  UNL     1     -13.338  11.156  32.902  1.00  0.00    -0.367 N 
HETATM   20  C24 UNL     1     -13.641  11.119  34.139  1.00  0.00     0.196 C 
HETATM   21  N6  UNL     1     -12.586  10.896  35.082  1.00  0.00    -0.067 NA
HETATM   22  N7  UNL     1     -14.951  11.283  34.616  1.00  0.00    -0.067 NA
ATOM     23  H5  UNL     1     -12.366  11.028  32.623  1.00  0.00     0.161 HD
ENDBRANCH  18  19
ENDBRANCH  17  18
ENDBRANCH  16  17
ENDBRANCH  15  16
BRANCH  15  24
HETATM   24  C25 UNL     1     -12.808  14.882  32.831  1.00  0.00     0.254 C 
HETATM   25  N8  UNL     1     -12.176  14.154  33.886  1.00  0.00    -0.060 NA
HETATM   26  O6  UNL     1     -13.654  15.747  33.147  1.00  0.00    -0.275 OA
ENDBRANCH  15  24
ENDBRANCH  13  15
ENDBRANCH   5  11
ENDBRANCH   3   5
BRANCH   1  27
HETATM   27  C13 UNL     1      -7.404  17.594  27.517  1.00  0.00     0.014 C 
BRANCH  27  28
HETATM   28  C12 UNL     1      -8.520  18.563  27.370  1.00  0.00     0.078 C 
BRANCH  28  29
HETATM   29  C11 UNL     1      -9.838  18.141  26.911  1.00  0.00     0.145 C 
BRANCH  29  30
HETATM   30  C3  UNL     1      -9.980  16.774  26.305  1.00  0.00     0.113 C 
BRANCH  30  31
HETATM   31  N1  UNL     1     -11.146  16.073  26.805  1.00  0.00    -0.354 N 
HETATM   32  C2  UNL     1     -11.069  14.698  27.162  1.00  0.00     0.214 C 
HETATM   33  C1  UNL     1     -12.246  13.941  27.679  1.00  0.00     0.117 C 
HETATM   34  O1  UNL     1      -9.961  14.120  27.031  1.00  0.00    -0.274 OA
ATOM     35  H1  UNL     1     -12.032  16.570  26.902  1.00  0.00     0.162 HD
ENDBRANCH  30  31
BRANCH  30  36
HETATM   36  C4  UNL     1      -9.884  16.870  24.827  1.00  0.00     0.032 C 
BRANCH  36  37
HETATM   37  C5  UNL     1      -8.596  16.528  24.178  1.00  0.00    -0.013 C 
HETATM   38  C6  UNL     1      -8.066  17.487  23.176  1.00  0.00     0.005 C 
HETATM   39  C7  UNL     1      -7.330  16.683  22.095  1.00  0.00     0.000 C 
HETATM   40  C8  UNL     1      -8.342  16.001  21.231  1.00  0.00     0.000 C 
HETATM   41  C9  UNL     1      -9.413  15.400  22.101  1.00  0.00     0.000 C 
HETATM   42  C10 UNL     1      -8.826  15.181  23.464  1.00  0.00     0.005 C 
ENDBRANCH  36  37
ENDBRANCH  30  36
ENDBRANCH  29  30
BRANCH  29  43
HETATM   43  O2  UNL     1     -10.768  18.293  27.967  1.00  0.00    -0.393 OA
ATOM     44  H2  UNL     1     -10.568  17.675  28.660  1.00  0.00     0.210 HD
ENDBRANCH  29  43
ENDBRANCH  28  29
ENDBRANCH  27  28
BRANCH  27  45
HETATM   45  C26 UNL     1      -6.024  18.096  27.556  1.00  0.00    -0.076 C 
HETATM   46  C27 UNL     1      -5.783  19.564  27.533  1.00  0.00     0.044 C 
HETATM   47  C28 UNL     1      -4.980  17.340  26.769  1.00  0.00     0.044 C 
ENDBRANCH  27  45
ENDBRANCH   1  27
TORSDOF 20
ENDMDL
