MODEL 4
REMARK VINA RESULT: -8.411087706      1.512      1.952
REMARK  20 active torsions:
REMARK  status: ('A' for Active; 'I' for Inactive)
REMARK       I    between atoms: C2_2  and  N1_4 
REMARK    1  A    between atoms: N1_4  and  C3_6 
REMARK    2  A    between atoms: C3_6  and  C4_7 
REMARK    3  A    between atoms: C3_6  and  C11_14 
REMARK    4  A    between atoms: C4_7  and  C5_8 
REMARK    5  A    between atoms: C11_14  and  O2_15 
REMARK    6  A    between atoms: C11_14  and  C12_17 
REMARK    7  A    between atoms: C12_17  and  C13_18 
REMARK    8  A    between atoms: C13_18  and  C14_19 
REMARK    9  A    between atoms: C13_18  and  C26_45 
REMARK       I    between atoms: C14_19  and  N2_21 
REMARK   10  A    between atoms: N2_21  and  C15_23 
REMARK   11  A    between atoms: C15_23  and  C16_24 
REMARK   12  A    between atoms: C15_23  and  C19_29 
REMARK   13  A    between atoms: C16_24  and  C17_25 
REMARK   14  A    between atoms: C17_25  and  C18_26 
REMARK       I    between atoms: C19_29  and  N4_31 
REMARK   15  A    between atoms: N4_31  and  C20_33 
REMARK   16  A    between atoms: C20_33  and  C21_34 
REMARK   17  A    between atoms: C20_33  and  C25_42 
REMARK   18  A    between atoms: C21_34  and  C22_35 
REMARK   19  A    between atoms: C22_35  and  C23_36 
REMARK   20  A    between atoms: C23_36  and  N5_37 
ROOT
HETATM    1  C14 UNL     1      -7.715  16.693  28.609  1.00  0.00     0.248 C 
HETATM    2  O3  UNL     1      -7.356  15.457  28.429  1.00  0.00    -0.268 OA
HETATM    3  N2  UNL     1      -8.417  16.962  29.797  1.00  0.00    -0.344 N 
ATOM      4  H2  UNL     1      -8.689  17.926  29.991  1.00  0.00     0.163 HD
ENDROOT
BRANCH   3   5
HETATM    5  C15 UNL     1      -8.769  15.946  30.749  1.00  0.00     0.177 C 
BRANCH   5   6
HETATM    6  C16 UNL     1      -8.204  16.087  32.090  1.00  0.00     0.043 C 
BRANCH   6   7
HETATM    7  C17 UNL     1      -8.851  16.987  33.074  1.00  0.00     0.102 C 
BRANCH   7   8
HETATM    8  C18 UNL     1      -9.508  16.340  34.198  1.00  0.00     0.231 C 
HETATM    9  N3  UNL     1      -9.339  14.973  34.489  1.00  0.00    -0.062 NA
HETATM   10  O4  UNL     1     -10.245  17.040  34.926  1.00  0.00    -0.277 OA
ENDBRANCH   7   8
ENDBRANCH   6   7
ENDBRANCH   5   6
BRANCH   5  11
HETATM   11  C19 UNL     1     -10.253  15.755  30.761  1.00  0.00     0.241 C 
HETATM   12  O5  UNL     1     -10.990  16.497  30.065  1.00  0.00    -0.271 OA
HETATM   13  N4  UNL     1     -10.873  14.752  31.542  1.00  0.00    -0.346 N 
ATOM     14  H4  UNL     1     -10.296  14.134  32.113  1.00  0.00     0.163 HD
BRANCH  13  15
HETATM   15  C20 UNL     1     -12.341  14.578  31.547  1.00  0.00     0.173 C 
BRANCH  15  16
HETATM   16  C21 UNL     1     -12.686  13.190  31.116  1.00  0.00     0.036 C 
BRANCH  16  17
HETATM   17  C22 UNL     1     -14.132  12.907  30.916  1.00  0.00     0.022 C 
BRANCH  17  18
HETATM   18  C23 UNL     1     -14.780  13.943  29.991  1.00  0.00     0.122 C 
BRANCH  18  19
HETATM   19  N5  UNL     1     -15.077  15.154  30.728  1.00  0.00    -0.367 N 
HETATM   20  C24 UNL     1     -16.201  15.326  31.305  1.00  0.00     0.196 C 
HETATM   21  N6  UNL     1     -16.410  16.553  32.012  1.00  0.00    -0.067 NA
HETATM   22  N7  UNL     1     -17.232  14.375  31.278  1.00  0.00    -0.067 NA
ATOM     23  H5  UNL     1     -14.369  15.886  30.787  1.00  0.00     0.161 HD
ENDBRANCH  18  19
ENDBRANCH  17  18
ENDBRANCH  16  17
ENDBRANCH  15  16
BRANCH  15  24
HETATM   24  C25 UNL     1     -12.724  14.793  32.981  1.00  0.00     0.254 C 
HETATM   25  N8  UNL     1     -12.435  13.766  33.932  1.00  0.00    -0.060 NA
HETATM   26  O6  UNL     1     -13.290  15.828  33.395  1.00  0.00    -0.275 OA
ENDBRANCH  15  24
ENDBRANCH  13  15
ENDBRANCH   5  11
ENDBRANCH   3   5
BRANCH   1  27
HETATM   27  C13 UNL     1      -7.385  17.685  27.589  1.00  0.00     0.014 C 
BRANCH  27  28
HETATM   28  C12 UNL     1      -8.528  18.619  27.431  1.00  0.00     0.078 C 
BRANCH  28  29
HETATM   29  C11 UNL     1      -9.818  18.164  26.927  1.00  0.00     0.145 C 
BRANCH  29  30
HETATM   30  C3  UNL     1      -9.900  16.800  26.302  1.00  0.00     0.113 C 
BRANCH  30  31
HETATM   31  N1  UNL     1     -11.023  16.034  26.808  1.00  0.00    -0.354 N 
HETATM   32  C2  UNL     1     -10.865  14.667  27.168  1.00  0.00     0.214 C 
HETATM   33  C1  UNL     1     -11.995  13.844  27.689  1.00  0.00     0.117 C 
HETATM   34  O1  UNL     1      -9.726  14.154  27.034  1.00  0.00    -0.274 OA
ATOM     35  H1  UNL     1     -11.935  16.480  26.906  1.00  0.00     0.162 HD
ENDBRANCH  30  31
BRANCH  30  36
HETATM   36  C4  UNL     1      -9.831  16.923  24.825  1.00  0.00     0.032 C 
BRANCH  36  37
HETATM   37  C5  UNL     1      -8.567  16.556  24.143  1.00  0.00    -0.013 C 
HETATM   38  C6  UNL     1      -8.028  17.519  23.150  1.00  0.00     0.005 C 
HETATM   39  C7  UNL     1      -7.338  16.715  22.038  1.00  0.00     0.000 C 
HETATM   40  C8  UNL     1      -8.387  16.081  21.182  1.00  0.00     0.000 C 
HETATM   41  C9  UNL     1      -9.459  15.495  22.062  1.00  0.00     0.000 C 
HETATM   42  C10 UNL     1      -8.851  15.231  23.408  1.00  0.00     0.005 C 
ENDBRANCH  36  37
ENDBRANCH  30  36
ENDBRANCH  29  30
BRANCH  29  43
HETATM   43  O2  UNL     1     -10.784  18.276  27.956  1.00  0.00    -0.393 OA
ATOM     44  H2  UNL     1     -10.351  18.461  28.782  1.00  0.00     0.210 HD
ENDBRANCH  29  43
ENDBRANCH  28  29
ENDBRANCH  27  28
BRANCH  27  45
HETATM   45  C26 UNL     1      -6.020  18.228  27.618  1.00  0.00    -0.076 C 
HETATM   46  C27 UNL     1      -5.808  19.681  27.379  1.00  0.00     0.044 C 
HETATM   47  C28 UNL     1      -4.919  17.389  27.012  1.00  0.00     0.044 C 
ENDBRANCH  27  45
ENDBRANCH   1  27
TORSDOF 20
ENDMDL
