MODEL 2
REMARK VINA RESULT: -8.625350409      3.941     10.254
REMARK  20 active torsions:
REMARK  status: ('A' for Active; 'I' for Inactive)
REMARK       I    between atoms: C2_2  and  N1_4 
REMARK    1  A    between atoms: N1_4  and  C3_6 
REMARK    2  A    between atoms: C3_6  and  C4_7 
REMARK    3  A    between atoms: C3_6  and  C11_14 
REMARK    4  A    between atoms: C4_7  and  C5_8 
REMARK    5  A    between atoms: C11_14  and  O2_15 
REMARK    6  A    between atoms: C11_14  and  C12_17 
REMARK    7  A    between atoms: C12_17  and  C13_18 
REMARK    8  A    between atoms: C13_18  and  C14_19 
REMARK    9  A    between atoms: C13_18  and  C26_45 
REMARK       I    between atoms: C14_19  and  N2_21 
REMARK   10  A    between atoms: N2_21  and  C15_23 
REMARK   11  A    between atoms: C15_23  and  C16_24 
REMARK   12  A    between atoms: C15_23  and  C19_29 
REMARK   13  A    between atoms: C16_24  and  C17_25 
REMARK   14  A    between atoms: C17_25  and  C18_26 
REMARK       I    between atoms: C19_29  and  N4_31 
REMARK   15  A    between atoms: N4_31  and  C20_33 
REMARK   16  A    between atoms: C20_33  and  C21_34 
REMARK   17  A    between atoms: C20_33  and  C25_42 
REMARK   18  A    between atoms: C21_34  and  C22_35 
REMARK   19  A    between atoms: C22_35  and  C23_36 
REMARK   20  A    between atoms: C23_36  and  N5_37 
ROOT
HETATM    1  C14 UNL     1      -7.679  16.559  28.695  1.00  0.00     0.248 C 
HETATM    2  O3  UNL     1      -7.421  15.309  28.452  1.00  0.00    -0.268 OA
HETATM    3  N2  UNL     1      -8.325  16.828  29.914  1.00  0.00    -0.344 N 
ATOM      4  H2  UNL     1      -8.517  17.800  30.157  1.00  0.00     0.163 HD
ENDROOT
BRANCH   3   5
HETATM    5  C15 UNL     1      -8.728  15.800  30.833  1.00  0.00     0.177 C 
BRANCH   5   6
HETATM    6  C16 UNL     1      -8.203  15.901  32.194  1.00  0.00     0.043 C 
BRANCH   6   7
HETATM    7  C17 UNL     1      -8.789  16.878  33.142  1.00  0.00     0.102 C 
BRANCH   7   8
HETATM    8  C18 UNL     1      -9.580  16.321  34.227  1.00  0.00     0.231 C 
HETATM    9  N3  UNL     1      -9.554  14.954  34.559  1.00  0.00    -0.062 NA
HETATM   10  O4  UNL     1     -10.304  17.103  34.883  1.00  0.00    -0.277 OA
ENDBRANCH   7   8
ENDBRANCH   6   7
ENDBRANCH   5   6
BRANCH   5  11
HETATM   11  C19 UNL     1     -10.216  15.641  30.795  1.00  0.00     0.241 C 
HETATM   12  O5  UNL     1     -10.917  16.424  30.107  1.00  0.00    -0.271 OA
HETATM   13  N4  UNL     1     -10.879  14.623  31.519  1.00  0.00    -0.346 N 
ATOM     14  H4  UNL     1     -10.332  13.972  32.083  1.00  0.00     0.163 HD
BRANCH  13  15
HETATM   15  C20 UNL     1     -12.350  14.481  31.476  1.00  0.00     0.173 C 
BRANCH  15  16
HETATM   16  C21 UNL     1     -12.710  13.134  30.939  1.00  0.00     0.036 C 
BRANCH  16  17
HETATM   17  C22 UNL     1     -14.098  12.986  30.423  1.00  0.00     0.022 C 
BRANCH  17  18
HETATM   18  C23 UNL     1     -14.675  14.336  29.980  1.00  0.00     0.122 C 
BRANCH  18  19
HETATM   19  N5  UNL     1     -16.121  14.299  30.026  1.00  0.00    -0.367 N 
HETATM   20  C24 UNL     1     -16.772  14.819  30.991  1.00  0.00     0.196 C 
HETATM   21  N6  UNL     1     -18.201  14.737  30.958  1.00  0.00    -0.067 NA
HETATM   22  N7  UNL     1     -16.155  15.463  32.075  1.00  0.00    -0.067 NA
ATOM     23  H5  UNL     1     -16.632  13.846  29.268  1.00  0.00     0.161 HD
ENDBRANCH  18  19
ENDBRANCH  17  18
ENDBRANCH  16  17
ENDBRANCH  15  16
BRANCH  15  24
HETATM   24  C25 UNL     1     -12.766  14.604  32.911  1.00  0.00     0.254 C 
HETATM   25  N8  UNL     1     -12.878  13.416  33.698  1.00  0.00    -0.060 NA
HETATM   26  O6  UNL     1     -13.027  15.695  33.463  1.00  0.00    -0.275 OA
ENDBRANCH  15  24
ENDBRANCH  13  15
ENDBRANCH   5  11
ENDBRANCH   3   5
BRANCH   1  27
HETATM   27  C13 UNL     1      -7.302  17.568  27.708  1.00  0.00     0.014 C 
BRANCH  27  28
HETATM   28  C12 UNL     1      -8.427  18.520  27.531  1.00  0.00     0.078 C 
BRANCH  28  29
HETATM   29  C11 UNL     1      -9.706  18.091  26.977  1.00  0.00     0.145 C 
BRANCH  29  30
HETATM   30  C3  UNL     1      -9.778  16.751  26.300  1.00  0.00     0.113 C 
BRANCH  30  31
HETATM   31  N1  UNL     1     -10.868  15.941  26.809  1.00  0.00    -0.354 N 
HETATM   32  C2  UNL     1     -10.663  14.571  27.134  1.00  0.00     0.214 C 
HETATM   33  C1  UNL     1     -11.757  13.704  27.658  1.00  0.00     0.117 C 
HETATM   34  O1  UNL     1      -9.512  14.096  26.968  1.00  0.00    -0.274 OA
ATOM     35  H1  UNL     1     -11.791  16.356  26.934  1.00  0.00     0.162 HD
ENDBRANCH  30  31
BRANCH  30  36
HETATM   36  C4  UNL     1      -9.758  16.934  24.828  1.00  0.00     0.032 C 
BRANCH  36  37
HETATM   37  C5  UNL     1      -8.521  16.587  24.089  1.00  0.00    -0.013 C 
HETATM   38  C6  UNL     1      -7.796  17.697  23.420  1.00  0.00     0.005 C 
HETATM   39  C7  UNL     1      -7.163  17.143  22.136  1.00  0.00     0.000 C 
HETATM   40  C8  UNL     1      -8.240  16.940  21.119  1.00  0.00     0.000 C 
HETATM   41  C9  UNL     1      -9.431  16.298  21.778  1.00  0.00     0.000 C 
HETATM   42  C10 UNL     1      -8.944  15.579  23.002  1.00  0.00     0.005 C 
ENDBRANCH  36  37
ENDBRANCH  30  36
ENDBRANCH  29  30
BRANCH  29  43
HETATM   43  O2  UNL     1     -10.698  18.171  27.983  1.00  0.00    -0.393 OA
ATOM     44  H2  UNL     1     -10.408  17.701  28.756  1.00  0.00     0.210 HD
ENDBRANCH  29  43
ENDBRANCH  28  29
ENDBRANCH  27  28
BRANCH  27  45
HETATM   45  C26 UNL     1      -5.932  18.092  27.796  1.00  0.00    -0.076 C 
HETATM   46  C27 UNL     1      -5.684  19.532  27.518  1.00  0.00     0.044 C 
HETATM   47  C28 UNL     1      -4.812  17.217  27.283  1.00  0.00     0.044 C 
ENDBRANCH  27  45
ENDBRANCH   1  27
TORSDOF 20
ENDMDL
