MODEL 3
REMARK VINA RESULT: -8.275606000      4.066     10.259
REMARK  20 active torsions:
REMARK  status: ('A' for Active; 'I' for Inactive)
REMARK       I    between atoms: C2_2  and  N1_4 
REMARK    1  A    between atoms: N1_4  and  C3_6 
REMARK    2  A    between atoms: C3_6  and  C4_7 
REMARK    3  A    between atoms: C3_6  and  C11_14 
REMARK    4  A    between atoms: C4_7  and  C5_8 
REMARK    5  A    between atoms: C11_14  and  O2_15 
REMARK    6  A    between atoms: C11_14  and  C12_17 
REMARK    7  A    between atoms: C12_17  and  C13_18 
REMARK    8  A    between atoms: C13_18  and  C14_19 
REMARK    9  A    between atoms: C13_18  and  C26_45 
REMARK       I    between atoms: C14_19  and  N2_21 
REMARK   10  A    between atoms: N2_21  and  C15_23 
REMARK   11  A    between atoms: C15_23  and  C16_24 
REMARK   12  A    between atoms: C15_23  and  C19_29 
REMARK   13  A    between atoms: C16_24  and  C17_25 
REMARK   14  A    between atoms: C17_25  and  C18_26 
REMARK       I    between atoms: C19_29  and  N4_31 
REMARK   15  A    between atoms: N4_31  and  C20_33 
REMARK   16  A    between atoms: C20_33  and  C21_34 
REMARK   17  A    between atoms: C20_33  and  C25_42 
REMARK   18  A    between atoms: C21_34  and  C22_35 
REMARK   19  A    between atoms: C22_35  and  C23_36 
REMARK   20  A    between atoms: C23_36  and  N5_37 
ROOT
HETATM    1  C14 UNL     1      -7.673  16.583  28.657  1.00  0.00     0.248 C 
HETATM    2  O3  UNL     1      -7.438  15.324  28.446  1.00  0.00    -0.268 OA
HETATM    3  N2  UNL     1      -8.254  16.901  29.897  1.00  0.00    -0.344 N 
ATOM      4  H2  UNL     1      -8.426  17.882  30.116  1.00  0.00     0.163 HD
ENDROOT
BRANCH   3   5
HETATM    5  C15 UNL     1      -8.615  15.910  30.872  1.00  0.00     0.177 C 
BRANCH   5   6
HETATM    6  C16 UNL     1      -8.104  16.113  32.227  1.00  0.00     0.043 C 
BRANCH   6   7
HETATM    7  C17 UNL     1      -8.822  17.012  33.161  1.00  0.00     0.102 C 
BRANCH   7   8
HETATM    8  C18 UNL     1      -9.561  16.363  34.232  1.00  0.00     0.231 C 
HETATM    9  N3  UNL     1      -9.373  15.011  34.571  1.00  0.00    -0.062 NA
HETATM   10  O4  UNL     1     -10.390  17.051  34.869  1.00  0.00    -0.277 OA
ENDBRANCH   7   8
ENDBRANCH   6   7
ENDBRANCH   5   6
BRANCH   5  11
HETATM   11  C19 UNL     1     -10.094  15.680  30.837  1.00  0.00     0.241 C 
HETATM   12  O5  UNL     1     -10.842  16.482  30.224  1.00  0.00    -0.271 OA
HETATM   13  N4  UNL     1     -10.696  14.575  31.482  1.00  0.00    -0.346 N 
ATOM     14  H4  UNL     1     -10.109  13.908  31.984  1.00  0.00     0.163 HD
BRANCH  13  15
HETATM   15  C20 UNL     1     -12.159  14.364  31.443  1.00  0.00     0.173 C 
BRANCH  15  16
HETATM   16  C21 UNL     1     -12.457  13.000  30.912  1.00  0.00     0.036 C 
BRANCH  16  17
HETATM   17  C22 UNL     1     -13.891  12.606  30.890  1.00  0.00     0.022 C 
BRANCH  17  18
HETATM   18  C23 UNL     1     -14.088  11.189  31.442  1.00  0.00     0.122 C 
BRANCH  18  19
HETATM   19  N5  UNL     1     -13.151  10.937  32.516  1.00  0.00    -0.367 N 
HETATM   20  C24 UNL     1     -13.453  10.191  33.505  1.00  0.00     0.196 C 
HETATM   21  N6  UNL     1     -12.466   9.995  34.523  1.00  0.00    -0.067 NA
HETATM   22  N7  UNL     1     -14.698   9.557  33.637  1.00  0.00    -0.067 NA
ATOM     23  H5  UNL     1     -12.227  11.367  32.481  1.00  0.00     0.161 HD
ENDBRANCH  18  19
ENDBRANCH  17  18
ENDBRANCH  16  17
ENDBRANCH  15  16
BRANCH  15  24
HETATM   24  C25 UNL     1     -12.576  14.472  32.879  1.00  0.00     0.254 C 
HETATM   25  N8  UNL     1     -13.259  15.651  33.310  1.00  0.00    -0.060 NA
HETATM   26  O6  UNL     1     -12.356  13.583  33.729  1.00  0.00    -0.275 OA
ENDBRANCH  15  24
ENDBRANCH  13  15
ENDBRANCH   5  11
ENDBRANCH   3   5
BRANCH   1  27
HETATM   27  C13 UNL     1      -7.341  17.553  27.616  1.00  0.00     0.014 C 
BRANCH  27  28
HETATM   28  C12 UNL     1      -8.490  18.475  27.425  1.00  0.00     0.078 C 
BRANCH  28  29
HETATM   29  C11 UNL     1      -9.775  17.995  26.931  1.00  0.00     0.145 C 
BRANCH  29  30
HETATM   30  C3  UNL     1      -9.827  16.651  26.261  1.00  0.00     0.113 C 
BRANCH  30  31
HETATM   31  N1  UNL     1     -10.965  15.866  26.697  1.00  0.00    -0.354 N 
HETATM   32  C2  UNL     1     -10.794  14.528  27.149  1.00  0.00     0.214 C 
HETATM   33  C1  UNL     1     -11.939  13.688  27.604  1.00  0.00     0.117 C 
HETATM   34  O1  UNL     1      -9.629  14.058  27.157  1.00  0.00    -0.274 OA
ATOM     35  H1  UNL     1     -11.899  16.277  26.680  1.00  0.00     0.162 HD
ENDBRANCH  30  31
BRANCH  30  36
HETATM   36  C4  UNL     1      -9.699  16.820  24.792  1.00  0.00     0.032 C 
BRANCH  36  37
HETATM   37  C5  UNL     1      -8.377  16.588  24.165  1.00  0.00    -0.013 C 
HETATM   38  C6  UNL     1      -7.560  17.785  23.841  1.00  0.00     0.005 C 
HETATM   39  C7  UNL     1      -6.764  17.483  22.563  1.00  0.00     0.000 C 
HETATM   40  C8  UNL     1      -7.695  17.530  21.395  1.00  0.00     0.000 C 
HETATM   41  C9  UNL     1      -8.970  16.810  21.746  1.00  0.00     0.000 C 
HETATM   42  C10 UNL     1      -8.658  15.839  22.847  1.00  0.00     0.005 C 
ENDBRANCH  36  37
ENDBRANCH  30  36
ENDBRANCH  29  30
BRANCH  29  43
HETATM   43  O2  UNL     1     -10.722  18.040  27.982  1.00  0.00    -0.393 OA
ATOM     44  H2  UNL     1     -11.108  18.907  28.027  1.00  0.00     0.210 HD
ENDBRANCH  29  43
ENDBRANCH  28  29
ENDBRANCH  27  28
BRANCH  27  45
HETATM   45  C26 UNL     1      -5.981  18.107  27.645  1.00  0.00    -0.076 C 
HETATM   46  C27 UNL     1      -5.732  19.459  27.075  1.00  0.00     0.044 C 
HETATM   47  C28 UNL     1      -4.833  17.162  27.379  1.00  0.00     0.044 C 
ENDBRANCH  27  45
ENDBRANCH   1  27
TORSDOF 20
ENDMDL
