MODEL 1
REMARK VINA RESULT: -8.979618995      0.000      0.000
REMARK  20 active torsions:
REMARK  status: ('A' for Active; 'I' for Inactive)
REMARK       I    between atoms: C2_2  and  N1_4 
REMARK    1  A    between atoms: N1_4  and  C3_6 
REMARK    2  A    between atoms: C3_6  and  C4_7 
REMARK    3  A    between atoms: C3_6  and  C11_14 
REMARK    4  A    between atoms: C4_7  and  C5_8 
REMARK    5  A    between atoms: C11_14  and  O2_15 
REMARK    6  A    between atoms: C11_14  and  C12_17 
REMARK    7  A    between atoms: C12_17  and  C13_18 
REMARK    8  A    between atoms: C13_18  and  C14_19 
REMARK    9  A    between atoms: C13_18  and  C26_45 
REMARK       I    between atoms: C14_19  and  N2_21 
REMARK   10  A    between atoms: N2_21  and  C15_23 
REMARK   11  A    between atoms: C15_23  and  C16_24 
REMARK   12  A    between atoms: C15_23  and  C19_29 
REMARK   13  A    between atoms: C16_24  and  C17_25 
REMARK   14  A    between atoms: C17_25  and  C18_26 
REMARK       I    between atoms: C19_29  and  N4_31 
REMARK   15  A    between atoms: N4_31  and  C20_33 
REMARK   16  A    between atoms: C20_33  and  C21_34 
REMARK   17  A    between atoms: C20_33  and  C25_42 
REMARK   18  A    between atoms: C21_34  and  C22_35 
REMARK   19  A    between atoms: C22_35  and  C23_36 
REMARK   20  A    between atoms: C23_36  and  N5_37 
ROOT
HETATM    1  C14 UNL     1      -9.446  14.890  26.998  1.00  0.00     0.248 C 
HETATM    2  O3  UNL     1      -8.394  14.153  27.197  1.00  0.00    -0.268 OA
HETATM    3  N2  UNL     1      -9.461  15.627  25.801  1.00  0.00    -0.344 N 
ATOM      4  H2  UNL     1     -10.284  16.194  25.591  1.00  0.00     0.163 HD
ENDROOT
BRANCH   3   5
HETATM    5  C15 UNL     1      -8.377  15.621  24.860  1.00  0.00     0.177 C 
BRANCH   5   6
HETATM    6  C16 UNL     1      -8.688  15.152  23.511  1.00  0.00     0.043 C 
BRANCH   6   7
HETATM    7  C17 UNL     1      -9.487  16.002  22.597  1.00  0.00     0.102 C 
BRANCH   7   8
HETATM    8  C18 UNL     1      -8.774  16.573  21.466  1.00  0.00     0.231 C 
HETATM    9  N3  UNL     1      -9.370  17.491  20.582  1.00  0.00    -0.062 NA
HETATM   10  O4  UNL     1      -7.586  16.226  21.290  1.00  0.00    -0.277 OA
ENDBRANCH   7   8
ENDBRANCH   6   7
ENDBRANCH   5   6
BRANCH   5  11
HETATM   11  C19 UNL     1      -7.691  16.952  24.868  1.00  0.00     0.241 C 
HETATM   12  O5  UNL     1      -8.212  17.926  25.468  1.00  0.00    -0.271 OA
HETATM   13  N4  UNL     1      -6.456  17.163  24.213  1.00  0.00    -0.346 N 
ATOM     14  H4  UNL     1      -6.012  16.387  23.721  1.00  0.00     0.163 HD
BRANCH  13  15
HETATM   15  C20 UNL     1      -5.793  18.484  24.225  1.00  0.00     0.173 C 
BRANCH  15  16
HETATM   16  C21 UNL     1      -4.365  18.327  24.635  1.00  0.00     0.036 C 
BRANCH  16  17
HETATM   17  C22 UNL     1      -3.948  16.958  25.041  1.00  0.00     0.022 C 
BRANCH  17  18
HETATM   18  C23 UNL     1      -2.684  16.516  24.293  1.00  0.00     0.122 C 
BRANCH  18  19
HETATM   19  N5  UNL     1      -2.913  16.550  22.864  1.00  0.00    -0.367 N 
HETATM   20  C24 UNL     1      -2.092  16.020  22.044  1.00  0.00     0.196 C 
HETATM   21  N6  UNL     1      -2.395  16.100  20.647  1.00  0.00    -0.067 NA
HETATM   22  N7  UNL     1      -0.917  15.367  22.447  1.00  0.00    -0.067 NA
ATOM     23  H5  UNL     1      -3.749  17.009  22.505  1.00  0.00     0.161 HD
ENDBRANCH  18  19
ENDBRANCH  17  18
ENDBRANCH  16  17
ENDBRANCH  15  16
BRANCH  15  24
HETATM   24  C25 UNL     1      -5.884  18.946  22.802  1.00  0.00     0.254 C 
HETATM   25  N8  UNL     1      -4.704  18.928  21.996  1.00  0.00    -0.060 NA
HETATM   26  O6  UNL     1      -6.943  19.353  22.276  1.00  0.00    -0.275 OA
ENDBRANCH  15  24
ENDBRANCH  13  15
ENDBRANCH   5  11
ENDBRANCH   3   5
BRANCH   1  27
HETATM   27  C13 UNL     1     -10.502  14.909  28.007  1.00  0.00     0.014 C 
BRANCH  27  28
HETATM   28  C12 UNL     1     -11.125  16.257  28.032  1.00  0.00     0.078 C 
BRANCH  28  29
HETATM   29  C11 UNL     1     -10.395  17.424  28.511  1.00  0.00     0.145 C 
BRANCH  29  30
HETATM   30  C3  UNL     1      -9.075  17.209  29.197  1.00  0.00     0.113 C 
BRANCH  30  31
HETATM   31  N1  UNL     1      -8.068  18.153  28.753  1.00  0.00    -0.354 N 
HETATM   32  C2  UNL     1      -6.786  17.702  28.333  1.00  0.00     0.214 C 
HETATM   33  C1  UNL     1      -5.723  18.641  27.871  1.00  0.00     0.117 C 
HETATM   34  O1  UNL     1      -6.563  16.467  28.359  1.00  0.00    -0.274 OA
ATOM     35  H1  UNL     1      -8.281  19.151  28.741  1.00  0.00     0.162 HD
ENDBRANCH  30  31
BRANCH  30  36
HETATM   36  C4  UNL     1      -9.281  17.146  30.665  1.00  0.00     0.032 C 
BRANCH  36  37
HETATM   37  C5  UNL     1      -8.479  16.179  31.451  1.00  0.00    -0.013 C 
HETATM   38  C6  UNL     1      -9.142  14.910  31.845  1.00  0.00     0.005 C 
HETATM   39  C7  UNL     1      -8.589  14.493  33.216  1.00  0.00     0.000 C 
HETATM   40  C8  UNL     1      -9.178  15.383  34.262  1.00  0.00     0.000 C 
HETATM   41  C9  UNL     1      -9.151  16.807  33.776  1.00  0.00     0.000 C 
HETATM   42  C10 UNL     1      -8.071  16.917  32.742  1.00  0.00     0.005 C 
ENDBRANCH  36  37
ENDBRANCH  30  36
ENDBRANCH  29  30
BRANCH  29  43
HETATM   43  O2  UNL     1     -10.233  18.340  27.443  1.00  0.00    -0.393 OA
ATOM     44  H2  UNL     1     -10.763  18.065  26.704  1.00  0.00     0.210 HD
ENDBRANCH  29  43
ENDBRANCH  28  29
ENDBRANCH  27  28
BRANCH  27  45
HETATM   45  C26 UNL     1     -11.365  13.723  28.076  1.00  0.00    -0.076 C 
HETATM   46  C27 UNL     1     -12.301  13.436  26.956  1.00  0.00     0.044 C 
HETATM   47  C28 UNL     1     -11.964  13.369  29.417  1.00  0.00     0.044 C 
ENDBRANCH  27  45
ENDBRANCH   1  27
TORSDOF 20
ENDMDL
