MODEL 2
REMARK VINA RESULT: -6.380251115      5.576     14.796
REMARK  20 active torsions:
REMARK  status: ('A' for Active; 'I' for Inactive)
REMARK    1  A    between atoms: O1_1  and  C1_3 
REMARK    2  A    between atoms: C3_6  and  O3_7 
REMARK    3  A    between atoms: O3_7  and  C4_8 
REMARK    4  A    between atoms: C6_11  and  O5_12 
REMARK    5  A    between atoms: O5_12  and  C7_13 
REMARK    6  A    between atoms: C9_16  and  O7_17 
REMARK    7  A    between atoms: O7_17  and  C10_18 
REMARK    8  A    between atoms: C12_21  and  O9_22 
REMARK    9  A    between atoms: O9_22  and  C13_23 
REMARK   10  A    between atoms: C15_26  and  O11_27 
REMARK   11  A    between atoms: C16_29  and  O12_30 
REMARK   12  A    between atoms: C17_32  and  O13_33 
REMARK   13  A    between atoms: C18_35  and  O14_36 
REMARK   14  A    between atoms: C19_38  and  O15_39 
REMARK   15  A    between atoms: C20_41  and  O16_42 
REMARK   16  A    between atoms: C21_44  and  O17_45 
REMARK   17  A    between atoms: C22_47  and  O18_48 
REMARK   18  A    between atoms: C23_50  and  O19_51 
REMARK   19  A    between atoms: C24_53  and  O20_54 
REMARK   20  A    between atoms: C25_56  and  O21_57 
ROOT
HETATM    1  C7  UNL     1      36.679   2.654   7.264  1.00  0.00     0.180 C 
HETATM    2  C8  UNL     1      37.584   2.732   6.051  1.00  0.00     0.205 C 
HETATM    3  O6  UNL     1      37.427   4.017   5.524  1.00  0.00    -0.356 OA
HETATM    4  C9  UNL     1      38.249   4.910   6.266  1.00  0.00     0.291 C 
HETATM    5  C20 UNL     1      38.021   4.635   7.733  1.00  0.00     0.204 C 
HETATM    6  C21 UNL     1      36.645   3.987   7.946  1.00  0.00     0.182 C 
ENDROOT
BRANCH   1   7
HETATM    7  O5  UNL     1      35.430   2.126   6.971  1.00  0.00    -0.348 OA
BRANCH   7   8
HETATM    8  C6  UNL     1      34.491   3.119   6.697  1.00  0.00     0.291 C 
HETATM    9  O4  UNL     1      34.387   3.438   5.360  1.00  0.00    -0.356 OA
HETATM   10  C5  UNL     1      33.181   3.093   4.766  1.00  0.00     0.205 C 
HETATM   11  C4  UNL     1      31.981   3.713   5.437  1.00  0.00     0.180 C 
HETATM   12  C23 UNL     1      32.101   3.594   6.904  1.00  0.00     0.182 C 
HETATM   13  C22 UNL     1      33.183   2.610   7.261  1.00  0.00     0.204 C 
BRANCH  11  14
HETATM   14  O3  UNL     1      30.850   3.131   4.879  1.00  0.00    -0.348 OA
BRANCH  14  15
HETATM   15  C3  UNL     1      30.121   3.962   4.086  1.00  0.00     0.291 C 
HETATM   16  O2  UNL     1      30.310   3.676   2.756  1.00  0.00    -0.356 OA
HETATM   17  C2  UNL     1      29.630   2.572   2.311  1.00  0.00     0.205 C 
HETATM   18  C1  UNL     1      28.140   2.681   2.563  1.00  0.00     0.173 C 
HETATM   19  C25 UNL     1      27.986   2.782   4.087  1.00  0.00     0.182 C 
HETATM   20  C24 UNL     1      28.666   4.086   4.459  1.00  0.00     0.204 C 
BRANCH  18  21
HETATM   21  O1  UNL     1      27.452   1.570   2.127  1.00  0.00    -0.391 OA
ATOM     22  H1  UNL     1      26.538   1.758   1.949  1.00  0.00     0.210 HD
ENDBRANCH  18  21
BRANCH  19  23
HETATM   23  O21 UNL     1      26.600   2.897   4.318  1.00  0.00    -0.390 OA
ATOM     24  H21 UNL     1      26.411   3.827   4.275  1.00  0.00     0.210 HD
ENDBRANCH  19  23
BRANCH  20  25
HETATM   25  O20 UNL     1      28.449   4.452   5.761  1.00  0.00    -0.388 OA
ATOM     26  H20 UNL     1      29.042   4.048   6.384  1.00  0.00     0.210 HD
ENDBRANCH  20  25
ENDBRANCH  14  15
ENDBRANCH  11  14
BRANCH  12  27
HETATM   27  O19 UNL     1      30.912   3.064   7.419  1.00  0.00    -0.390 OA
ATOM     28  H19 UNL     1      30.729   2.237   6.989  1.00  0.00     0.210 HD
ENDBRANCH  12  27
BRANCH  13  29
HETATM   29  O18 UNL     1      32.826   1.356   6.809  1.00  0.00    -0.388 OA
ATOM     30  H18 UNL     1      31.934   1.301   6.484  1.00  0.00     0.210 HD
ENDBRANCH  13  29
ENDBRANCH   7   8
ENDBRANCH   1   7
BRANCH   6  31
HETATM   31  O17 UNL     1      36.400   3.884   9.296  1.00  0.00    -0.390 OA
ATOM     32  H17 UNL     1      35.923   4.631   9.638  1.00  0.00     0.210 HD
ENDBRANCH   6  31
BRANCH   5  33
HETATM   33  O16 UNL     1      38.008   5.776   8.519  1.00  0.00    -0.388 OA
ATOM     34  H16 UNL     1      37.697   6.550   8.065  1.00  0.00     0.210 HD
ENDBRANCH   5  33
BRANCH   4  35
HETATM   35  O7  UNL     1      37.836   6.168   5.955  1.00  0.00    -0.348 OA
BRANCH  35  36
HETATM   36  C10 UNL     1      38.652   6.916   5.164  1.00  0.00     0.180 C 
HETATM   37  C11 UNL     1      38.005   7.259   3.839  1.00  0.00     0.205 C 
HETATM   38  O8  UNL     1      37.554   8.578   3.866  1.00  0.00    -0.356 OA
HETATM   39  C12 UNL     1      38.564   9.497   3.900  1.00  0.00     0.291 C 
HETATM   40  C18 UNL     1      39.549   9.218   4.977  1.00  0.00     0.204 C 
HETATM   41  C19 UNL     1      38.957   8.211   5.935  1.00  0.00     0.182 C 
BRANCH  39  42
HETATM   42  O9  UNL     1      38.033  10.780   3.951  1.00  0.00    -0.348 OA
BRANCH  42  43
HETATM   43  C13 UNL     1      36.801  10.887   3.349  1.00  0.00     0.180 C 
HETATM   44  C14 UNL     1      37.032  11.460   1.942  1.00  0.00     0.205 C 
HETATM   45  O10 UNL     1      35.870  11.257   1.195  1.00  0.00    -0.356 OA
HETATM   46  C15 UNL     1      34.723  11.552   1.918  1.00  0.00     0.288 C 
HETATM   47  C16 UNL     1      35.005  12.567   3.006  1.00  0.00     0.204 C 
HETATM   48  C17 UNL     1      35.911  11.893   4.044  1.00  0.00     0.182 C 
BRANCH  46  49
HETATM   49  O11 UNL     1      34.138  10.450   2.517  1.00  0.00    -0.369 OA
ATOM     50  H11 UNL     1      33.280  10.234   2.171  1.00  0.00     0.212 HD
ENDBRANCH  46  49
BRANCH  47  51
HETATM   51  O12 UNL     1      33.783  12.939   3.560  1.00  0.00    -0.388 OA
ATOM     52  H12 UNL     1      33.776  13.886   3.630  1.00  0.00     0.210 HD
ENDBRANCH  47  51
BRANCH  48  53
HETATM   53  O13 UNL     1      36.718  12.918   4.557  1.00  0.00    -0.390 OA
ATOM     54  H13 UNL     1      36.212  13.722   4.565  1.00  0.00     0.210 HD
ENDBRANCH  48  53
ENDBRANCH  42  43
ENDBRANCH  39  42
BRANCH  40  55
HETATM   55  O14 UNL     1      39.832  10.361   5.754  1.00  0.00    -0.388 OA
ATOM     56  H14 UNL     1      39.044  10.804   6.044  1.00  0.00     0.210 HD
ENDBRANCH  40  55
BRANCH  41  57
HETATM   57  O15 UNL     1      39.889   7.879   6.932  1.00  0.00    -0.390 OA
ATOM     58  H15 UNL     1      40.716   8.273   6.676  1.00  0.00     0.210 HD
ENDBRANCH  41  57
ENDBRANCH  35  36
ENDBRANCH   4  35
TORSDOF 20
ENDMDL
