MODEL 1
REMARK VINA RESULT: -6.441207485      0.000      0.000
REMARK  20 active torsions:
REMARK  status: ('A' for Active; 'I' for Inactive)
REMARK    1  A    between atoms: O1_1  and  C1_3 
REMARK    2  A    between atoms: C3_6  and  O3_7 
REMARK    3  A    between atoms: O3_7  and  C4_8 
REMARK    4  A    between atoms: C6_11  and  O5_12 
REMARK    5  A    between atoms: O5_12  and  C7_13 
REMARK    6  A    between atoms: C9_16  and  O7_17 
REMARK    7  A    between atoms: O7_17  and  C10_18 
REMARK    8  A    between atoms: C12_21  and  O9_22 
REMARK    9  A    between atoms: O9_22  and  C13_23 
REMARK   10  A    between atoms: C15_26  and  O11_27 
REMARK   11  A    between atoms: C16_29  and  O12_30 
REMARK   12  A    between atoms: C17_32  and  O13_33 
REMARK   13  A    between atoms: C18_35  and  O14_36 
REMARK   14  A    between atoms: C19_38  and  O15_39 
REMARK   15  A    between atoms: C20_41  and  O16_42 
REMARK   16  A    between atoms: C21_44  and  O17_45 
REMARK   17  A    between atoms: C22_47  and  O18_48 
REMARK   18  A    between atoms: C23_50  and  O19_51 
REMARK   19  A    between atoms: C24_53  and  O20_54 
REMARK   20  A    between atoms: C25_56  and  O21_57 
ROOT
HETATM    1  C7  UNL     1      25.434   4.063   4.865  1.00  0.00     0.180 C 
HETATM    2  C8  UNL     1      24.909   3.566   3.534  1.00  0.00     0.205 C 
HETATM    3  O6  UNL     1      24.549   2.229   3.726  1.00  0.00    -0.356 OA
HETATM    4  C9  UNL     1      23.253   2.194   4.314  1.00  0.00     0.291 C 
HETATM    5  C20 UNL     1      23.240   3.179   5.458  1.00  0.00     0.204 C 
HETATM    6  C21 UNL     1      24.667   3.414   5.975  1.00  0.00     0.182 C 
ENDROOT
BRANCH   1   7
HETATM    7  O5  UNL     1      26.812   3.953   4.976  1.00  0.00    -0.348 OA
BRANCH   7   8
HETATM    8  C6  UNL     1      27.454   4.146   3.754  1.00  0.00     0.291 C 
HETATM    9  O4  UNL     1      28.029   5.391   3.614  1.00  0.00    -0.356 OA
HETATM   10  C5  UNL     1      29.417   5.395   3.564  1.00  0.00     0.205 C 
HETATM   11  C4  UNL     1      29.981   4.547   2.450  1.00  0.00     0.180 C 
HETATM   12  C23 UNL     1      29.278   3.249   2.394  1.00  0.00     0.182 C 
HETATM   13  C22 UNL     1      28.476   3.036   3.650  1.00  0.00     0.204 C 
BRANCH  11  14
HETATM   14  O3  UNL     1      31.354   4.478   2.640  1.00  0.00    -0.348 OA
BRANCH  14  15
HETATM   15  C3  UNL     1      31.792   5.032   3.804  1.00  0.00     0.291 C 
HETATM   16  O2  UNL     1      32.145   4.067   4.715  1.00  0.00    -0.356 OA
HETATM   17  C2  UNL     1      33.361   3.481   4.477  1.00  0.00     0.205 C 
HETATM   18  C1  UNL     1      34.481   4.500   4.411  1.00  0.00     0.173 C 
HETATM   19  C25 UNL     1      34.132   5.420   3.233  1.00  0.00     0.182 C 
HETATM   20  C24 UNL     1      32.841   6.103   3.645  1.00  0.00     0.204 C 
BRANCH  18  21
HETATM   21  O1  UNL     1      35.705   3.919   4.163  1.00  0.00    -0.391 OA
ATOM     22  H1  UNL     1      36.427   4.514   4.324  1.00  0.00     0.210 HD
ENDBRANCH  18  21
BRANCH  19  23
HETATM   23  O21 UNL     1      35.167   6.375   3.181  1.00  0.00    -0.390 OA
ATOM     24  H21 UNL     1      34.898   7.006   2.524  1.00  0.00     0.210 HD
ENDBRANCH  19  23
BRANCH  20  25
HETATM   25  O20 UNL     1      32.481   7.122   2.803  1.00  0.00    -0.388 OA
ATOM     26  H20 UNL     1      32.574   6.917   1.880  1.00  0.00     0.210 HD
ENDBRANCH  20  25
ENDBRANCH  14  15
ENDBRANCH  11  14
BRANCH  12  27
HETATM   27  O19 UNL     1      30.225   2.218   2.362  1.00  0.00    -0.390 OA
ATOM     28  H19 UNL     1      29.861   1.448   2.785  1.00  0.00     0.210 HD
ENDBRANCH  12  27
BRANCH  13  29
HETATM   29  O18 UNL     1      29.331   2.955   4.730  1.00  0.00    -0.388 OA
ATOM     30  H18 UNL     1      30.244   2.840   4.493  1.00  0.00     0.210 HD
ENDBRANCH  13  29
ENDBRANCH   7   8
ENDBRANCH   1   7
BRANCH   6  31
HETATM   31  O17 UNL     1      24.614   4.195   7.107  1.00  0.00    -0.390 OA
ATOM     32  H17 UNL     1      23.800   4.088   7.586  1.00  0.00     0.210 HD
ENDBRANCH   6  31
BRANCH   5  33
HETATM   33  O16 UNL     1      22.524   2.743   6.562  1.00  0.00    -0.388 OA
ATOM     34  H16 UNL     1      21.601   2.969   6.533  1.00  0.00     0.210 HD
ENDBRANCH   5  33
BRANCH   4  35
HETATM   35  O7  UNL     1      23.072   0.930   4.782  1.00  0.00    -0.348 OA
BRANCH  35  36
HETATM   36  C10 UNL     1      21.829   0.391   4.663  1.00  0.00     0.180 C 
HETATM   37  C11 UNL     1      21.606  -0.234   3.302  1.00  0.00     0.205 C 
HETATM   38  O8  UNL     1      21.716  -1.621   3.401  1.00  0.00    -0.356 OA
HETATM   39  C12 UNL     1      20.704  -2.197   4.116  1.00  0.00     0.291 C 
HETATM   40  C18 UNL     1      20.505  -1.554   5.440  1.00  0.00     0.204 C 
HETATM   41  C19 UNL     1      21.706  -0.689   5.750  1.00  0.00     0.182 C 
BRANCH  39  42
HETATM   42  O9  UNL     1      20.901  -3.571   4.189  1.00  0.00    -0.348 OA
BRANCH  42  43
HETATM   43  C13 UNL     1      22.200  -3.952   3.941  1.00  0.00     0.180 C 
HETATM   44  C14 UNL     1      22.143  -5.190   3.033  1.00  0.00     0.205 C 
HETATM   45  O10 UNL     1      23.415  -5.388   2.489  1.00  0.00    -0.356 OA
HETATM   46  C15 UNL     1      24.419  -5.225   3.433  1.00  0.00     0.288 C 
HETATM   47  C16 UNL     1      23.913  -5.514   4.830  1.00  0.00     0.204 C 
HETATM   48  C17 UNL     1      22.909  -4.413   5.195  1.00  0.00     0.182 C 
BRANCH  46  49
HETATM   49  O11 UNL     1      24.979  -3.960   3.444  1.00  0.00    -0.369 OA
ATOM     50  H11 UNL     1      25.848  -3.927   3.828  1.00  0.00     0.212 HD
ENDBRANCH  46  49
BRANCH  47  51
HETATM   51  O12 UNL     1      25.012  -5.504   5.685  1.00  0.00    -0.388 OA
ATOM     52  H12 UNL     1      24.902  -6.219   6.302  1.00  0.00     0.210 HD
ENDBRANCH  47  51
BRANCH  48  53
HETATM   53  O13 UNL     1      21.970  -5.028   6.034  1.00  0.00    -0.390 OA
ATOM     54  H13 UNL     1      22.392  -5.231   6.860  1.00  0.00     0.210 HD
ENDBRANCH  48  53
ENDBRANCH  42  43
ENDBRANCH  39  42
BRANCH  40  55
HETATM   55  O14 UNL     1      20.435  -2.495   6.488  1.00  0.00    -0.388 OA
ATOM     56  H14 UNL     1      21.289  -2.832   6.728  1.00  0.00     0.210 HD
ENDBRANCH  40  55
BRANCH  41  57
HETATM   57  O15 UNL     1      21.520  -0.017   6.970  1.00  0.00    -0.390 OA
ATOM     58  H15 UNL     1      22.266  -0.231   7.517  1.00  0.00     0.210 HD
ENDBRANCH  41  57
ENDBRANCH  35  36
ENDBRANCH   4  35
TORSDOF 20
ENDMDL
