MODEL 3
REMARK VINA RESULT: -6.282405857      3.420     11.578
REMARK  20 active torsions:
REMARK  status: ('A' for Active; 'I' for Inactive)
REMARK    1  A    between atoms: O1_1  and  C1_3 
REMARK    2  A    between atoms: C3_6  and  O3_7 
REMARK    3  A    between atoms: O3_7  and  C4_8 
REMARK    4  A    between atoms: C6_11  and  O5_12 
REMARK    5  A    between atoms: O5_12  and  C7_13 
REMARK    6  A    between atoms: C9_16  and  O7_17 
REMARK    7  A    between atoms: O7_17  and  C10_18 
REMARK    8  A    between atoms: C12_21  and  O9_22 
REMARK    9  A    between atoms: O9_22  and  C13_23 
REMARK   10  A    between atoms: C15_26  and  O11_27 
REMARK   11  A    between atoms: C16_29  and  O12_30 
REMARK   12  A    between atoms: C17_32  and  O13_33 
REMARK   13  A    between atoms: C18_35  and  O14_36 
REMARK   14  A    between atoms: C19_38  and  O15_39 
REMARK   15  A    between atoms: C20_41  and  O16_42 
REMARK   16  A    between atoms: C21_44  and  O17_45 
REMARK   17  A    between atoms: C22_47  and  O18_48 
REMARK   18  A    between atoms: C23_50  and  O19_51 
REMARK   19  A    between atoms: C24_53  and  O20_54 
REMARK   20  A    between atoms: C25_56  and  O21_57 
ROOT
HETATM    1  C7  UNL     1      25.031   2.732   3.123  1.00  0.00     0.180 C 
HETATM    2  C8  UNL     1      25.503   3.533   1.927  1.00  0.00     0.205 C 
HETATM    3  O6  UNL     1      26.878   3.718   2.094  1.00  0.00    -0.356 OA
HETATM    4  C9  UNL     1      27.546   2.545   1.643  1.00  0.00     0.291 C 
HETATM    5  C20 UNL     1      26.839   1.353   2.243  1.00  0.00     0.204 C 
HETATM    6  C21 UNL     1      26.099   1.762   3.525  1.00  0.00     0.182 C 
ENDROOT
BRANCH   1   7
HETATM    7  O5  UNL     1      24.560   3.530   4.155  1.00  0.00    -0.348 OA
BRANCH   7   8
HETATM    8  C6  UNL     1      23.177   3.439   4.300  1.00  0.00     0.291 C 
HETATM    9  O4  UNL     1      22.681   2.163   4.143  1.00  0.00    -0.356 OA
HETATM   10  C5  UNL     1      22.150   1.593   5.292  1.00  0.00     0.205 C 
HETATM   11  C4  UNL     1      21.034   2.402   5.904  1.00  0.00     0.180 C 
HETATM   12  C23 UNL     1      21.400   3.833   5.934  1.00  0.00     0.182 C 
HETATM   13  C22 UNL     1      22.873   3.999   5.672  1.00  0.00     0.204 C 
BRANCH  11  14
HETATM   14  O3  UNL     1      20.741   1.833   7.136  1.00  0.00    -0.348 OA
BRANCH  14  15
HETATM   15  C3  UNL     1      19.468   1.363   7.253  1.00  0.00     0.291 C 
HETATM   16  O2  UNL     1      19.441  -0.010   7.252  1.00  0.00    -0.356 OA
HETATM   17  C2  UNL     1      19.817  -0.585   8.439  1.00  0.00     0.205 C 
HETATM   18  C1  UNL     1      18.974  -0.098   9.599  1.00  0.00     0.173 C 
HETATM   19  C25 UNL     1      19.218   1.416   9.679  1.00  0.00     0.182 C 
HETATM   20  C24 UNL     1      18.666   1.966   8.377  1.00  0.00     0.204 C 
BRANCH  18  21
HETATM   21  O1  UNL     1      19.352  -0.664  10.797  1.00  0.00    -0.391 OA
ATOM     22  H1  UNL     1      18.635  -1.115  11.226  1.00  0.00     0.210 HD
ENDBRANCH  18  21
BRANCH  19  23
HETATM   23  O21 UNL     1      18.424   1.870  10.751  1.00  0.00    -0.390 OA
ATOM     24  H21 UNL     1      18.434   2.818  10.691  1.00  0.00     0.210 HD
ENDBRANCH  19  23
BRANCH  20  25
HETATM   25  O20 UNL     1      18.608   3.334   8.355  1.00  0.00    -0.388 OA
ATOM     26  H20 UNL     1      17.818   3.697   8.738  1.00  0.00     0.210 HD
ENDBRANCH  20  25
ENDBRANCH  14  15
ENDBRANCH  11  14
BRANCH  12  27
HETATM   27  O19 UNL     1      21.178   4.335   7.222  1.00  0.00    -0.390 OA
ATOM     28  H19 UNL     1      20.535   5.034   7.176  1.00  0.00     0.210 HD
ENDBRANCH  12  27
BRANCH  13  29
HETATM   29  O18 UNL     1      23.588   3.406   6.693  1.00  0.00    -0.388 OA
ATOM     30  H18 UNL     1      23.071   2.826   7.241  1.00  0.00     0.210 HD
ENDBRANCH  13  29
ENDBRANCH   7   8
ENDBRANCH   1   7
BRANCH   6  31
HETATM   31  O17 UNL     1      25.590   0.636   4.131  1.00  0.00    -0.390 OA
ATOM     32  H17 UNL     1      25.824   0.580   5.050  1.00  0.00     0.210 HD
ENDBRANCH   6  31
BRANCH   5  33
HETATM   33  O16 UNL     1      27.695   0.334   2.630  1.00  0.00    -0.388 OA
ATOM     34  H16 UNL     1      27.366  -0.189   3.352  1.00  0.00     0.210 HD
ENDBRANCH   5  33
BRANCH   4  35
HETATM   35  O7  UNL     1      28.821   2.619   2.111  1.00  0.00    -0.348 OA
BRANCH  35  36
HETATM   36  C10 UNL     1      29.105   3.611   2.996  1.00  0.00     0.180 C 
HETATM   37  C11 UNL     1      29.634   3.073   4.308  1.00  0.00     0.205 C 
HETATM   38  O8  UNL     1      31.019   3.236   4.356  1.00  0.00    -0.356 OA
HETATM   39  C12 UNL     1      31.409   4.543   4.442  1.00  0.00     0.291 C 
HETATM   40  C18 UNL     1      30.778   5.394   3.400  1.00  0.00     0.204 C 
HETATM   41  C19 UNL     1      30.172   4.503   2.340  1.00  0.00     0.182 C 
BRANCH  39  42
HETATM   42  O9  UNL     1      32.796   4.621   4.459  1.00  0.00    -0.348 OA
BRANCH  42  43
HETATM   43  C13 UNL     1      33.358   4.127   5.615  1.00  0.00     0.180 C 
HETATM   44  C14 UNL     1      34.598   4.983   5.916  1.00  0.00     0.205 C 
HETATM   45  O10 UNL     1      34.982   4.740   7.237  1.00  0.00    -0.356 OA
HETATM   46  C15 UNL     1      34.936   3.390   7.557  1.00  0.00     0.288 C 
HETATM   47  C16 UNL     1      35.118   2.527   6.326  1.00  0.00     0.204 C 
HETATM   48  C17 UNL     1      33.881   2.719   5.439  1.00  0.00     0.182 C 
BRANCH  46  49
HETATM   49  O11 UNL     1      33.760   2.998   8.171  1.00  0.00    -0.369 OA
ATOM     50  H11 UNL     1      33.443   2.147   7.890  1.00  0.00     0.212 HD
ENDBRANCH  46  49
BRANCH  47  51
HETATM   51  O12 UNL     1      35.239   1.207   6.753  1.00  0.00    -0.388 OA
ATOM     52  H12 UNL     1      34.622   0.687   6.251  1.00  0.00     0.210 HD
ENDBRANCH  47  51
BRANCH  48  53
HETATM   53  O13 UNL     1      34.341   2.579   4.123  1.00  0.00    -0.390 OA
ATOM     54  H13 UNL     1      35.290   2.605   4.131  1.00  0.00     0.210 HD
ENDBRANCH  48  53
ENDBRANCH  42  43
ENDBRANCH  39  42
BRANCH  40  55
HETATM   55  O14 UNL     1      31.719   6.200   2.725  1.00  0.00    -0.388 OA
ATOM     56  H14 UNL     1      31.323   6.975   2.345  1.00  0.00     0.210 HD
ENDBRANCH  40  55
BRANCH  41  57
HETATM   57  O15 UNL     1      29.513   5.278   1.371  1.00  0.00    -0.390 OA
ATOM     58  H15 UNL     1      30.136   5.427   0.669  1.00  0.00     0.210 HD
ENDBRANCH  41  57
ENDBRANCH  35  36
ENDBRANCH   4  35
TORSDOF 20
ENDMDL
