MODEL 8
REMARK VINA RESULT: -8.107312219      1.237      1.394
REMARK  1 active torsions:
REMARK  status: ('A' for Active; 'I' for Inactive)
REMARK    1  A    between atoms: C9_9  and  N1_10 
ROOT
HETATM    1  C1  UNL     1       5.153  64.529  62.799  1.00  0.00     0.036 C 
HETATM    2  C2  UNL     1       3.949  65.111  63.420  1.00  0.00    -0.025 C 
HETATM    3  C3  UNL     1       3.759  66.407  63.350  1.00  0.00    -0.036 C 
HETATM    4  C4  UNL     1       4.757  67.256  62.647  1.00  0.00     0.045 C 
HETATM    5  C5  UNL     1       5.347  68.128  63.735  1.00  0.00    -0.015 C 
HETATM    6  C6  UNL     1       4.525  68.494  64.709  1.00  0.00    -0.084 C 
HETATM    7  C7  UNL     1       5.154  69.191  65.876  1.00  0.00     0.043 C 
HETATM    8  C8  UNL     1       3.076  68.284  64.755  1.00  0.00     0.082 C 
HETATM    9  C9  UNL     1       2.591  67.116  63.933  1.00  0.00     0.179 C 
HETATM   10  C10 UNL     1       1.871  67.714  62.749  1.00  0.00     0.005 A 
HETATM   11  C11 UNL     1       0.513  67.771  62.684  1.00  0.00     0.017 A 
HETATM   12  C12 UNL     1      -0.074  68.332  61.570  1.00  0.00     0.075 A 
HETATM   13  C13 UNL     1       0.683  68.830  60.532  1.00  0.00     0.245 A 
HETATM   14  O1  UNL     1       0.148  69.351  59.497  1.00  0.00    -0.268 OA
HETATM   15  N2  UNL     1       2.016  68.742  60.660  1.00  0.00    -0.327 N 
ATOM     16  H2  UNL     1       2.594  69.105  59.903  1.00  0.00     0.169 HD
HETATM   17  C14 UNL     1       2.635  68.207  61.723  1.00  0.00     0.022 A 
HETATM   18  C15 UNL     1       4.115  68.205  61.675  1.00  0.00     0.070 C 
ENDROOT
BRANCH   9  19
HETATM   19  N1  UNL     1       1.735  66.275  64.703  1.00  0.00    -0.062 N 
ATOM     20  H13 UNL     1       2.219  65.417  64.968  1.00  0.00     0.276 HD
ATOM     21  H12 UNL     1       1.577  66.674  65.628  1.00  0.00     0.276 HD
ATOM     22  H11 UNL     1       0.849  66.063  64.247  1.00  0.00     0.276 HD
ENDBRANCH   9  19
TORSDOF 1
ENDMDL
