MODEL 6
REMARK VINA RESULT: -8.741874843      2.592      4.670
REMARK  1 active torsions:
REMARK  status: ('A' for Active; 'I' for Inactive)
REMARK    1  A    between atoms: C9_9  and  N1_10 
ROOT
HETATM    1  C1  UNL     1       0.974  68.826  62.736  1.00  0.00     0.036 C 
HETATM    2  C2  UNL     1       2.152  68.009  62.393  1.00  0.00    -0.025 C 
HETATM    3  C3  UNL     1       3.015  67.708  63.335  1.00  0.00    -0.036 C 
HETATM    4  C4  UNL     1       2.785  68.195  64.720  1.00  0.00     0.045 C 
HETATM    5  C5  UNL     1       3.928  69.153  64.980  1.00  0.00    -0.015 C 
HETATM    6  C6  UNL     1       5.090  68.853  64.416  1.00  0.00    -0.084 C 
HETATM    7  C7  UNL     1       6.160  69.896  64.515  1.00  0.00     0.043 C 
HETATM    8  C8  UNL     1       5.426  67.613  63.713  1.00  0.00     0.082 C 
HETATM    9  C9  UNL     1       4.239  66.894  63.121  1.00  0.00     0.179 C 
HETATM   10  C10 UNL     1       4.037  65.662  63.969  1.00  0.00     0.005 A 
HETATM   11  C11 UNL     1       4.444  64.430  63.559  1.00  0.00     0.017 A 
HETATM   12  C12 UNL     1       4.226  63.350  64.388  1.00  0.00     0.075 A 
HETATM   13  C13 UNL     1       3.608  63.496  65.611  1.00  0.00     0.245 A 
HETATM   14  O1  UNL     1       3.401  62.502  66.385  1.00  0.00    -0.268 OA
HETATM   15  N2  UNL     1       3.232  64.738  65.954  1.00  0.00    -0.327 N 
ATOM     16  H2  UNL     1       2.773  64.867  66.855  1.00  0.00     0.169 HD
HETATM   17  C14 UNL     1       3.423  65.820  65.184  1.00  0.00     0.022 A 
HETATM   18  C15 UNL     1       2.936  67.103  65.741  1.00  0.00     0.070 C 
ENDROOT
BRANCH   9  19
HETATM   19  N1  UNL     1       4.477  66.563  61.755  1.00  0.00    -0.062 N 
ATOM     20  H13 UNL     1       3.722  65.982  61.389  1.00  0.00     0.276 HD
ATOM     21  H12 UNL     1       4.363  67.384  61.161  1.00  0.00     0.276 HD
ATOM     22  H11 UNL     1       5.382  66.123  61.590  1.00  0.00     0.276 HD
ENDBRANCH   9  19
TORSDOF 1
ENDMDL
