MODEL 7
REMARK VINA RESULT: -8.673207362      2.594      4.692
REMARK  1 active torsions:
REMARK  status: ('A' for Active; 'I' for Inactive)
REMARK    1  A    between atoms: C9_9  and  N1_10 
ROOT
HETATM    1  C1  UNL     1       3.305  64.104  64.515  1.00  0.00     0.036 C 
HETATM    2  C2  UNL     1       3.868  65.134  63.623  1.00  0.00    -0.025 C 
HETATM    3  C3  UNL     1       3.463  66.377  63.748  1.00  0.00    -0.036 C 
HETATM    4  C4  UNL     1       2.451  66.715  64.783  1.00  0.00     0.045 C 
HETATM    5  C5  UNL     1       1.236  67.157  63.996  1.00  0.00    -0.015 C 
HETATM    6  C6  UNL     1       1.471  67.801  62.860  1.00  0.00    -0.084 C 
HETATM    7  C7  UNL     1       0.278  68.065  61.993  1.00  0.00     0.043 C 
HETATM    8  C8  UNL     1       2.770  68.273  62.375  1.00  0.00     0.082 C 
HETATM    9  C9  UNL     1       3.951  67.505  62.914  1.00  0.00     0.179 C 
HETATM   10  C10 UNL     1       4.640  68.433  63.884  1.00  0.00     0.005 A 
HETATM   11  C11 UNL     1       5.775  69.107  63.555  1.00  0.00     0.017 A 
HETATM   12  C12 UNL     1       6.348  69.938  64.494  1.00  0.00     0.075 A 
HETATM   13  C13 UNL     1       5.798  70.095  65.747  1.00  0.00     0.245 A 
HETATM   14  O1  UNL     1       6.321  70.862  66.623  1.00  0.00    -0.268 OA
HETATM   15  N2  UNL     1       4.678  69.402  66.006  1.00  0.00    -0.327 N 
ATOM     16  H2  UNL     1       4.255  69.504  66.928  1.00  0.00     0.169 HD
HETATM   17  C14 UNL     1       4.082  68.582  65.127  1.00  0.00     0.022 A 
HETATM   18  C15 UNL     1       2.853  67.907  65.605  1.00  0.00     0.070 C 
ENDROOT
BRANCH   9  19
HETATM   19  N1  UNL     1       4.819  67.104  61.857  1.00  0.00    -0.062 N 
ATOM     20  H13 UNL     1       4.443  66.288  61.373  1.00  0.00     0.276 HD
ATOM     21  H12 UNL     1       4.794  67.781  61.095  1.00  0.00     0.276 HD
ATOM     22  H11 UNL     1       5.779  66.934  62.157  1.00  0.00     0.276 HD
ENDBRANCH   9  19
TORSDOF 1
ENDMDL
