MODEL 1
REMARK VINA RESULT: -10.327292863      0.000      0.000
REMARK  1 active torsions:
REMARK  status: ('A' for Active; 'I' for Inactive)
REMARK    1  A    between atoms: C9_9  and  N1_10 
ROOT
HETATM    1  C1  UNL     1       4.056  64.419  65.381  1.00  0.00     0.036 C 
HETATM    2  C2  UNL     1       3.196  65.615  65.443  1.00  0.00    -0.025 C 
HETATM    3  C3  UNL     1       3.522  66.673  64.739  1.00  0.00    -0.036 C 
HETATM    4  C4  UNL     1       4.747  66.640  63.896  1.00  0.00     0.045 C 
HETATM    5  C5  UNL     1       5.667  67.665  64.523  1.00  0.00    -0.015 C 
HETATM    6  C6  UNL     1       5.086  68.732  65.056  1.00  0.00    -0.084 C 
HETATM    7  C7  UNL     1       5.977  69.645  65.842  1.00  0.00     0.043 C 
HETATM    8  C8  UNL     1       3.672  69.100  64.953  1.00  0.00     0.082 C 
HETATM    9  C9  UNL     1       2.742  67.937  64.713  1.00  0.00     0.179 C 
HETATM   10  C10 UNL     1       2.271  68.072  63.286  1.00  0.00     0.005 A 
HETATM   11  C11 UNL     1       1.041  68.564  62.977  1.00  0.00     0.017 A 
HETATM   12  C12 UNL     1       0.679  68.658  61.650  1.00  0.00     0.075 A 
HETATM   13  C13 UNL     1       1.533  68.266  60.642  1.00  0.00     0.245 A 
HETATM   14  O1  UNL     1       1.208  68.350  59.411  1.00  0.00    -0.268 OA
HETATM   15  N2  UNL     1       2.731  67.790  61.017  1.00  0.00    -0.327 N 
ATOM     16  H2  UNL     1       3.378  67.495  60.286  1.00  0.00     0.169 HD
HETATM   17  C14 UNL     1       3.130  67.680  62.293  1.00  0.00     0.022 A 
HETATM   18  C15 UNL     1       4.490  67.131  62.499  1.00  0.00     0.070 C 
ENDROOT
BRANCH   9  19
HETATM   19  N1  UNL     1       1.655  67.959  65.635  1.00  0.00    -0.062 N 
ATOM     20  H13 UNL     1       1.997  67.928  66.595  1.00  0.00     0.276 HD
ATOM     21  H12 UNL     1       1.209  68.876  65.642  1.00  0.00     0.276 HD
ATOM     22  H11 UNL     1       0.966  67.225  65.474  1.00  0.00     0.276 HD
ENDBRANCH   9  19
TORSDOF 1
ENDMDL
