MODEL 2
REMARK VINA RESULT: -10.246049381      2.427      4.343
REMARK  1 active torsions:
REMARK  status: ('A' for Active; 'I' for Inactive)
REMARK    1  A    between atoms: C9_9  and  N1_10 
ROOT
HETATM    1  C1  UNL     1       5.522  69.586  65.014  1.00  0.00     0.036 C 
HETATM    2  C2  UNL     1       4.518  68.589  65.431  1.00  0.00    -0.025 C 
HETATM    3  C3  UNL     1       3.901  67.882  64.513  1.00  0.00    -0.036 C 
HETATM    4  C4  UNL     1       4.229  68.101  63.079  1.00  0.00     0.045 C 
HETATM    5  C5  UNL     1       2.955  68.658  62.480  1.00  0.00    -0.015 C 
HETATM    6  C6  UNL     1       1.817  68.200  62.983  1.00  0.00    -0.084 C 
HETATM    7  C7  UNL     1       0.569  68.890  62.526  1.00  0.00     0.043 C 
HETATM    8  C8  UNL     1       1.663  67.098  63.935  1.00  0.00     0.082 C 
HETATM    9  C9  UNL     1       2.873  66.850  64.800  1.00  0.00     0.179 C 
HETATM   10  C10 UNL     1       3.476  65.557  64.307  1.00  0.00     0.005 A 
HETATM   11  C11 UNL     1       3.296  64.380  64.967  1.00  0.00     0.017 A 
HETATM   12  C12 UNL     1       3.877  63.239  64.456  1.00  0.00     0.075 A 
HETATM   13  C13 UNL     1       4.629  63.270  63.302  1.00  0.00     0.245 A 
HETATM   14  O1  UNL     1       5.171  62.219  62.821  1.00  0.00    -0.268 OA
HETATM   15  N2  UNL     1       4.766  64.462  62.701  1.00  0.00    -0.327 N 
ATOM     16  H2  UNL     1       5.319  64.506  61.846  1.00  0.00     0.169 HD
HETATM   17  C14 UNL     1       4.220  65.600  63.157  1.00  0.00     0.022 A 
HETATM   18  C15 UNL     1       4.488  66.813  62.351  1.00  0.00     0.070 C 
ENDROOT
BRANCH   9  19
HETATM   19  N1  UNL     1       2.506  66.772  66.175  1.00  0.00    -0.062 N 
ATOM     20  H13 UNL     1       3.172  66.197  66.693  1.00  0.00     0.276 HD
ATOM     21  H12 UNL     1       2.658  67.668  66.639  1.00  0.00     0.276 HD
ATOM     22  H11 UNL     1       1.552  66.445  66.328  1.00  0.00     0.276 HD
ENDBRANCH   9  19
TORSDOF 1
ENDMDL
