MODEL 11
REMARK VINA RESULT: -8.489065586      2.167      3.930
REMARK  0 active torsions:
REMARK  status: ('A' for Active; 'I' for Inactive)
ROOT
HETATM    1  C1  UNL     1       3.539  63.629  66.378  1.00  0.00     0.043 C 
HETATM    2  C2  UNL     1       3.842  64.640  65.303  1.00  0.00    -0.084 C 
HETATM    3  C3  UNL     1       5.151  64.832  65.025  1.00  0.00    -0.019 C 
HETATM    4  C4  UNL     1       5.407  66.161  64.374  1.00  0.00     0.021 C 
HETATM    5  C5  UNL     1       5.114  65.998  62.920  1.00  0.00     0.066 C 
HETATM    6  C6  UNL     1       4.061  66.921  62.409  1.00  0.00     0.021 A 
HETATM    7  N1  UNL     1       4.144  67.303  61.128  1.00  0.00    -0.327 N 
ATOM      8  H1  UNL     1       4.906  66.961  60.542  1.00  0.00     0.169 HD
HETATM    9  C7  UNL     1       3.225  68.135  60.616  1.00  0.00     0.245 A 
HETATM   10  O1  UNL     1       3.313  68.486  59.411  1.00  0.00    -0.268 OA
HETATM   11  C8  UNL     1       2.170  68.636  61.344  1.00  0.00     0.075 A 
HETATM   12  C9  UNL     1       2.100  68.232  62.661  1.00  0.00     0.017 A 
HETATM   13  C10 UNL     1       3.031  67.383  63.198  1.00  0.00     0.001 A 
HETATM   14  C11 UNL     1       3.018  66.908  64.593  1.00  0.00     0.162 C 
HETATM   15  C12 UNL     1       2.787  65.389  64.580  1.00  0.00     0.078 C 
HETATM   16  N2  UNL     1       2.119  67.557  65.484  1.00  0.00    -0.061 N 
ATOM     17  H21 UNL     1       1.637  66.874  66.067  1.00  0.00     0.278 HD
ATOM     18  H22 UNL     1       1.323  67.940  64.974  1.00  0.00     0.278 HD
HETATM   19  C13 UNL     1       2.736  68.575  66.299  1.00  0.00     0.233 C 
HETATM   20  C14 UNL     1       3.768  69.376  65.584  1.00  0.00     0.028 C 
HETATM   21  C15 UNL     1       4.827  68.544  64.904  1.00  0.00     0.010 C 
HETATM   22  C16 UNL     1       4.457  67.104  65.074  1.00  0.00     0.035 C 
ENDROOT
TORSDOF 0
ENDMDL
