MODEL 3
REMARK VINA RESULT: -9.198400405      2.780      4.402
REMARK  0 active torsions:
REMARK  status: ('A' for Active; 'I' for Inactive)
ROOT
HETATM    1  C1  UNL     1       3.941  63.603  65.530  1.00  0.00     0.043 C 
HETATM    2  C2  UNL     1       3.633  64.918  64.863  1.00  0.00    -0.084 C 
HETATM    3  C3  UNL     1       4.699  65.698  64.576  1.00  0.00    -0.019 C 
HETATM    4  C4  UNL     1       4.324  67.144  64.420  1.00  0.00     0.021 C 
HETATM    5  C5  UNL     1       3.814  67.314  63.028  1.00  0.00     0.066 C 
HETATM    6  C6  UNL     1       2.420  67.836  62.955  1.00  0.00     0.021 A 
HETATM    7  N1  UNL     1       2.094  68.579  61.890  1.00  0.00    -0.327 N 
ATOM      8  H1  UNL     1       2.789  68.767  61.166  1.00  0.00     0.169 HD
HETATM    9  C7  UNL     1       0.853  69.077  61.774  1.00  0.00     0.245 A 
HETATM   10  O1  UNL     1       0.560  69.773  60.768  1.00  0.00    -0.268 OA
HETATM   11  C8  UNL     1      -0.136  68.866  62.707  1.00  0.00     0.075 A 
HETATM   12  C9  UNL     1       0.217  68.098  63.797  1.00  0.00     0.017 A 
HETATM   13  C10 UNL     1       1.480  67.583  63.930  1.00  0.00     0.001 A 
HETATM   14  C11 UNL     1       1.926  66.755  65.063  1.00  0.00     0.162 C 
HETATM   15  C12 UNL     1       2.255  65.352  64.531  1.00  0.00     0.078 C 
HETATM   16  N2  UNL     1       1.060  66.687  66.189  1.00  0.00    -0.061 N 
ATOM     17  H21 UNL     1       0.985  65.727  66.527  1.00  0.00     0.278 HD
ATOM     18  H22 UNL     1       0.092  66.845  65.907  1.00  0.00     0.278 HD
HETATM   19  C13 UNL     1       1.426  67.576  67.265  1.00  0.00     0.233 C 
HETATM   20  C14 UNL     1       1.932  68.899  66.806  1.00  0.00     0.028 C 
HETATM   21  C15 UNL     1       3.053  68.811  65.800  1.00  0.00     0.010 C 
HETATM   22  C16 UNL     1       3.266  67.367  65.476  1.00  0.00     0.035 C 
ENDROOT
TORSDOF 0
ENDMDL
