MODEL 18
REMARK VINA RESULT: -7.101788367      1.825      3.717
REMARK  0 active torsions:
REMARK  status: ('A' for Active; 'I' for Inactive)
ROOT
HETATM    1  C1  UNL     1       1.892  69.155  60.372  1.00  0.00     0.043 C 
HETATM    2  C2  UNL     1       2.089  68.435  61.679  1.00  0.00    -0.084 C 
HETATM    3  C3  UNL     1       1.197  68.724  62.653  1.00  0.00    -0.019 C 
HETATM    4  C4  UNL     1       1.727  68.414  64.024  1.00  0.00     0.021 C 
HETATM    5  C5  UNL     1       1.516  66.954  64.253  1.00  0.00     0.066 C 
HETATM    6  C6  UNL     1       2.771  66.201  64.539  1.00  0.00     0.021 A 
HETATM    7  N1  UNL     1       2.677  65.121  65.325  1.00  0.00    -0.327 N 
ATOM      8  H1  UNL     1       1.771  64.842  65.702  1.00  0.00     0.169 HD
HETATM    9  C7  UNL     1       3.774  64.407  65.617  1.00  0.00     0.245 A 
HETATM   10  O1  UNL     1       3.673  63.395  66.357  1.00  0.00    -0.268 OA
HETATM   11  C8  UNL     1       5.028  64.722  65.145  1.00  0.00     0.075 A 
HETATM   12  C9  UNL     1       5.107  65.836  64.336  1.00  0.00     0.017 A 
HETATM   13  C10 UNL     1       3.995  66.576  64.030  1.00  0.00     0.001 A 
HETATM   14  C11 UNL     1       4.003  67.774  63.172  1.00  0.00     0.162 C 
HETATM   15  C12 UNL     1       3.186  67.464  61.909  1.00  0.00     0.078 C 
HETATM   16  N2  UNL     1       5.275  68.318  62.841  1.00  0.00    -0.061 N 
ATOM     17  H21 UNL     1       5.312  68.565  61.853  1.00  0.00     0.278 HD
ATOM     18  H22 UNL     1       5.992  67.593  62.864  1.00  0.00     0.278 HD
HETATM   19  C13 UNL     1       5.663  69.440  63.660  1.00  0.00     0.233 C 
HETATM   20  C14 UNL     1       5.271  69.306  65.091  1.00  0.00     0.028 C 
HETATM   21  C15 UNL     1       3.810  68.991  65.299  1.00  0.00     0.010 C 
HETATM   22  C16 UNL     1       3.185  68.804  63.953  1.00  0.00     0.035 C 
ENDROOT
TORSDOF 0
ENDMDL
