MODEL 15
REMARK VINA RESULT: -7.821765039      1.507      2.216
REMARK  0 active torsions:
REMARK  status: ('A' for Active; 'I' for Inactive)
ROOT
HETATM    1  C1  UNL     1       2.076  69.801  67.864  1.00  0.00     0.043 C 
HETATM    2  C2  UNL     1       2.843  69.008  66.839  1.00  0.00    -0.084 C 
HETATM    3  C3  UNL     1       3.903  69.634  66.281  1.00  0.00    -0.019 C 
HETATM    4  C4  UNL     1       4.281  69.044  64.953  1.00  0.00     0.021 C 
HETATM    5  C5  UNL     1       5.126  67.846  65.233  1.00  0.00     0.066 C 
HETATM    6  C6  UNL     1       4.580  66.578  64.670  1.00  0.00     0.021 A 
HETATM    7  N1  UNL     1       5.459  65.632  64.315  1.00  0.00    -0.327 N 
ATOM      8  H1  UNL     1       6.459  65.793  64.435  1.00  0.00     0.169 HD
HETATM    9  C7  UNL     1       5.024  64.471  63.801  1.00  0.00     0.245 A 
HETATM   10  O1  UNL     1       5.859  63.591  63.471  1.00  0.00    -0.268 OA
HETATM   11  C8  UNL     1       3.692  64.182  63.610  1.00  0.00     0.075 A 
HETATM   12  C9  UNL     1       2.801  65.167  63.982  1.00  0.00     0.017 A 
HETATM   13  C10 UNL     1       3.230  66.357  64.508  1.00  0.00     0.001 A 
HETATM   14  C11 UNL     1       2.337  67.451  64.929  1.00  0.00     0.162 C 
HETATM   15  C12 UNL     1       2.477  67.626  66.448  1.00  0.00     0.078 C 
HETATM   16  N2  UNL     1       0.971  67.348  64.546  1.00  0.00    -0.061 N 
ATOM     17  H21 UNL     1       0.362  67.598  65.325  1.00  0.00     0.278 HD
ATOM     18  H22 UNL     1       0.706  66.371  64.426  1.00  0.00     0.278 HD
HETATM   19  C13 UNL     1       0.633  68.114  63.371  1.00  0.00     0.233 C 
HETATM   20  C14 UNL     1       1.691  68.109  62.323  1.00  0.00     0.028 C 
HETATM   21  C15 UNL     1       3.056  68.509  62.829  1.00  0.00     0.010 C 
HETATM   22  C16 UNL     1       2.957  68.705  64.309  1.00  0.00     0.035 C 
ENDROOT
TORSDOF 0
ENDMDL
