MODEL 5
REMARK VINA RESULT: -9.017145509      1.660      3.669
REMARK  0 active torsions:
REMARK  status: ('A' for Active; 'I' for Inactive)
ROOT
HETATM    1  C1  UNL     1       0.486  69.892  61.834  1.00  0.00     0.043 C 
HETATM    2  C2  UNL     1       1.108  68.824  62.693  1.00  0.00    -0.084 C 
HETATM    3  C3  UNL     1       0.687  68.778  63.977  1.00  0.00    -0.019 C 
HETATM    4  C4  UNL     1       1.674  68.094  64.878  1.00  0.00     0.021 C 
HETATM    5  C5  UNL     1       1.445  66.626  64.743  1.00  0.00     0.066 C 
HETATM    6  C6  UNL     1       2.643  65.867  64.285  1.00  0.00     0.021 A 
HETATM    7  N1  UNL     1       2.767  64.600  64.700  1.00  0.00    -0.327 N 
ATOM      8  H1  UNL     1       2.055  64.189  65.304  1.00  0.00     0.169 HD
HETATM    9  C7  UNL     1       3.828  63.871  64.320  1.00  0.00     0.245 A 
HETATM   10  O1  UNL     1       3.932  62.682  64.716  1.00  0.00    -0.268 OA
HETATM   11  C8  UNL     1       4.826  64.357  63.507  1.00  0.00     0.075 A 
HETATM   12  C9  UNL     1       4.682  65.663  63.089  1.00  0.00     0.017 A 
HETATM   13  C10 UNL     1       3.605  66.420  63.468  1.00  0.00     0.001 A 
HETATM   14  C11 UNL     1       3.385  67.818  63.059  1.00  0.00     0.162 C 
HETATM   15  C12 UNL     1       2.122  67.868  62.185  1.00  0.00     0.078 C 
HETATM   16  N2  UNL     1       4.474  68.481  62.427  1.00  0.00    -0.061 N 
ATOM     17  H21 UNL     1       4.149  69.012  61.619  1.00  0.00     0.278 HD
ATOM     18  H22 UNL     1       5.080  67.808  61.959  1.00  0.00     0.278 HD
HETATM   19  C13 UNL     1       5.240  69.323  63.313  1.00  0.00     0.233 C 
HETATM   20  C14 UNL     1       5.418  68.756  64.679  1.00  0.00     0.028 C 
HETATM   21  C15 UNL     1       4.128  68.341  65.343  1.00  0.00     0.010 C 
HETATM   22  C16 UNL     1       3.021  68.540  64.357  1.00  0.00     0.035 C 
ENDROOT
TORSDOF 0
ENDMDL
