MODEL 14
REMARK VINA RESULT: -8.145235765      2.745      4.373
REMARK  0 active torsions:
REMARK  status: ('A' for Active; 'I' for Inactive)
ROOT
HETATM    1  C1  UNL     1       5.158  63.943  63.645  1.00  0.00     0.043 C 
HETATM    2  C2  UNL     1       4.564  65.242  63.167  1.00  0.00    -0.084 C 
HETATM    3  C3  UNL     1       5.416  66.088  62.547  1.00  0.00    -0.019 C 
HETATM    4  C4  UNL     1       4.932  67.509  62.575  1.00  0.00     0.021 C 
HETATM    5  C5  UNL     1       3.956  67.659  61.456  1.00  0.00     0.066 C 
HETATM    6  C6  UNL     1       2.599  68.096  61.893  1.00  0.00     0.021 A 
HETATM    7  N1  UNL     1       1.879  68.826  61.032  1.00  0.00    -0.327 N 
ATOM      8  H1  UNL     1       2.263  69.061  60.117  1.00  0.00     0.169 HD
HETATM    9  C7  UNL     1       0.652  69.248  61.374  1.00  0.00     0.245 A 
HETATM   10  O1  UNL     1      -0.015  69.933  60.556  1.00  0.00    -0.268 OA
HETATM   11  C8  UNL     1       0.069  68.969  62.588  1.00  0.00     0.075 A 
HETATM   12  C9  UNL     1       0.824  68.215  63.462  1.00  0.00     0.017 A 
HETATM   13  C10 UNL     1       2.078  67.778  63.128  1.00  0.00     0.001 A 
HETATM   14  C11 UNL     1       2.940  66.969  64.008  1.00  0.00     0.162 C 
HETATM   15  C12 UNL     1       3.136  65.593  63.353  1.00  0.00     0.078 C 
HETATM   16  N2  UNL     1       2.531  66.839  65.364  1.00  0.00    -0.061 N 
ATOM     17  H21 UNL     1       2.633  65.875  65.678  1.00  0.00     0.278 HD
ATOM     18  H22 UNL     1       1.519  66.941  65.445  1.00  0.00     0.278 HD
HETATM   19  C13 UNL     1       3.204  67.741  66.267  1.00  0.00     0.233 C 
HETATM   20  C14 UNL     1       3.443  69.096  65.699  1.00  0.00     0.028 C 
HETATM   21  C15 UNL     1       4.141  69.085  64.361  1.00  0.00     0.010 C 
HETATM   22  C16 UNL     1       4.304  67.658  63.941  1.00  0.00     0.035 C 
ENDROOT
TORSDOF 0
ENDMDL
