MODEL 7
REMARK VINA RESULT: -4.710224277      2.356      4.488
REMARK  6 active torsions:
REMARK  status: ('A' for Active; 'I' for Inactive)
REMARK    1  A    between atoms: C1_2  and  C2_4 
REMARK    2  A    between atoms: C2_4  and  C3_5 
REMARK    3  A    between atoms: C3_5  and  C4_6 
REMARK    4  A    between atoms: C3_5  and  C5_9 
REMARK    5  A    between atoms: C5_9  and  O5_10 
REMARK    6  A    between atoms: C5_9  and  C6_12 
ROOT
HETATM    1  C3  UNL     1      84.270  65.855   2.160  1.00  0.00     0.136 C 
ENDROOT
BRANCH   1   2
HETATM    2  C2  UNL     1      85.328  65.895   1.108  1.00  0.00     0.131 C 
BRANCH   2   3
HETATM    3  C1  UNL     1      86.450  64.980   1.348  1.00  0.00     0.173 C 
HETATM    4  O1  UNL     1      86.335  63.744   1.075  1.00  0.00    -0.648 OA
HETATM    5  O2  UNL     1      87.660  65.456   1.885  1.00  0.00    -0.648 OA
ENDBRANCH   2   3
ENDBRANCH   1   2
BRANCH   1   6
HETATM    6  C4  UNL     1      82.936  65.636   1.457  1.00  0.00     0.180 C 
HETATM    7  O3  UNL     1      82.406  64.520   1.495  1.00  0.00    -0.648 OA
HETATM    8  O4  UNL     1      82.365  66.692   0.803  1.00  0.00    -0.648 OA
ENDBRANCH   1   6
BRANCH   1   9
HETATM    9  C5  UNL     1      84.036  67.174   2.876  1.00  0.00     0.233 C 
BRANCH   9  10
HETATM   10  O5  UNL     1      82.786  67.011   3.536  1.00  0.00    -0.384 OA
ATOM     11  H5  UNL     1      82.753  67.718   4.169  1.00  0.00     0.210 HD
ENDBRANCH   9  10
BRANCH   9  12
HETATM   12  C6  UNL     1      85.012  67.602   3.841  1.00  0.00     0.203 C 
HETATM   13  O6  UNL     1      85.080  68.809   4.190  1.00  0.00    -0.646 OA
HETATM   14  O7  UNL     1      85.929  66.748   4.438  1.00  0.00    -0.646 OA
ENDBRANCH   9  12
ENDBRANCH   1   9
TORSDOF 6
ENDMDL
