MODEL 18
REMARK VINA RESULT: -4.629754647      2.344      4.095
REMARK  6 active torsions:
REMARK  status: ('A' for Active; 'I' for Inactive)
REMARK    1  A    between atoms: C1_2  and  C2_4 
REMARK    2  A    between atoms: C2_4  and  C3_5 
REMARK    3  A    between atoms: C3_5  and  C4_6 
REMARK    4  A    between atoms: C3_5  and  C5_9 
REMARK    5  A    between atoms: C5_9  and  O5_10 
REMARK    6  A    between atoms: C5_9  and  C6_12 
ROOT
HETATM    1  C3  UNL     1      84.574  65.957   2.117  1.00  0.00     0.136 C 
ENDROOT
BRANCH   1   2
HETATM    2  C2  UNL     1      84.506  65.231   0.814  1.00  0.00     0.131 C 
BRANCH   2   3
HETATM    3  C1  UNL     1      85.711  64.459   0.492  1.00  0.00     0.173 C 
HETATM    4  O1  UNL     1      86.201  63.656   1.346  1.00  0.00    -0.648 OA
HETATM    5  O2  UNL     1      86.340  64.600  -0.758  1.00  0.00    -0.648 OA
ENDBRANCH   2   3
ENDBRANCH   1   2
BRANCH   1   6
HETATM    6  C4  UNL     1      83.191  66.536   2.389  1.00  0.00     0.180 C 
HETATM    7  O3  UNL     1      82.394  66.670   1.454  1.00  0.00    -0.648 OA
HETATM    8  O4  UNL     1      82.875  66.889   3.672  1.00  0.00    -0.648 OA
ENDBRANCH   1   6
BRANCH   1   9
HETATM    9  C5  UNL     1      85.441  67.203   2.107  1.00  0.00     0.233 C 
BRANCH   9  10
HETATM   10  O5  UNL     1      84.564  68.252   1.713  1.00  0.00    -0.384 OA
ATOM     11  H5  UNL     1      84.346  68.702   2.521  1.00  0.00     0.210 HD
ENDBRANCH   9  10
BRANCH   9  12
HETATM   12  C6  UNL     1      86.092  67.585   3.331  1.00  0.00     0.203 C 
HETATM   13  O6  UNL     1      86.194  66.769   4.284  1.00  0.00    -0.646 OA
HETATM   14  O7  UNL     1      86.636  68.843   3.553  1.00  0.00    -0.646 OA
ENDBRANCH   9  12
ENDBRANCH   1   9
TORSDOF 6
ENDMDL
