MODEL 2
REMARK VINA RESULT: -4.874986404      0.985      1.374
REMARK  6 active torsions:
REMARK  status: ('A' for Active; 'I' for Inactive)
REMARK    1  A    between atoms: C1_2  and  C2_4 
REMARK    2  A    between atoms: C2_4  and  C3_5 
REMARK    3  A    between atoms: C3_5  and  C4_6 
REMARK    4  A    between atoms: C3_5  and  C5_9 
REMARK    5  A    between atoms: C5_9  and  O5_10 
REMARK    6  A    between atoms: C5_9  and  C6_12 
ROOT
HETATM    1  C3  UNL     1      86.791  67.003   3.107  1.00  0.00     0.136 C 
ENDROOT
BRANCH   1   2
HETATM    2  C2  UNL     1      85.437  66.403   2.927  1.00  0.00     0.131 C 
BRANCH   2   3
HETATM    3  C1  UNL     1      84.427  66.901   3.868  1.00  0.00     0.173 C 
HETATM    4  O1  UNL     1      84.780  67.353   5.002  1.00  0.00    -0.648 OA
HETATM    5  O2  UNL     1      83.062  66.882   3.531  1.00  0.00    -0.648 OA
ENDBRANCH   2   3
ENDBRANCH   1   2
BRANCH   1   6
HETATM    6  C4  UNL     1      86.713  68.453   2.644  1.00  0.00     0.180 C 
HETATM    7  O3  UNL     1      87.219  69.340   3.340  1.00  0.00    -0.648 OA
HETATM    8  O4  UNL     1      86.080  68.725   1.464  1.00  0.00    -0.648 OA
ENDBRANCH   1   6
BRANCH   1   9
HETATM    9  C5  UNL     1      87.864  66.437   2.192  1.00  0.00     0.233 C 
BRANCH   9  10
HETATM   10  O5  UNL     1      88.507  67.580   1.639  1.00  0.00    -0.384 OA
ATOM     11  H5  UNL     1      89.030  67.931   2.350  1.00  0.00     0.210 HD
ENDBRANCH   9  10
BRANCH   9  12
HETATM   12  C6  UNL     1      88.865  65.583   2.771  1.00  0.00     0.203 C 
HETATM   13  O6  UNL     1      89.244  65.754   3.959  1.00  0.00    -0.646 OA
HETATM   14  O7  UNL     1      89.475  64.540   2.086  1.00  0.00    -0.646 OA
ENDBRANCH   9  12
ENDBRANCH   1   9
TORSDOF 6
ENDMDL
