MODEL 1
REMARK VINA RESULT: -6.425871338      0.000      0.000
REMARK  6 active torsions:
REMARK  status: ('A' for Active; 'I' for Inactive)
REMARK    1  A    between atoms: C1_2  and  C2_4 
REMARK    2  A    between atoms: C2_4  and  C3_5 
REMARK    3  A    between atoms: C3_5  and  C4_6 
REMARK    4  A    between atoms: C3_5  and  C5_9 
REMARK    5  A    between atoms: C5_9  and  O5_10 
REMARK    6  A    between atoms: C5_9  and  C6_12 
ROOT
HETATM    1  C3  UNL     1      84.392  65.791   1.702  1.00  0.00     0.136 C 
ENDROOT
BRANCH   1   2
HETATM    2  C2  UNL     1      84.491  65.265   0.309  1.00  0.00     0.131 C 
BRANCH   2   3
HETATM    3  C1  UNL     1      84.538  63.801   0.220  1.00  0.00     0.173 C 
HETATM    4  O1  UNL     1      85.170  63.129   1.093  1.00  0.00    -0.648 OA
HETATM    5  O2  UNL     1      83.890  63.126  -0.830  1.00  0.00    -0.648 OA
ENDBRANCH   2   3
ENDBRANCH   1   2
BRANCH   1   6
HETATM    6  C4  UNL     1      82.940  66.189   1.937  1.00  0.00     0.180 C 
HETATM    7  O3  UNL     1      82.176  66.294   0.972  1.00  0.00    -0.648 OA
HETATM    8  O4  UNL     1      82.529  66.417   3.221  1.00  0.00    -0.648 OA
ENDBRANCH   1   6
BRANCH   1   9
HETATM    9  C5  UNL     1      85.121  67.102   1.940  1.00  0.00     0.233 C 
BRANCH   9  10
HETATM   10  O5  UNL     1      84.278  68.094   1.367  1.00  0.00    -0.384 OA
ATOM     11  H5  UNL     1      84.624  68.920   1.686  1.00  0.00     0.210 HD
ENDBRANCH   9  10
BRANCH   9  12
HETATM   12  C6  UNL     1      85.414  67.477   3.297  1.00  0.00     0.203 C 
HETATM   13  O6  UNL     1      86.161  66.759   4.012  1.00  0.00    -0.646 OA
HETATM   14  O7  UNL     1      84.909  68.618   3.906  1.00  0.00    -0.646 OA
ENDBRANCH   9  12
ENDBRANCH   1   9
TORSDOF 6
ENDMDL
