MODEL 18
REMARK VINA RESULT: -6.109322952      2.362      5.279
REMARK  9 active torsions:
REMARK  status: ('A' for Active; 'I' for Inactive)
REMARK    1  A    between atoms: C2_2  and  C3_3 
REMARK    2  A    between atoms: C3_3  and  C4_4 
REMARK    3  A    between atoms: C4_4  and  C5_5 
REMARK    4  A    between atoms: C5_5  and  C6_6 
REMARK    5  A    between atoms: C6_6  and  C7_7 
REMARK    6  A    between atoms: C7_7  and  C8_8 
REMARK    7  A    between atoms: C8_8  and  C9_9 
REMARK    8  A    between atoms: C9_9  and  C10_10 
REMARK    9  A    between atoms: C10_10  and  C11_11 
ROOT
HETATM    1  C6  UNL     1      -2.113   0.504   6.261  1.00  0.00     0.000 C 
ENDROOT
BRANCH   1   2
HETATM    2  C5  UNL     1      -2.815  -0.484   7.201  1.00  0.00     0.000 C 
BRANCH   2   3
HETATM    3  C4  UNL     1      -3.090   0.115   8.527  1.00  0.00     0.000 C 
BRANCH   3   4
HETATM    4  C3  UNL     1      -2.040   0.999   9.070  1.00  0.00    -0.000 C 
BRANCH   4   5
HETATM    5  C2  UNL     1      -2.406   2.056  10.035  1.00  0.00    -0.005 C 
HETATM    6  C1  UNL     1      -3.799   2.567   9.999  1.00  0.00     0.005 C 
ENDBRANCH   4   5
ENDBRANCH   3   4
ENDBRANCH   2   3
ENDBRANCH   1   2
BRANCH   1   7
HETATM    7  C7  UNL     1      -2.500   0.237   4.841  1.00  0.00     0.000 C 
BRANCH   7   8
HETATM    8  C8  UNL     1      -1.974   1.382   3.985  1.00  0.00     0.000 C 
BRANCH   8   9
HETATM    9  C9  UNL     1      -0.492   1.329   3.819  1.00  0.00     0.007 C 
BRANCH   9  10
HETATM   10  C10 UNL     1       0.015  -0.017   3.386  1.00  0.00     0.069 C 
BRANCH  10  11
HETATM   11  C11 UNL     1       1.375  -0.218   3.964  1.00  0.00     0.231 C 
HETATM   12  O1  UNL     1       1.641   0.031   5.133  1.00  0.00    -0.307 OA
ENDBRANCH  10  11
ENDBRANCH   9  10
ENDBRANCH   8   9
ENDBRANCH   7   8
ENDBRANCH   1   7
TORSDOF 9
ENDMDL
