MODEL 3
REMARK VINA RESULT: -6.395151465      1.715      1.961
REMARK  9 active torsions:
REMARK  status: ('A' for Active; 'I' for Inactive)
REMARK    1  A    between atoms: C2_2  and  C3_3 
REMARK    2  A    between atoms: C3_3  and  C4_4 
REMARK    3  A    between atoms: C4_4  and  C5_5 
REMARK    4  A    between atoms: C5_5  and  C6_6 
REMARK    5  A    between atoms: C6_6  and  C7_7 
REMARK    6  A    between atoms: C7_7  and  C8_8 
REMARK    7  A    between atoms: C8_8  and  C9_9 
REMARK    8  A    between atoms: C9_9  and  C10_10 
REMARK    9  A    between atoms: C10_10  and  C11_11 
ROOT
HETATM    1  C6  UNL     1      -2.732   0.928   4.498  1.00  0.00     0.000 C 
ENDROOT
BRANCH   1   2
HETATM    2  C5  UNL     1      -2.209   1.264   3.096  1.00  0.00     0.000 C 
BRANCH   2   3
HETATM    3  C4  UNL     1      -0.776   1.636   3.113  1.00  0.00     0.000 C 
BRANCH   3   4
HETATM    4  C3  UNL     1      -0.114   1.607   4.433  1.00  0.00    -0.000 C 
BRANCH   4   5
HETATM    5  C2  UNL     1       1.106   0.795   4.617  1.00  0.00    -0.005 C 
HETATM    6  C1  UNL     1       1.201  -0.482   3.866  1.00  0.00     0.005 C 
ENDBRANCH   4   5
ENDBRANCH   3   4
ENDBRANCH   2   3
ENDBRANCH   1   2
BRANCH   1   7
HETATM    7  C7  UNL     1      -2.883  -0.552   4.657  1.00  0.00     0.000 C 
BRANCH   7   8
HETATM    8  C8  UNL     1      -2.389  -0.931   6.047  1.00  0.00     0.000 C 
BRANCH   8   9
HETATM    9  C9  UNL     1      -2.433   0.221   6.995  1.00  0.00     0.007 C 
BRANCH   9  10
HETATM   10  C10 UNL     1      -1.278   0.253   7.953  1.00  0.00     0.069 C 
BRANCH  10  11
HETATM   11  C11 UNL     1      -0.384  -0.903   7.657  1.00  0.00     0.231 C 
HETATM   12  O1  UNL     1       0.837  -0.813   7.651  1.00  0.00    -0.307 OA
ENDBRANCH  10  11
ENDBRANCH   9  10
ENDBRANCH   8   9
ENDBRANCH   7   8
ENDBRANCH   1   7
TORSDOF 9
ENDMDL
