MODEL 4
REMARK VINA RESULT: -6.394255297      1.217      1.595
REMARK  9 active torsions:
REMARK  status: ('A' for Active; 'I' for Inactive)
REMARK    1  A    between atoms: C2_2  and  C3_3 
REMARK    2  A    between atoms: C3_3  and  C4_4 
REMARK    3  A    between atoms: C4_4  and  C5_5 
REMARK    4  A    between atoms: C5_5  and  C6_6 
REMARK    5  A    between atoms: C6_6  and  C7_7 
REMARK    6  A    between atoms: C7_7  and  C8_8 
REMARK    7  A    between atoms: C8_8  and  C9_9 
REMARK    8  A    between atoms: C9_9  and  C10_10 
REMARK    9  A    between atoms: C10_10  and  C11_11 
ROOT
HETATM    1  C6  UNL     1      -2.643   0.938   4.649  1.00  0.00     0.000 C 
ENDROOT
BRANCH   1   2
HETATM    2  C5  UNL     1      -2.187   1.308   3.233  1.00  0.00     0.000 C 
BRANCH   2   3
HETATM    3  C4  UNL     1      -0.753   1.676   3.191  1.00  0.00     0.000 C 
BRANCH   3   4
HETATM    4  C3  UNL     1      -0.040   1.654   4.484  1.00  0.00    -0.000 C 
BRANCH   4   5
HETATM    5  C2  UNL     1       1.057   0.688   4.694  1.00  0.00    -0.005 C 
HETATM    6  C1  UNL     1       1.214  -0.401   3.697  1.00  0.00     0.005 C 
ENDBRANCH   4   5
ENDBRANCH   3   4
ENDBRANCH   2   3
ENDBRANCH   1   2
BRANCH   1   7
HETATM    7  C7  UNL     1      -2.744  -0.548   4.793  1.00  0.00     0.000 C 
BRANCH   7   8
HETATM    8  C8  UNL     1      -2.434  -0.903   6.242  1.00  0.00     0.000 C 
BRANCH   8   9
HETATM    9  C9  UNL     1      -2.457   0.293   7.134  1.00  0.00     0.007 C 
BRANCH   9  10
HETATM   10  C10 UNL     1      -2.923  -0.008   8.529  1.00  0.00     0.069 C 
BRANCH  10  11
HETATM   11  C11 UNL     1      -1.969  -0.973   9.148  1.00  0.00     0.231 C 
HETATM   12  O1  UNL     1      -2.334  -2.000   9.706  1.00  0.00    -0.307 OA
ENDBRANCH  10  11
ENDBRANCH   9  10
ENDBRANCH   8   9
ENDBRANCH   7   8
ENDBRANCH   1   7
TORSDOF 9
ENDMDL
