MODEL 16
REMARK VINA RESULT: -9.279734320      3.609      4.995
REMARK  10 active torsions:
REMARK  status: ('A' for Active; 'I' for Inactive)
REMARK    1  A    between atoms: N4_10  and  C5_11 
REMARK    2  A    between atoms: C6_13  and  C7_14 
REMARK    3  A    between atoms: C7_14  and  O2_15 
REMARK    4  A    between atoms: O2_15  and  P1_16 
REMARK    5  A    between atoms: P1_16  and  O5_19 
REMARK    6  A    between atoms: O5_19  and  P2_20 
REMARK    7  A    between atoms: P2_20  and  N5_23 
REMARK    8  A    between atoms: N5_23  and  P3_25 
REMARK    9  A    between atoms: C8_29  and  O11_30 
REMARK   10  A    between atoms: C9_32  and  O12_33 
ROOT
HETATM    1  C5  UNL     1      -5.383  29.959  27.255  1.00  0.00     0.262 C 
HETATM    2  O1  UNL     1      -4.065  29.514  27.253  1.00  0.00    -0.353 OA
HETATM    3  C6  UNL     1      -4.175  28.234  27.799  1.00  0.00     0.180 C 
HETATM    4  C8  UNL     1      -5.234  27.633  26.883  1.00  0.00     0.182 C 
HETATM    5  C9  UNL     1      -6.241  28.769  26.875  1.00  0.00     0.198 C 
ENDROOT
BRANCH   3   6
HETATM    6  C7  UNL     1      -2.884  27.472  27.737  1.00  0.00     0.216 C 
BRANCH   6   7
HETATM    7  O2  UNL     1      -2.444  27.253  29.032  1.00  0.00    -0.287 OA
BRANCH   7   8
HETATM    8  P1  UNL     1      -2.238  25.581  29.227  1.00  0.00     0.417 P 
HETATM    9  O3  UNL     1      -3.239  24.810  28.406  1.00  0.00    -0.624 OA
HETATM   10  O4  UNL     1      -2.519  25.173  30.864  1.00  0.00    -0.624 OA
BRANCH   8  11
HETATM   11  O5  UNL     1      -0.658  25.106  28.861  1.00  0.00    -0.186 OA
BRANCH  11  12
HETATM   12  P2  UNL     1       0.468  26.092  29.622  1.00  0.00     0.379 P 
HETATM   13  O6  UNL     1       1.165  27.026  28.639  1.00  0.00    -0.629 OA
HETATM   14  O7  UNL     1       1.630  25.191  30.447  1.00  0.00    -0.629 OA
BRANCH  12  15
HETATM   15  N5  UNL     1      -0.377  27.123  30.768  1.00  0.00    -0.218 N 
ATOM     16  H5  UNL     1      -1.376  27.329  30.776  1.00  0.00     0.179 HD
BRANCH  15  17
HETATM   17  P3  UNL     1       0.821  27.732  31.896  1.00  0.00     0.381 P 
HETATM   18  O8  UNL     1       0.412  29.059  32.464  1.00  0.00    -0.622 OA
HETATM   19  O9  UNL     1       2.320  27.967  31.121  1.00  0.00    -0.622 OA
HETATM   20  O10 UNL     1       0.979  26.577  33.126  1.00  0.00    -0.622 OA
ENDBRANCH  15  17
ENDBRANCH  12  15
ENDBRANCH  11  12
ENDBRANCH   8  11
ENDBRANCH   7   8
ENDBRANCH   6   7
ENDBRANCH   3   6
BRANCH   4  21
HETATM   21  O11 UNL     1      -5.759  26.470  27.388  1.00  0.00    -0.390 OA
ATOM     22  H11 UNL     1      -6.260  25.990  26.740  1.00  0.00     0.210 HD
ENDBRANCH   4  21
BRANCH   1  23
HETATM   23  N4  UNL     1      -5.615  30.986  26.267  1.00  0.00    -0.297 N 
HETATM   24  C2  UNL     1      -4.791  32.066  26.153  1.00  0.00     0.146 A 
HETATM   25  N2  UNL     1      -3.683  32.446  26.821  1.00  0.00    -0.314 N 
HETATM   26  C3  UNL     1      -5.252  32.875  25.134  1.00  0.00     0.146 A 
HETATM   27  C1  UNL     1      -3.002  33.569  26.550  1.00  0.00     0.196 A 
ATOM     28  H2  UNL     1      -3.345  31.846  27.574  1.00  0.00     0.170 HD
HETATM   29  N1  UNL     1      -1.825  33.927  27.294  1.00  0.00    -0.063 NA
HETATM   30  N6  UNL     1      -3.452  34.354  25.559  1.00  0.00    -0.295 N 
HETATM   31  C10 UNL     1      -4.555  34.031  24.852  1.00  0.00     0.278 A 
ATOM     32  H6  UNL     1      -2.950  35.214  25.335  1.00  0.00     0.171 HD
HETATM   33  O13 UNL     1      -4.958  34.784  23.926  1.00  0.00    -0.265 OA
HETATM   34  N3  UNL     1      -6.352  32.264  24.650  1.00  0.00    -0.345 N 
HETATM   35  C4  UNL     1      -6.561  31.121  25.345  1.00  0.00     0.188 A 
ATOM     36  H3  UNL     1      -6.933  32.607  23.885  1.00  0.00     0.167 HD
ENDBRANCH   1  23
BRANCH   5  37
HETATM   37  O12 UNL     1      -7.174  28.474  27.886  1.00  0.00    -0.388 OA
ATOM     38  H12 UNL     1      -7.632  29.258  28.166  1.00  0.00     0.210 HD
ENDBRANCH   5  37
TORSDOF 10
ENDMDL
