MODEL 19
REMARK VINA RESULT: -9.202546865      2.588      4.515
REMARK  10 active torsions:
REMARK  status: ('A' for Active; 'I' for Inactive)
REMARK    1  A    between atoms: N4_10  and  C5_11 
REMARK    2  A    between atoms: C6_13  and  C7_14 
REMARK    3  A    between atoms: C7_14  and  O2_15 
REMARK    4  A    between atoms: O2_15  and  P1_16 
REMARK    5  A    between atoms: P1_16  and  O5_19 
REMARK    6  A    between atoms: O5_19  and  P2_20 
REMARK    7  A    between atoms: P2_20  and  N5_23 
REMARK    8  A    between atoms: N5_23  and  P3_25 
REMARK    9  A    between atoms: C8_29  and  O11_30 
REMARK   10  A    between atoms: C9_32  and  O12_33 
ROOT
HETATM    1  C5  UNL     1      -6.046  27.076  23.253  1.00  0.00     0.262 C 
HETATM    2  O1  UNL     1      -6.041  26.910  24.634  1.00  0.00    -0.353 OA
HETATM    3  C6  UNL     1      -5.043  25.951  24.822  1.00  0.00     0.180 C 
HETATM    4  C8  UNL     1      -3.885  26.610  24.081  1.00  0.00     0.182 C 
HETATM    5  C9  UNL     1      -4.598  27.024  22.807  1.00  0.00     0.198 C 
ENDROOT
BRANCH   3   6
HETATM    6  C7  UNL     1      -4.726  25.731  26.272  1.00  0.00     0.216 C 
BRANCH   6   7
HETATM    7  O2  UNL     1      -3.680  26.568  26.622  1.00  0.00    -0.287 OA
BRANCH   7   8
HETATM    8  P1  UNL     1      -4.163  27.446  27.991  1.00  0.00     0.417 P 
HETATM    9  O3  UNL     1      -5.585  27.926  27.856  1.00  0.00    -0.624 OA
HETATM   10  O4  UNL     1      -3.180  28.837  28.135  1.00  0.00    -0.624 OA
BRANCH   8  11
HETATM   11  O5  UNL     1      -3.959  26.544  29.406  1.00  0.00    -0.186 OA
BRANCH  11  12
HETATM   12  P2  UNL     1      -2.467  25.774  29.429  1.00  0.00     0.379 P 
HETATM   13  O6  UNL     1      -2.456  24.525  28.555  1.00  0.00    -0.629 OA
HETATM   14  O7  UNL     1      -2.005  25.357  30.996  1.00  0.00    -0.629 OA
BRANCH  12  15
HETATM   15  N5  UNL     1      -1.266  26.863  28.748  1.00  0.00    -0.218 N 
ATOM     16  H5  UNL     1      -1.429  27.581  28.042  1.00  0.00     0.179 HD
BRANCH  15  17
HETATM   17  P3  UNL     1       0.267  26.482  29.512  1.00  0.00     0.381 P 
HETATM   18  O8  UNL     1       0.398  25.009  29.771  1.00  0.00    -0.622 OA
HETATM   19  O9  UNL     1       0.406  27.263  31.019  1.00  0.00    -0.622 OA
HETATM   20  O10 UNL     1       1.490  27.017  28.467  1.00  0.00    -0.622 OA
ENDBRANCH  15  17
ENDBRANCH  12  15
ENDBRANCH  11  12
ENDBRANCH   8  11
ENDBRANCH   7   8
ENDBRANCH   6   7
ENDBRANCH   3   6
BRANCH   4  21
HETATM   21  O11 UNL     1      -2.854  25.735  23.845  1.00  0.00    -0.390 OA
ATOM     22  H11 UNL     1      -2.734  25.121  24.559  1.00  0.00     0.210 HD
ENDBRANCH   4  21
BRANCH   1  23
HETATM   23  N4  UNL     1      -6.569  28.362  22.859  1.00  0.00    -0.297 N 
HETATM   24  C2  UNL     1      -6.484  29.449  23.677  1.00  0.00     0.146 A 
HETATM   25  N2  UNL     1      -5.966  29.628  24.909  1.00  0.00    -0.314 N 
HETATM   26  C3  UNL     1      -7.063  30.532  23.045  1.00  0.00     0.146 A 
HETATM   27  C1  UNL     1      -5.982  30.802  25.557  1.00  0.00     0.196 A 
ATOM     28  H2  UNL     1      -5.539  28.826  25.374  1.00  0.00     0.170 HD
HETATM   29  N1  UNL     1      -5.414  30.938  26.870  1.00  0.00    -0.063 NA
HETATM   30  N6  UNL     1      -6.544  31.854  24.941  1.00  0.00    -0.295 N 
HETATM   31  C10 UNL     1      -7.081  31.741  23.708  1.00  0.00     0.278 A 
ATOM     32  H6  UNL     1      -6.567  32.757  25.415  1.00  0.00     0.171 HD
HETATM   33  O13 UNL     1      -7.603  32.742  23.149  1.00  0.00    -0.265 OA
HETATM   34  N3  UNL     1      -7.489  30.074  21.851  1.00  0.00    -0.345 N 
HETATM   35  C4  UNL     1      -7.185  28.758  21.751  1.00  0.00     0.188 A 
ATOM     36  H3  UNL     1      -7.964  30.628  21.138  1.00  0.00     0.167 HD
ENDBRANCH   1  23
BRANCH   5  37
HETATM   37  O12 UNL     1      -4.391  25.983  21.884  1.00  0.00    -0.388 OA
ATOM     38  H12 UNL     1      -3.684  26.194  21.285  1.00  0.00     0.210 HD
ENDBRANCH   5  37
TORSDOF 10
ENDMDL
