MODEL 1
REMARK VINA RESULT: -11.141143794      0.000      0.000
REMARK  10 active torsions:
REMARK  status: ('A' for Active; 'I' for Inactive)
REMARK    1  A    between atoms: N4_10  and  C5_11 
REMARK    2  A    between atoms: C6_13  and  C7_14 
REMARK    3  A    between atoms: C7_14  and  O2_15 
REMARK    4  A    between atoms: O2_15  and  P1_16 
REMARK    5  A    between atoms: P1_16  and  O5_19 
REMARK    6  A    between atoms: O5_19  and  P2_20 
REMARK    7  A    between atoms: P2_20  and  N5_23 
REMARK    8  A    between atoms: N5_23  and  P3_25 
REMARK    9  A    between atoms: C8_29  and  O11_30 
REMARK   10  A    between atoms: C9_32  and  O12_33 
ROOT
HETATM    1  C5  UNL     1      -4.385  27.603  25.069  1.00  0.00     0.262 C 
HETATM    2  O1  UNL     1      -3.514  27.442  26.141  1.00  0.00    -0.353 OA
HETATM    3  C6  UNL     1      -4.263  27.925  27.217  1.00  0.00     0.180 C 
HETATM    4  C8  UNL     1      -5.529  27.088  27.068  1.00  0.00     0.182 C 
HETATM    5  C9  UNL     1      -5.768  27.246  25.578  1.00  0.00     0.198 C 
ENDROOT
BRANCH   3   6
HETATM    6  C7  UNL     1      -3.589  27.689  28.536  1.00  0.00     0.216 C 
BRANCH   6   7
HETATM    7  O2  UNL     1      -2.308  27.222  28.294  1.00  0.00    -0.287 OA
BRANCH   7   8
HETATM    8  P1  UNL     1      -2.172  25.697  29.024  1.00  0.00     0.417 P 
HETATM    9  O3  UNL     1      -3.176  24.728  28.451  1.00  0.00    -0.624 OA
HETATM   10  O4  UNL     1      -2.522  25.846  30.691  1.00  0.00    -0.624 OA
BRANCH   8  11
HETATM   11  O5  UNL     1      -0.601  25.089  28.898  1.00  0.00    -0.186 OA
BRANCH  11  12
HETATM   12  P2  UNL     1       0.517  26.140  29.578  1.00  0.00     0.379 P 
HETATM   13  O6  UNL     1       1.231  26.975  28.522  1.00  0.00    -0.629 OA
HETATM   14  O7  UNL     1       1.664  25.319  30.502  1.00  0.00    -0.629 OA
BRANCH  12  15
HETATM   15  N5  UNL     1      -0.341  27.277  30.609  1.00  0.00    -0.218 N 
ATOM     16  H5  UNL     1      -1.275  27.655  30.449  1.00  0.00     0.179 HD
BRANCH  15  17
HETATM   17  P3  UNL     1       0.711  27.640  31.965  1.00  0.00     0.381 P 
HETATM   18  O8  UNL     1       0.705  26.528  32.974  1.00  0.00    -0.622 OA
HETATM   19  O9  UNL     1       0.194  29.045  32.777  1.00  0.00    -0.622 OA
HETATM   20  O10 UNL     1       2.269  27.872  31.339  1.00  0.00    -0.622 OA
ENDBRANCH  15  17
ENDBRANCH  12  15
ENDBRANCH  11  12
ENDBRANCH   8  11
ENDBRANCH   7   8
ENDBRANCH   6   7
ENDBRANCH   3   6
BRANCH   4  21
HETATM   21  O11 UNL     1      -6.567  27.579  27.821  1.00  0.00    -0.390 OA
ATOM     22  H11 UNL     1      -7.347  27.731  27.301  1.00  0.00     0.210 HD
ENDBRANCH   4  21
BRANCH   1  23
HETATM   23  N4  UNL     1      -4.084  26.703  23.981  1.00  0.00    -0.297 N 
HETATM   24  C2  UNL     1      -4.660  26.848  22.754  1.00  0.00     0.146 A 
HETATM   25  N2  UNL     1      -5.547  27.735  22.259  1.00  0.00    -0.314 N 
HETATM   26  C3  UNL     1      -4.190  25.854  21.919  1.00  0.00     0.146 A 
HETATM   27  C1  UNL     1      -5.998  27.705  20.997  1.00  0.00     0.196 A 
ATOM     28  H2  UNL     1      -5.893  28.468  22.879  1.00  0.00     0.170 HD
HETATM   29  N1  UNL     1      -6.944  28.677  20.519  1.00  0.00    -0.063 NA
HETATM   30  N6  UNL     1      -5.540  26.739  20.186  1.00  0.00    -0.295 N 
HETATM   31  C10 UNL     1      -4.652  25.820  20.620  1.00  0.00     0.278 A 
ATOM     32  H6  UNL     1      -5.870  26.697  19.221  1.00  0.00     0.171 HD
HETATM   33  O13 UNL     1      -4.236  24.922  19.841  1.00  0.00    -0.265 OA
HETATM   34  N3  UNL     1      -3.335  25.124  22.662  1.00  0.00    -0.345 N 
HETATM   35  C4  UNL     1      -3.280  25.649  23.910  1.00  0.00     0.188 A 
ATOM     36  H3  UNL     1      -2.813  24.309  22.339  1.00  0.00     0.167 HD
ENDBRANCH   1  23
BRANCH   5  37
HETATM   37  O12 UNL     1      -6.654  28.329  25.434  1.00  0.00    -0.388 OA
ATOM     38  H12 UNL     1      -7.528  28.095  25.724  1.00  0.00     0.210 HD
ENDBRANCH   5  37
TORSDOF 10
ENDMDL
