MODEL 11
REMARK VINA RESULT: -9.488969878      3.426      5.095
REMARK  10 active torsions:
REMARK  status: ('A' for Active; 'I' for Inactive)
REMARK    1  A    between atoms: N4_10  and  C5_11 
REMARK    2  A    between atoms: C6_13  and  C7_14 
REMARK    3  A    between atoms: C7_14  and  O2_15 
REMARK    4  A    between atoms: O2_15  and  P1_16 
REMARK    5  A    between atoms: P1_16  and  O5_19 
REMARK    6  A    between atoms: O5_19  and  P2_20 
REMARK    7  A    between atoms: P2_20  and  N5_23 
REMARK    8  A    between atoms: N5_23  and  P3_25 
REMARK    9  A    between atoms: C8_29  and  O11_30 
REMARK   10  A    between atoms: C9_32  and  O12_33 
ROOT
HETATM    1  C5  UNL     1      -6.221  28.346  27.529  1.00  0.00     0.262 C 
HETATM    2  O1  UNL     1      -4.924  28.397  28.030  1.00  0.00    -0.353 OA
HETATM    3  C6  UNL     1      -4.336  27.261  27.471  1.00  0.00     0.180 C 
HETATM    4  C8  UNL     1      -4.644  27.489  25.995  1.00  0.00     0.182 C 
HETATM    5  C9  UNL     1      -6.110  27.868  26.094  1.00  0.00     0.198 C 
ENDROOT
BRANCH   3   6
HETATM    6  C7  UNL     1      -2.860  27.193  27.730  1.00  0.00     0.216 C 
BRANCH   6   7
HETATM    7  O2  UNL     1      -2.662  27.064  29.095  1.00  0.00    -0.287 OA
BRANCH   7   8
HETATM    8  P1  UNL     1      -2.076  25.498  29.381  1.00  0.00     0.417 P 
HETATM    9  O3  UNL     1      -3.026  24.456  28.850  1.00  0.00    -0.624 OA
HETATM   10  O4  UNL     1      -1.957  25.249  31.069  1.00  0.00    -0.624 OA
BRANCH   8  11
HETATM   11  O5  UNL     1      -0.527  25.292  28.738  1.00  0.00    -0.186 OA
BRANCH  11  12
HETATM   12  P2  UNL     1       0.598  26.252  29.534  1.00  0.00     0.379 P 
HETATM   13  O6  UNL     1       1.440  27.069  28.561  1.00  0.00    -0.629 OA
HETATM   14  O7  UNL     1       1.619  25.334  30.514  1.00  0.00    -0.629 OA
BRANCH  12  15
HETATM   15  N5  UNL     1      -0.266  27.411  30.534  1.00  0.00    -0.218 N 
ATOM     16  H5  UNL     1      -1.199  27.786  30.359  1.00  0.00     0.179 HD
BRANCH  15  17
HETATM   17  P3  UNL     1       0.778  27.803  31.888  1.00  0.00     0.381 P 
HETATM   18  O8  UNL     1       0.396  29.115  32.510  1.00  0.00    -0.622 OA
HETATM   19  O9  UNL     1       2.398  27.948  31.384  1.00  0.00    -0.622 OA
HETATM   20  O10 UNL     1       0.630  26.543  33.012  1.00  0.00    -0.622 OA
ENDBRANCH  15  17
ENDBRANCH  12  15
ENDBRANCH  11  12
ENDBRANCH   8  11
ENDBRANCH   7   8
ENDBRANCH   6   7
ENDBRANCH   3   6
BRANCH   4  21
HETATM   21  O11 UNL     1      -4.443  26.360  25.242  1.00  0.00    -0.390 OA
ATOM     22  H11 UNL     1      -3.536  26.262  24.976  1.00  0.00     0.210 HD
ENDBRANCH   4  21
BRANCH   1  23
HETATM   23  N4  UNL     1      -6.847  29.646  27.499  1.00  0.00    -0.297 N 
HETATM   24  C2  UNL     1      -6.131  30.779  27.253  1.00  0.00     0.146 A 
HETATM   25  N2  UNL     1      -4.824  30.997  27.000  1.00  0.00    -0.314 N 
HETATM   26  C3  UNL     1      -6.984  31.864  27.286  1.00  0.00     0.146 A 
HETATM   27  C1  UNL     1      -4.306  32.215  26.779  1.00  0.00     0.196 A 
ATOM     28  H2  UNL     1      -4.197  30.194  26.976  1.00  0.00     0.170 HD
HETATM   29  N1  UNL     1      -2.905  32.392  26.513  1.00  0.00    -0.063 NA
HETATM   30  N6  UNL     1      -5.137  33.269  26.811  1.00  0.00    -0.295 N 
HETATM   31  C10 UNL     1      -6.454  33.117  27.059  1.00  0.00     0.278 A 
ATOM     32  H6  UNL     1      -4.764  34.204  26.646  1.00  0.00     0.171 HD
HETATM   33  O13 UNL     1      -7.215  34.121  27.085  1.00  0.00    -0.265 OA
HETATM   34  N3  UNL     1      -8.205  31.362  27.554  1.00  0.00    -0.345 N 
HETATM   35  C4  UNL     1      -8.109  30.017  27.682  1.00  0.00     0.188 A 
ATOM     36  H3  UNL     1      -9.064  31.906  27.647  1.00  0.00     0.167 HD
ENDBRANCH   1  23
BRANCH   5  37
HETATM   37  O12 UNL     1      -6.837  26.679  25.900  1.00  0.00    -0.388 OA
ATOM     38  H12 UNL     1      -7.183  26.631  25.017  1.00  0.00     0.210 HD
ENDBRANCH   5  37
TORSDOF 10
ENDMDL
