MODEL 1
REMARK VINA RESULT: -7.732234105      0.000      0.000
REMARK  12 active torsions:
REMARK  status: ('A' for Active; 'I' for Inactive)
REMARK    1  A    between atoms: O1_1  and  C1_3 
REMARK    2  A    between atoms: C1_3  and  C2_4 
REMARK    3  A    between atoms: C3_6  and  O3_7 
REMARK    4  A    between atoms: C4_9  and  O4_10 
REMARK    5  A    between atoms: C5_12  and  O5_13 
REMARK    6  A    between atoms: C6_15  and  O6_16 
REMARK    7  A    between atoms: O6_16  and  C7_17 
REMARK    8  A    between atoms: C8_19  and  C9_20 
REMARK    9  A    between atoms: C9_20  and  O8_21 
REMARK   10  A    between atoms: C10_23  and  O9_24 
REMARK   11  A    between atoms: C11_26  and  O10_27 
REMARK   12  A    between atoms: C12_29  and  O11_30 
ROOT
HETATM    1  O6  UNL     1       5.014  11.169  51.611  1.00  0.00    -0.348 OA
ENDROOT
BRANCH   1   2
HETATM    2  C6  UNL     1       5.987  10.268  51.843  1.00  0.00     0.187 C 
HETATM    3  C2  UNL     1       5.548   8.852  52.131  1.00  0.00     0.180 C 
HETATM    4  O2  UNL     1       6.710   8.063  52.201  1.00  0.00    -0.349 OA
HETATM    5  C3  UNL     1       7.433   8.390  53.344  1.00  0.00     0.288 C 
HETATM    6  C4  UNL     1       7.914   9.823  53.252  1.00  0.00     0.204 C 
HETATM    7  C5  UNL     1       6.674  10.689  53.163  1.00  0.00     0.183 C 
BRANCH   3   8
HETATM    8  C1  UNL     1       4.566   8.283  51.181  1.00  0.00     0.198 C 
BRANCH   8   9
HETATM    9  O1  UNL     1       5.242   7.627  50.157  1.00  0.00    -0.398 OA
ATOM     10  H1  UNL     1       5.152   8.123  49.351  1.00  0.00     0.209 HD
ENDBRANCH   8   9
ENDBRANCH   3   8
BRANCH   5  11
HETATM   11  O3  UNL     1       8.542   7.526  53.373  1.00  0.00    -0.369 OA
ATOM     12  H3  UNL     1       8.617   7.216  54.267  1.00  0.00     0.212 HD
ENDBRANCH   5  11
BRANCH   6  13
HETATM   13  O4  UNL     1       8.693  10.179  54.323  1.00  0.00    -0.388 OA
ATOM     14  H4  UNL     1       8.441  11.020  54.687  1.00  0.00     0.210 HD
ENDBRANCH   6  13
BRANCH   7  15
HETATM   15  O5  UNL     1       6.933  12.023  53.213  1.00  0.00    -0.390 OA
ATOM     16  H5  UNL     1       6.234  12.563  52.862  1.00  0.00     0.210 HD
ENDBRANCH   7  15
ENDBRANCH   1   2
BRANCH   1  17
HETATM   17  C7  UNL     1       5.096  11.897  50.443  1.00  0.00     0.292 C 
HETATM   18  O7  UNL     1       3.912  12.498  50.091  1.00  0.00    -0.348 OA
HETATM   19  C8  UNL     1       3.031  11.790  49.329  1.00  0.00     0.179 C 
HETATM   20  C10 UNL     1       3.642  11.374  48.003  1.00  0.00     0.180 C 
HETATM   21  C11 UNL     1       5.123  11.716  48.011  1.00  0.00     0.183 C 
HETATM   22  C12 UNL     1       5.767  11.275  49.306  1.00  0.00     0.204 C 
BRANCH  19  23
HETATM   23  C9  UNL     1       2.614  10.538  50.049  1.00  0.00     0.198 C 
BRANCH  23  24
HETATM   24  O8  UNL     1       1.284  10.195  49.822  1.00  0.00    -0.398 OA
ATOM     25  H8  UNL     1       1.182   9.335  49.433  1.00  0.00     0.209 HD
ENDBRANCH  23  24
ENDBRANCH  19  23
BRANCH  20  26
HETATM   26  O9  UNL     1       3.487  10.040  47.717  1.00  0.00    -0.390 OA
ATOM     27  H9  UNL     1       3.812   9.793  46.859  1.00  0.00     0.210 HD
ENDBRANCH  20  26
BRANCH  21  28
HETATM   28  O10 UNL     1       5.743  11.213  46.896  1.00  0.00    -0.390 OA
ATOM     29  H10 UNL     1       6.284  10.465  47.121  1.00  0.00     0.210 HD
ENDBRANCH  21  28
BRANCH  22  30
HETATM   30  O11 UNL     1       7.117  11.600  49.159  1.00  0.00    -0.388 OA
ATOM     31  H11 UNL     1       7.430  11.639  48.264  1.00  0.00     0.210 HD
ENDBRANCH  22  30
ENDBRANCH   1  17
TORSDOF 12
ENDMDL
