MODEL 3
REMARK VINA RESULT: -7.608662240      1.621      6.209
REMARK  12 active torsions:
REMARK  status: ('A' for Active; 'I' for Inactive)
REMARK    1  A    between atoms: O1_1  and  C1_3 
REMARK    2  A    between atoms: C1_3  and  C2_4 
REMARK    3  A    between atoms: C3_6  and  O3_7 
REMARK    4  A    between atoms: C4_9  and  O4_10 
REMARK    5  A    between atoms: C5_12  and  O5_13 
REMARK    6  A    between atoms: C6_15  and  O6_16 
REMARK    7  A    between atoms: O6_16  and  C7_17 
REMARK    8  A    between atoms: C8_19  and  C9_20 
REMARK    9  A    between atoms: C9_20  and  O8_21 
REMARK   10  A    between atoms: C10_23  and  O9_24 
REMARK   11  A    between atoms: C11_26  and  O10_27 
REMARK   12  A    between atoms: C12_29  and  O11_30 
ROOT
HETATM    1  O6  UNL     1       5.867  10.548  51.853  1.00  0.00    -0.348 OA
ENDROOT
BRANCH   1   2
HETATM    2  C6  UNL     1       5.373  11.305  50.856  1.00  0.00     0.187 C 
HETATM    3  C2  UNL     1       3.914  11.685  50.950  1.00  0.00     0.180 C 
HETATM    4  O2  UNL     1       3.649  12.578  49.897  1.00  0.00    -0.349 OA
HETATM    5  C3  UNL     1       3.703  11.901  48.682  1.00  0.00     0.288 C 
HETATM    6  C4  UNL     1       5.108  11.391  48.443  1.00  0.00     0.204 C 
HETATM    7  C5  UNL     1       5.418  10.435  49.577  1.00  0.00     0.183 C 
BRANCH   3   8
HETATM    8  C1  UNL     1       3.484  12.244  52.252  1.00  0.00     0.198 C 
BRANCH   8   9
HETATM    9  O1  UNL     1       4.346  13.272  52.620  1.00  0.00    -0.398 OA
ATOM     10  H1  UNL     1       5.117  12.903  53.036  1.00  0.00     0.209 HD
ENDBRANCH   8   9
ENDBRANCH   3   8
BRANCH   5  11
HETATM   11  O3  UNL     1       3.373  12.842  47.689  1.00  0.00    -0.369 OA
ATOM     12  H3  UNL     1       4.150  13.369  47.550  1.00  0.00     0.212 HD
ENDBRANCH   5  11
BRANCH   6  13
HETATM   13  O4  UNL     1       5.236  10.775  47.225  1.00  0.00    -0.388 OA
ATOM     14  H4  UNL     1       4.904  11.310  46.514  1.00  0.00     0.210 HD
ENDBRANCH   6  13
BRANCH   7  15
HETATM   15  O5  UNL     1       6.601   9.780  49.434  1.00  0.00    -0.390 OA
ATOM     16  H5  UNL     1       6.770   9.141  50.117  1.00  0.00     0.210 HD
ENDBRANCH   7  15
ENDBRANCH   1   2
BRANCH   1  17
HETATM   17  C7  UNL     1       7.066  10.945  52.408  1.00  0.00     0.292 C 
HETATM   18  O7  UNL     1       8.102  10.084  52.142  1.00  0.00    -0.348 OA
HETATM   19  C8  UNL     1       8.306   9.039  52.993  1.00  0.00     0.179 C 
HETATM   20  C10 UNL     1       8.575   9.513  54.411  1.00  0.00     0.180 C 
HETATM   21  C11 UNL     1       8.345  11.013  54.483  1.00  0.00     0.183 C 
HETATM   22  C12 UNL     1       7.052  11.390  53.797  1.00  0.00     0.204 C 
BRANCH  19  23
HETATM   23  C9  UNL     1       7.089   8.158  53.032  1.00  0.00     0.198 C 
BRANCH  23  24
HETATM   24  O8  UNL     1       7.347   6.893  53.554  1.00  0.00    -0.398 OA
ATOM     25  H8  UNL     1       7.178   6.834  54.487  1.00  0.00     0.209 HD
ENDBRANCH  23  24
ENDBRANCH  19  23
BRANCH  20  26
HETATM   26  O9  UNL     1       7.800   8.890  55.357  1.00  0.00    -0.390 OA
ATOM     27  H9  UNL     1       8.299   8.515  56.074  1.00  0.00     0.210 HD
ENDBRANCH  20  26
BRANCH  21  28
HETATM   28  O10 UNL     1       8.423  11.454  55.779  1.00  0.00    -0.390 OA
ATOM     29  H10 UNL     1       9.322  11.658  56.012  1.00  0.00     0.210 HD
ENDBRANCH  21  28
BRANCH  22  30
HETATM   30  O11 UNL     1       6.942  12.770  53.981  1.00  0.00    -0.388 OA
ATOM     31  H11 UNL     1       6.660  13.043  54.846  1.00  0.00     0.210 HD
ENDBRANCH  22  30
ENDBRANCH   1  17
TORSDOF 12
ENDMDL
