MODEL 2
REMARK VINA RESULT: -7.673512217      2.158      3.795
REMARK  12 active torsions:
REMARK  status: ('A' for Active; 'I' for Inactive)
REMARK    1  A    between atoms: O1_1  and  C1_3 
REMARK    2  A    between atoms: C1_3  and  C2_4 
REMARK    3  A    between atoms: C3_6  and  O3_7 
REMARK    4  A    between atoms: C4_9  and  O4_10 
REMARK    5  A    between atoms: C5_12  and  O5_13 
REMARK    6  A    between atoms: C6_15  and  O6_16 
REMARK    7  A    between atoms: O6_16  and  C7_17 
REMARK    8  A    between atoms: C8_19  and  C9_20 
REMARK    9  A    between atoms: C9_20  and  O8_21 
REMARK   10  A    between atoms: C10_23  and  O9_24 
REMARK   11  A    between atoms: C11_26  and  O10_27 
REMARK   12  A    between atoms: C12_29  and  O11_30 
ROOT
HETATM    1  O6  UNL     1       5.144  10.051  51.817  1.00  0.00    -0.348 OA
ENDROOT
BRANCH   1   2
HETATM    2  C6  UNL     1       5.850  10.121  52.961  1.00  0.00     0.187 C 
HETATM    3  C2  UNL     1       6.527  11.437  53.261  1.00  0.00     0.180 C 
HETATM    4  O2  UNL     1       7.081  11.334  54.550  1.00  0.00    -0.349 OA
HETATM    5  C3  UNL     1       8.152  10.445  54.532  1.00  0.00     0.288 C 
HETATM    6  C4  UNL     1       7.657   9.057  54.186  1.00  0.00     0.204 C 
HETATM    7  C5  UNL     1       7.045   9.150  52.803  1.00  0.00     0.183 C 
BRANCH   3   8
HETATM    8  C1  UNL     1       5.670  12.638  53.138  1.00  0.00     0.198 C 
BRANCH   8   9
HETATM    9  O1  UNL     1       5.269  12.784  51.814  1.00  0.00    -0.398 OA
ATOM     10  H1  UNL     1       4.326  12.683  51.757  1.00  0.00     0.209 HD
ENDBRANCH   8   9
ENDBRANCH   3   8
BRANCH   5  11
HETATM   11  O3  UNL     1       8.684  10.439  55.834  1.00  0.00    -0.369 OA
ATOM     12  H3  UNL     1       9.130   9.607  55.937  1.00  0.00     0.212 HD
ENDBRANCH   5  11
BRANCH   6  13
HETATM   13  O4  UNL     1       8.661   8.124  54.222  1.00  0.00    -0.388 OA
ATOM     14  H4  UNL     1       8.337   7.254  54.426  1.00  0.00     0.210 HD
ENDBRANCH   6  13
BRANCH   7  15
HETATM   15  O5  UNL     1       6.674   7.949  52.285  1.00  0.00    -0.390 OA
ATOM     16  H5  UNL     1       6.816   7.874  51.349  1.00  0.00     0.210 HD
ENDBRANCH   7  15
ENDBRANCH   1   2
BRANCH   1  17
HETATM   17  C7  UNL     1       3.816   9.693  51.919  1.00  0.00     0.292 C 
HETATM   18  O7  UNL     1       3.601   8.346  51.755  1.00  0.00    -0.348 OA
HETATM   19  C8  UNL     1       3.403   7.875  50.491  1.00  0.00     0.179 C 
HETATM   20  C10 UNL     1       2.200   8.524  49.830  1.00  0.00     0.180 C 
HETATM   21  C11 UNL     1       1.694   9.647  50.719  1.00  0.00     0.183 C 
HETATM   22  C12 UNL     1       2.840  10.506  51.203  1.00  0.00     0.204 C 
BRANCH  19  23
HETATM   23  C9  UNL     1       4.605   8.168  49.636  1.00  0.00     0.198 C 
BRANCH  23  24
HETATM   24  O8  UNL     1       5.577   7.174  49.702  1.00  0.00    -0.398 OA
ATOM     25  H8  UNL     1       6.436   7.509  49.930  1.00  0.00     0.209 HD
ENDBRANCH  23  24
ENDBRANCH  19  23
BRANCH  20  26
HETATM   26  O9  UNL     1       2.459   9.020  48.577  1.00  0.00    -0.390 OA
ATOM     27  H9  UNL     1       2.276   8.405  47.877  1.00  0.00     0.210 HD
ENDBRANCH  20  26
BRANCH  21  28
HETATM   28  O10 UNL     1       0.708  10.361  50.086  1.00  0.00    -0.390 OA
ATOM     29  H10 UNL     1       0.994  10.635  49.222  1.00  0.00     0.210 HD
ENDBRANCH  21  28
BRANCH  22  30
HETATM   30  O11 UNL     1       2.236  11.514  51.956  1.00  0.00    -0.388 OA
ATOM     31  H11 UNL     1       1.341  11.721  51.713  1.00  0.00     0.210 HD
ENDBRANCH  22  30
ENDBRANCH   1  17
TORSDOF 12
ENDMDL
