MODEL 10
REMARK VINA RESULT: -7.539590619      1.151      2.702
REMARK  6 active torsions:
REMARK  status: ('A' for Active; 'I' for Inactive)
REMARK    1  A    between atoms: C3_3  and  C4_4 
REMARK    2  A    between atoms: C5_5  and  C6_6 
REMARK    3  A    between atoms: C8_8  and  C9_9 
REMARK    4  A    between atoms: C10_10  and  C11_11 
REMARK    5  A    between atoms: C13_13  and  C14_14 
REMARK    6  A    between atoms: C14_14  and  O1_15 
ROOT
HETATM    1  C4  UNL     1       9.500  -1.044  56.703  1.00  0.00     0.009 C 
HETATM    2  C5  UNL     1       8.477  -1.727  57.127  1.00  0.00     0.007 C 
ENDROOT
BRANCH   2   3
HETATM    3  C6  UNL     1       7.097  -1.167  57.174  1.00  0.00    -0.062 C 
HETATM    4  C7  UNL     1       6.778   0.258  57.203  1.00  0.00     0.048 C 
HETATM    5  C8  UNL     1       6.070  -2.014  57.190  1.00  0.00     0.007 C 
BRANCH   5   6
HETATM    6  C9  UNL     1       4.678  -1.541  57.237  1.00  0.00     0.001 C 
HETATM    7  C10 UNL     1       4.167  -1.130  58.375  1.00  0.00     0.006 C 
BRANCH   7   8
HETATM    8  C11 UNL     1       2.807  -0.662  58.449  1.00  0.00    -0.064 C 
HETATM    9  C12 UNL     1       1.891  -0.846  57.328  1.00  0.00     0.048 C 
HETATM   10  C13 UNL     1       2.416  -0.056  59.550  1.00  0.00     0.005 C 
BRANCH  10  11
HETATM   11  C14 UNL     1       1.077   0.476  59.788  1.00  0.00     0.192 C 
BRANCH  11  12
HETATM   12  O1  UNL     1       0.419  -0.472  60.613  1.00  0.00    -0.397 OA
ATOM     13  H1  UNL     1       0.374  -0.082  61.478  1.00  0.00     0.209 HD
ENDBRANCH  11  12
ENDBRANCH  10  11
ENDBRANCH   7   8
ENDBRANCH   5   6
ENDBRANCH   2   3
BRANCH   1  14
HETATM   14  C3  UNL     1      10.864  -1.552  56.641  1.00  0.00    -0.048 C 
HETATM   15  C2  UNL     1      11.594  -1.431  57.743  1.00  0.00    -0.077 C 
HETATM   16  C1  UNL     1      10.979  -0.799  58.943  1.00  0.00     0.044 C 
HETATM   17  C20 UNL     1      12.973  -1.884  57.834  1.00  0.00     0.034 C 
HETATM   18  C19 UNL     1      13.650  -2.009  56.488  1.00  0.00     0.005 C 
HETATM   19  C18 UNL     1      12.787  -2.707  55.500  1.00  0.00     0.014 C 
HETATM   20  C15 UNL     1      11.369  -2.161  55.409  1.00  0.00    -0.020 C 
HETATM   21  C16 UNL     1      11.286  -1.145  54.290  1.00  0.00     0.020 C 
HETATM   22  C17 UNL     1      10.502  -3.347  55.054  1.00  0.00     0.020 C 
ENDBRANCH   1  14
TORSDOF 6
ENDMDL
