MODEL 3
REMARK VINA RESULT: -7.759644336      1.973      3.321
REMARK  6 active torsions:
REMARK  status: ('A' for Active; 'I' for Inactive)
REMARK    1  A    between atoms: C3_3  and  C4_4 
REMARK    2  A    between atoms: C5_5  and  C6_6 
REMARK    3  A    between atoms: C8_8  and  C9_9 
REMARK    4  A    between atoms: C10_10  and  C11_11 
REMARK    5  A    between atoms: C13_13  and  C14_14 
REMARK    6  A    between atoms: C14_14  and  O1_15 
ROOT
HETATM    1  C4  UNL     1       9.444  -1.194  56.835  1.00  0.00     0.009 C 
HETATM    2  C5  UNL     1       8.455  -1.999  57.093  1.00  0.00     0.007 C 
ENDROOT
BRANCH   2   3
HETATM    3  C6  UNL     1       7.079  -1.515  57.392  1.00  0.00    -0.062 C 
HETATM    4  C7  UNL     1       6.763  -0.215  57.977  1.00  0.00     0.048 C 
HETATM    5  C8  UNL     1       6.051  -2.314  57.111  1.00  0.00     0.007 C 
BRANCH   5   6
HETATM    6  C9  UNL     1       4.662  -1.911  57.377  1.00  0.00     0.001 C 
HETATM    7  C10 UNL     1       3.923  -1.434  56.400  1.00  0.00     0.006 C 
BRANCH   7   8
HETATM    8  C11 UNL     1       2.560  -1.033  56.631  1.00  0.00    -0.064 C 
HETATM    9  C12 UNL     1       2.013  -0.988  57.984  1.00  0.00     0.048 C 
HETATM   10  C13 UNL     1       1.819  -0.716  55.591  1.00  0.00     0.005 C 
BRANCH  10  11
HETATM   11  C14 UNL     1       0.424  -0.288  55.651  1.00  0.00     0.192 C 
BRANCH  11  12
HETATM   12  O1  UNL     1      -0.259  -1.036  54.657  1.00  0.00    -0.397 OA
ATOM     13  H1  UNL     1      -0.636  -0.398  54.061  1.00  0.00     0.209 HD
ENDBRANCH  11  12
ENDBRANCH  10  11
ENDBRANCH   7   8
ENDBRANCH   5   6
ENDBRANCH   2   3
BRANCH   1  14
HETATM   14  C3  UNL     1      10.804  -1.624  56.538  1.00  0.00    -0.048 C 
HETATM   15  C2  UNL     1      11.673  -1.581  57.541  1.00  0.00    -0.077 C 
HETATM   16  C1  UNL     1      11.207  -1.108  58.873  1.00  0.00     0.044 C 
HETATM   17  C20 UNL     1      13.067  -1.972  57.399  1.00  0.00     0.034 C 
HETATM   18  C19 UNL     1      13.557  -1.923  55.970  1.00  0.00     0.005 C 
HETATM   19  C18 UNL     1      12.592  -2.558  55.034  1.00  0.00     0.014 C 
HETATM   20  C15 UNL     1      11.157  -2.077  55.192  1.00  0.00    -0.020 C 
HETATM   21  C16 UNL     1      10.886  -0.956  54.211  1.00  0.00     0.020 C 
HETATM   22  C17 UNL     1      10.292  -3.261  54.828  1.00  0.00     0.020 C 
ENDBRANCH   1  14
TORSDOF 6
ENDMDL
