MODEL 15
REMARK VINA RESULT: -7.325686067      4.356      8.744
REMARK  6 active torsions:
REMARK  status: ('A' for Active; 'I' for Inactive)
REMARK    1  A    between atoms: C3_3  and  C4_4 
REMARK    2  A    between atoms: C5_5  and  C6_6 
REMARK    3  A    between atoms: C8_8  and  C9_9 
REMARK    4  A    between atoms: C10_10  and  C11_11 
REMARK    5  A    between atoms: C13_13  and  C14_14 
REMARK    6  A    between atoms: C14_14  and  O1_15 
ROOT
HETATM    1  C4  UNL     1       7.087   1.738  56.696  1.00  0.00     0.009 C 
HETATM    2  C5  UNL     1       6.962   0.443  56.691  1.00  0.00     0.007 C 
ENDROOT
BRANCH   2   3
HETATM    3  C6  UNL     1       7.981  -0.468  57.284  1.00  0.00    -0.062 C 
HETATM    4  C7  UNL     1       7.965  -1.923  57.167  1.00  0.00     0.048 C 
HETATM    5  C8  UNL     1       8.987   0.069  57.973  1.00  0.00     0.007 C 
BRANCH   5   6
HETATM    6  C9  UNL     1      10.033  -0.760  58.589  1.00  0.00     0.001 C 
HETATM    7  C10 UNL     1      11.258  -0.297  58.689  1.00  0.00     0.006 C 
BRANCH   7   8
HETATM    8  C11 UNL     1      12.301  -1.087  59.289  1.00  0.00    -0.064 C 
HETATM    9  C12 UNL     1      12.138  -1.651  60.625  1.00  0.00     0.048 C 
HETATM   10  C13 UNL     1      13.408  -1.280  58.603  1.00  0.00     0.005 C 
BRANCH  10  11
HETATM   11  C14 UNL     1      14.559  -2.055  59.063  1.00  0.00     0.192 C 
BRANCH  11  12
HETATM   12  O1  UNL     1      15.398  -1.141  59.749  1.00  0.00    -0.397 OA
ATOM     13  H1  UNL     1      15.201  -0.283  59.392  1.00  0.00     0.209 HD
ENDBRANCH  11  12
ENDBRANCH  10  11
ENDBRANCH   7   8
ENDBRANCH   5   6
ENDBRANCH   2   3
BRANCH   1  14
HETATM   14  C3  UNL     1       6.116   2.663  56.128  1.00  0.00    -0.048 C 
HETATM   15  C2  UNL     1       5.218   3.170  56.965  1.00  0.00    -0.077 C 
HETATM   16  C1  UNL     1       5.267   2.767  58.397  1.00  0.00     0.044 C 
HETATM   17  C20 UNL     1       4.181   4.101  56.547  1.00  0.00     0.034 C 
HETATM   18  C19 UNL     1       3.884   4.037  55.067  1.00  0.00     0.005 C 
HETATM   19  C18 UNL     1       5.130   4.024  54.255  1.00  0.00     0.014 C 
HETATM   20  C15 UNL     1       6.159   2.997  54.703  1.00  0.00    -0.020 C 
HETATM   21  C16 UNL     1       5.996   1.726  53.898  1.00  0.00     0.020 C 
HETATM   22  C17 UNL     1       7.504   3.607  54.381  1.00  0.00     0.020 C 
ENDBRANCH   1  14
TORSDOF 6
ENDMDL
