MODEL 8
REMARK VINA RESULT: -7.589962687      1.917      2.972
REMARK  6 active torsions:
REMARK  status: ('A' for Active; 'I' for Inactive)
REMARK    1  A    between atoms: C3_3  and  C4_4 
REMARK    2  A    between atoms: C5_5  and  C6_6 
REMARK    3  A    between atoms: C8_8  and  C9_9 
REMARK    4  A    between atoms: C10_10  and  C11_11 
REMARK    5  A    between atoms: C13_13  and  C14_14 
REMARK    6  A    between atoms: C14_14  and  O1_15 
ROOT
HETATM    1  C4  UNL     1      10.885  -0.916  57.469  1.00  0.00     0.009 C 
HETATM    2  C5  UNL     1       9.725  -1.333  57.885  1.00  0.00     0.007 C 
ENDROOT
BRANCH   2   3
HETATM    3  C6  UNL     1       8.447  -0.966  57.211  1.00  0.00    -0.062 C 
HETATM    4  C7  UNL     1       8.349  -0.161  55.997  1.00  0.00     0.048 C 
HETATM    5  C8  UNL     1       7.304  -1.395  57.743  1.00  0.00     0.007 C 
BRANCH   5   6
HETATM    6  C9  UNL     1       6.002  -1.075  57.140  1.00  0.00     0.001 C 
HETATM    7  C10 UNL     1       4.933  -1.748  57.503  1.00  0.00     0.006 C 
BRANCH   7   8
HETATM    8  C11 UNL     1       3.645  -1.455  56.929  1.00  0.00    -0.064 C 
HETATM    9  C12 UNL     1       2.463  -1.318  57.775  1.00  0.00     0.048 C 
HETATM   10  C13 UNL     1       3.561  -1.322  55.623  1.00  0.00     0.005 C 
BRANCH  10  11
HETATM   11  C14 UNL     1       2.336  -1.025  54.884  1.00  0.00     0.192 C 
BRANCH  11  12
HETATM   12  O1  UNL     1       2.166  -2.088  53.961  1.00  0.00    -0.397 OA
ATOM     13  H1  UNL     1       1.543  -2.685  54.359  1.00  0.00     0.209 HD
ENDBRANCH  11  12
ENDBRANCH  10  11
ENDBRANCH   7   8
ENDBRANCH   5   6
ENDBRANCH   2   3
BRANCH   1  14
HETATM   14  C3  UNL     1      12.156  -1.251  58.096  1.00  0.00    -0.048 C 
HETATM   15  C2  UNL     1      12.453  -0.605  59.218  1.00  0.00    -0.077 C 
HETATM   16  C1  UNL     1      11.485   0.395  59.747  1.00  0.00     0.044 C 
HETATM   17  C20 UNL     1      13.688  -0.825  59.955  1.00  0.00     0.034 C 
HETATM   18  C19 UNL     1      14.790  -1.420  59.110  1.00  0.00     0.005 C 
HETATM   19  C18 UNL     1      14.300  -2.555  58.285  1.00  0.00     0.014 C 
HETATM   20  C15 UNL     1      13.035  -2.255  57.494  1.00  0.00    -0.020 C 
HETATM   21  C16 UNL     1      13.402  -1.808  56.095  1.00  0.00     0.020 C 
HETATM   22  C17 UNL     1      12.293  -3.569  57.406  1.00  0.00     0.020 C 
ENDBRANCH   1  14
TORSDOF 6
ENDMDL
