MODEL 9
REMARK VINA RESULT: -7.581912137      0.790      2.140
REMARK  6 active torsions:
REMARK  status: ('A' for Active; 'I' for Inactive)
REMARK    1  A    between atoms: C3_3  and  C4_4 
REMARK    2  A    between atoms: C5_5  and  C6_6 
REMARK    3  A    between atoms: C8_8  and  C9_9 
REMARK    4  A    between atoms: C10_10  and  C11_11 
REMARK    5  A    between atoms: C13_13  and  C14_14 
REMARK    6  A    between atoms: C14_14  and  O1_15 
ROOT
HETATM    1  C4  UNL     1      10.475  -1.960  58.056  1.00  0.00     0.009 C 
HETATM    2  C5  UNL     1       9.686  -1.013  57.641  1.00  0.00     0.007 C 
ENDROOT
BRANCH   2   3
HETATM    3  C6  UNL     1       8.229  -1.221  57.411  1.00  0.00    -0.062 C 
HETATM    4  C7  UNL     1       7.633  -2.463  56.925  1.00  0.00     0.048 C 
HETATM    5  C8  UNL     1       7.396  -0.213  57.662  1.00  0.00     0.007 C 
BRANCH   5   6
HETATM    6  C9  UNL     1       5.946  -0.337  57.460  1.00  0.00     0.001 C 
HETATM    7  C10 UNL     1       5.139  -0.326  58.497  1.00  0.00     0.006 C 
BRANCH   7   8
HETATM    8  C11 UNL     1       3.714  -0.446  58.328  1.00  0.00    -0.064 C 
HETATM    9  C12 UNL     1       3.154  -1.261  57.254  1.00  0.00     0.048 C 
HETATM   10  C13 UNL     1       2.932   0.206  59.162  1.00  0.00     0.005 C 
BRANCH  10  11
HETATM   11  C14 UNL     1       1.471   0.192  59.130  1.00  0.00     0.192 C 
BRANCH  11  12
HETATM   12  O1  UNL     1       1.062  -0.597  60.236  1.00  0.00    -0.397 OA
ATOM     13  H1  UNL     1       0.502  -0.039  60.763  1.00  0.00     0.209 HD
ENDBRANCH  11  12
ENDBRANCH  10  11
ENDBRANCH   7   8
ENDBRANCH   5   6
ENDBRANCH   2   3
BRANCH   1  14
HETATM   14  C3  UNL     1      11.903  -1.800  58.293  1.00  0.00    -0.048 C 
HETATM   15  C2  UNL     1      12.255  -1.230  59.440  1.00  0.00    -0.077 C 
HETATM   16  C1  UNL     1      11.186  -0.805  60.385  1.00  0.00     0.044 C 
HETATM   17  C20 UNL     1      13.641  -0.996  59.816  1.00  0.00     0.034 C 
HETATM   18  C19 UNL     1      14.582  -0.963  58.635  1.00  0.00     0.005 C 
HETATM   19  C18 UNL     1      14.331  -2.090  57.699  1.00  0.00     0.014 C 
HETATM   20  C15 UNL     1      12.874  -2.259  57.297  1.00  0.00    -0.020 C 
HETATM   21  C16 UNL     1      12.617  -1.534  55.993  1.00  0.00     0.020 C 
HETATM   22  C17 UNL     1      12.686  -3.742  57.074  1.00  0.00     0.020 C 
ENDBRANCH   1  14
TORSDOF 6
ENDMDL
