MODEL 13
REMARK VINA RESULT: -7.487814307      3.460      8.850
REMARK  6 active torsions:
REMARK  status: ('A' for Active; 'I' for Inactive)
REMARK    1  A    between atoms: C3_3  and  C4_4 
REMARK    2  A    between atoms: C5_5  and  C6_6 
REMARK    3  A    between atoms: C8_8  and  C9_9 
REMARK    4  A    between atoms: C10_10  and  C11_11 
REMARK    5  A    between atoms: C13_13  and  C14_14 
REMARK    6  A    between atoms: C14_14  and  O1_15 
ROOT
HETATM    1  C4  UNL     1       6.712  -0.240  57.165  1.00  0.00     0.009 C 
HETATM    2  C5  UNL     1       7.530  -1.249  57.094  1.00  0.00     0.007 C 
ENDROOT
BRANCH   2   3
HETATM    3  C6  UNL     1       8.909  -1.210  57.657  1.00  0.00    -0.062 C 
HETATM    4  C7  UNL     1       9.274  -0.575  58.920  1.00  0.00     0.048 C 
HETATM    5  C8  UNL     1       9.890  -1.791  56.970  1.00  0.00     0.007 C 
BRANCH   5   6
HETATM    6  C9  UNL     1      11.278  -1.796  57.456  1.00  0.00     0.001 C 
HETATM    7  C10 UNL     1      12.269  -1.681  56.601  1.00  0.00     0.006 C 
BRANCH   7   8
HETATM    8  C11 UNL     1      13.637  -1.681  57.050  1.00  0.00    -0.064 C 
HETATM    9  C12 UNL     1      14.726  -1.368  56.130  1.00  0.00     0.048 C 
HETATM   10  C13 UNL     1      13.879  -1.980  58.308  1.00  0.00     0.005 C 
BRANCH  10  11
HETATM   11  C14 UNL     1      15.204  -2.024  58.923  1.00  0.00     0.192 C 
BRANCH  11  12
HETATM   12  O1  UNL     1      15.250  -0.939  59.835  1.00  0.00    -0.397 OA
ATOM     13  H1  UNL     1      15.640  -1.281  60.631  1.00  0.00     0.209 HD
ENDBRANCH  11  12
ENDBRANCH  10  11
ENDBRANCH   7   8
ENDBRANCH   5   6
ENDBRANCH   2   3
BRANCH   1  14
HETATM   14  C3  UNL     1       5.358  -0.235  56.629  1.00  0.00    -0.048 C 
HETATM   15  C2  UNL     1       5.155   0.484  55.531  1.00  0.00    -0.077 C 
HETATM   16  C1  UNL     1       6.304   1.218  54.934  1.00  0.00     0.044 C 
HETATM   17  C20 UNL     1       3.857   0.591  54.882  1.00  0.00     0.034 C 
HETATM   18  C19 UNL     1       2.702   0.276  55.804  1.00  0.00     0.005 C 
HETATM   19  C18 UNL     1       2.948  -0.959  56.593  1.00  0.00     0.014 C 
HETATM   20  C15 UNL     1       4.299  -0.999  57.292  1.00  0.00    -0.020 C 
HETATM   21  C16 UNL     1       4.152  -0.498  58.714  1.00  0.00     0.020 C 
HETATM   22  C17 UNL     1       4.692  -2.457  57.328  1.00  0.00     0.020 C 
ENDBRANCH   1  14
TORSDOF 6
ENDMDL
