MODEL 12
REMARK VINA RESULT: -7.493278220      3.581      8.692
REMARK  6 active torsions:
REMARK  status: ('A' for Active; 'I' for Inactive)
REMARK    1  A    between atoms: C3_3  and  C4_4 
REMARK    2  A    between atoms: C5_5  and  C6_6 
REMARK    3  A    between atoms: C8_8  and  C9_9 
REMARK    4  A    between atoms: C10_10  and  C11_11 
REMARK    5  A    between atoms: C13_13  and  C14_14 
REMARK    6  A    between atoms: C14_14  and  O1_15 
ROOT
HETATM    1  C4  UNL     1       6.391  -0.591  57.896  1.00  0.00     0.009 C 
HETATM    2  C5  UNL     1       7.280  -0.863  56.986  1.00  0.00     0.007 C 
ENDROOT
BRANCH   2   3
HETATM    3  C6  UNL     1       8.703  -1.159  57.312  1.00  0.00    -0.062 C 
HETATM    4  C7  UNL     1       9.523  -2.154  56.627  1.00  0.00     0.048 C 
HETATM    5  C8  UNL     1       9.283  -0.477  58.298  1.00  0.00     0.007 C 
BRANCH   5   6
HETATM    6  C9  UNL     1      10.683  -0.711  58.681  1.00  0.00     0.001 C 
HETATM    7  C10 UNL     1      11.026  -0.676  59.949  1.00  0.00     0.006 C 
BRANCH   7   8
HETATM    8  C11 UNL     1      12.389  -0.902  60.353  1.00  0.00    -0.064 C 
HETATM    9  C12 UNL     1      12.742  -1.018  61.765  1.00  0.00     0.048 C 
HETATM   10  C13 UNL     1      13.309  -0.993  59.416  1.00  0.00     0.005 C 
BRANCH  10  11
HETATM   11  C14 UNL     1      14.733  -1.221  59.654  1.00  0.00     0.192 C 
BRANCH  11  12
HETATM   12  O1  UNL     1      15.292  -1.554  58.394  1.00  0.00    -0.397 OA
ATOM     13  H1  UNL     1      15.222  -0.770  57.860  1.00  0.00     0.209 HD
ENDBRANCH  11  12
ENDBRANCH  10  11
ENDBRANCH   7   8
ENDBRANCH   5   6
ENDBRANCH   2   3
BRANCH   1  14
HETATM   14  C3  UNL     1       4.991  -0.295  57.622  1.00  0.00    -0.048 C 
HETATM   15  C2  UNL     1       4.189  -1.337  57.437  1.00  0.00    -0.077 C 
HETATM   16  C1  UNL     1       4.764  -2.707  57.524  1.00  0.00     0.044 C 
HETATM   17  C20 UNL     1       2.769  -1.202  57.148  1.00  0.00     0.034 C 
HETATM   18  C19 UNL     1       2.403   0.146  56.573  1.00  0.00     0.005 C 
HETATM   19  C18 UNL     1       3.033   1.258  57.332  1.00  0.00     0.014 C 
HETATM   20  C15 UNL     1       4.528   1.093  57.563  1.00  0.00    -0.020 C 
HETATM   21  C16 UNL     1       5.295   1.819  56.478  1.00  0.00     0.020 C 
HETATM   22  C17 UNL     1       4.809   1.762  58.888  1.00  0.00     0.020 C 
ENDBRANCH   1  14
TORSDOF 6
ENDMDL
