MODEL 2
REMARK VINA RESULT: -6.007248463      8.917     13.352
REMARK  12 active torsions:
REMARK  status: ('A' for Active; 'I' for Inactive)
REMARK    1  A    between atoms: N1_1  and  C1_5 
REMARK    2  A    between atoms: C2_6  and  O1_7 
REMARK    3  A    between atoms: O1_7  and  C3_8 
REMARK    4  A    between atoms: C4_9  and  O2_10 
REMARK    5  A    between atoms: C5_12  and  O3_13 
REMARK    6  A    between atoms: C6_15  and  O4_16 
REMARK    7  A    between atoms: C7_18  and  O5_19 
REMARK    8  A    between atoms: C8_21  and  O6_22 
REMARK    9  A    between atoms: C9_25  and  C10_26 
REMARK   10  A    between atoms: C10_26  and  O8_27 
REMARK   11  A    between atoms: C11_29  and  O9_30 
REMARK   12  A    between atoms: C12_32  and  O10_33 
ROOT
HETATM    1  C1  UNL     1      17.556  25.212 100.658  1.00  0.00     0.269 C 
HETATM    2  C2  UNL     1      16.900  25.455 101.965  1.00  0.00     0.294 C 
HETATM    3  O7  UNL     1      17.687  26.016 102.934  1.00  0.00    -0.349 OA
HETATM    4  C9  UNL     1      18.525  27.013 102.507  1.00  0.00     0.179 C 
HETATM    5  C11 UNL     1      19.540  26.454 101.577  1.00  0.00     0.180 C 
HETATM    6  C12 UNL     1      19.005  25.491 100.586  1.00  0.00     0.184 C 
ENDROOT
BRANCH   2   7
HETATM    7  O1  UNL     1      16.402  24.244 102.474  1.00  0.00    -0.348 OA
BRANCH   7   8
HETATM    8  C3  UNL     1      15.416  24.420 103.414  1.00  0.00     0.187 C 
HETATM    9  C4  UNL     1      15.555  23.451 104.580  1.00  0.00     0.181 C 
HETATM   10  C5  UNL     1      15.073  22.106 104.079  1.00  0.00     0.180 C 
HETATM   11  C6  UNL     1      13.585  22.162 103.966  1.00  0.00     0.180 C 
HETATM   12  C7  UNL     1      13.081  23.495 103.501  1.00  0.00     0.180 C 
HETATM   13  C8  UNL     1      14.085  24.302 102.758  1.00  0.00     0.181 C 
BRANCH   9  14
HETATM   14  O2  UNL     1      14.827  23.877 105.665  1.00  0.00    -0.390 OA
ATOM     15  H2  UNL     1      15.346  24.444 106.223  1.00  0.00     0.210 HD
ENDBRANCH   9  14
BRANCH  10  16
HETATM   16  O3  UNL     1      15.652  21.915 102.823  1.00  0.00    -0.390 OA
ATOM     17  H3  UNL     1      16.091  21.073 102.851  1.00  0.00     0.210 HD
ENDBRANCH  10  16
BRANCH  11  18
HETATM   18  O4  UNL     1      13.141  21.112 103.143  1.00  0.00    -0.390 OA
ATOM     19  H4  UNL     1      12.852  21.466 102.311  1.00  0.00     0.210 HD
ENDBRANCH  11  18
BRANCH  12  20
HETATM   20  O5  UNL     1      12.468  24.224 104.543  1.00  0.00    -0.390 OA
ATOM     21  H5  UNL     1      11.782  24.798 104.222  1.00  0.00     0.210 HD
ENDBRANCH  12  20
BRANCH  13  22
HETATM   22  O6  UNL     1      13.542  25.597 102.592  1.00  0.00    -0.390 OA
ATOM     23  H6  UNL     1      14.127  26.108 102.044  1.00  0.00     0.210 HD
ENDBRANCH  13  22
ENDBRANCH   7   8
ENDBRANCH   2   7
BRANCH   1  24
HETATM   24  N1  UNL     1      17.358  23.812 100.242  1.00  0.00    -0.068 N 
ATOM     25  H13 UNL     1      17.149  23.205 101.034  1.00  0.00     0.275 HD
ATOM     26  H12 UNL     1      16.487  23.689  99.724  1.00  0.00     0.275 HD
ATOM     27  H11 UNL     1      18.166  23.485  99.713  1.00  0.00     0.275 HD
ENDBRANCH   1  24
BRANCH   6  28
HETATM   28  O10 UNL     1      19.305  25.946  99.280  1.00  0.00    -0.391 OA
ATOM     29  H10 UNL     1      20.163  26.353  99.297  1.00  0.00     0.210 HD
ENDBRANCH   6  28
BRANCH   4  30
HETATM   30  C10 UNL     1      17.819  28.188 101.883  1.00  0.00     0.198 C 
BRANCH  30  31
HETATM   31  O8  UNL     1      18.487  28.700 100.788  1.00  0.00    -0.398 OA
ATOM     32  H8  UNL     1      18.476  28.114 100.040  1.00  0.00     0.209 HD
ENDBRANCH  30  31
ENDBRANCH   4  30
BRANCH   5  33
HETATM   33  O9  UNL     1      20.562  25.880 102.366  1.00  0.00    -0.390 OA
ATOM     34  H9  UNL     1      20.590  24.953 102.162  1.00  0.00     0.210 HD
ENDBRANCH   5  33
TORSDOF 12
ENDMDL
