MODEL 3
REMARK VINA RESULT: -5.997656262      8.825     11.903
REMARK  12 active torsions:
REMARK  status: ('A' for Active; 'I' for Inactive)
REMARK    1  A    between atoms: N1_1  and  C1_5 
REMARK    2  A    between atoms: C2_6  and  O1_7 
REMARK    3  A    between atoms: O1_7  and  C3_8 
REMARK    4  A    between atoms: C4_9  and  O2_10 
REMARK    5  A    between atoms: C5_12  and  O3_13 
REMARK    6  A    between atoms: C6_15  and  O4_16 
REMARK    7  A    between atoms: C7_18  and  O5_19 
REMARK    8  A    between atoms: C8_21  and  O6_22 
REMARK    9  A    between atoms: C9_25  and  C10_26 
REMARK   10  A    between atoms: C10_26  and  O8_27 
REMARK   11  A    between atoms: C11_29  and  O9_30 
REMARK   12  A    between atoms: C12_32  and  O10_33 
ROOT
HETATM    1  C1  UNL     1      15.853  24.059 104.016  1.00  0.00     0.269 C 
HETATM    2  C2  UNL     1      15.741  24.939 102.829  1.00  0.00     0.294 C 
HETATM    3  O7  UNL     1      14.639  24.743 102.042  1.00  0.00    -0.349 OA
HETATM    4  C9  UNL     1      13.468  24.520 102.715  1.00  0.00     0.179 C 
HETATM    5  C11 UNL     1      13.547  23.231 103.452  1.00  0.00     0.180 C 
HETATM    6  C12 UNL     1      14.834  22.999 104.150  1.00  0.00     0.184 C 
ENDROOT
BRANCH   2   7
HETATM    7  O1  UNL     1      16.875  24.779 102.016  1.00  0.00    -0.348 OA
BRANCH   7   8
HETATM    8  C3  UNL     1      17.171  25.899 101.277  1.00  0.00     0.187 C 
HETATM    9  C4  UNL     1      18.306  25.654 100.292  1.00  0.00     0.181 C 
HETATM   10  C5  UNL     1      19.584  25.645 101.105  1.00  0.00     0.180 C 
HETATM   11  C6  UNL     1      19.886  27.052 101.503  1.00  0.00     0.180 C 
HETATM   12  C7  UNL     1      18.659  27.850 101.822  1.00  0.00     0.180 C 
HETATM   13  C8  UNL     1      17.477  27.028 102.197  1.00  0.00     0.181 C 
BRANCH   9  14
HETATM   14  O2  UNL     1      18.332  26.624  99.319  1.00  0.00    -0.390 OA
ATOM     15  H2  UNL     1      17.581  26.549  98.743  1.00  0.00     0.210 HD
ENDBRANCH   9  14
BRANCH  10  16
HETATM   16  O3  UNL     1      19.337  24.860 102.233  1.00  0.00    -0.390 OA
ATOM     17  H3  UNL     1      20.122  24.347 102.385  1.00  0.00     0.210 HD
ENDBRANCH  10  16
BRANCH  11  18
HETATM   18  O4  UNL     1      20.806  27.047 102.567  1.00  0.00    -0.390 OA
ATOM     19  H4  UNL     1      21.128  27.929 102.708  1.00  0.00     0.210 HD
ENDBRANCH  11  18
BRANCH  12  20
HETATM   20  O5  UNL     1      18.361  28.793 100.815  1.00  0.00    -0.390 OA
ATOM     21  H5  UNL     1      17.425  28.908 100.698  1.00  0.00     0.210 HD
ENDBRANCH  12  20
BRANCH  13  22
HETATM   22  O6  UNL     1      16.361  27.895 102.243  1.00  0.00    -0.390 OA
ATOM     23  H6  UNL     1      16.105  28.019 103.150  1.00  0.00     0.210 HD
ENDBRANCH  13  22
ENDBRANCH   7   8
ENDBRANCH   2   7
BRANCH   1  24
HETATM   24  N1  UNL     1      17.173  23.403 104.041  1.00  0.00    -0.068 N 
ATOM     25  H13 UNL     1      17.161  22.542 104.587  1.00  0.00     0.275 HD
ATOM     26  H12 UNL     1      17.417  23.003 103.135  1.00  0.00     0.275 HD
ATOM     27  H11 UNL     1      17.884  24.055 104.373  1.00  0.00     0.275 HD
ENDBRANCH   1  24
BRANCH   6  28
HETATM   28  O10 UNL     1      14.588  22.790 105.528  1.00  0.00    -0.391 OA
ATOM     29  H10 UNL     1      14.425  21.864 105.664  1.00  0.00     0.210 HD
ENDBRANCH   6  28
BRANCH   4  30
HETATM   30  C10 UNL     1      13.063  25.639 103.639  1.00  0.00     0.198 C 
BRANCH  30  31
HETATM   31  O8  UNL     1      12.473  25.190 104.805  1.00  0.00    -0.398 OA
ATOM     32  H8  UNL     1      12.753  24.316 105.050  1.00  0.00     0.209 HD
ENDBRANCH  30  31
ENDBRANCH   4  30
BRANCH   5  33
HETATM   33  O9  UNL     1      13.258  22.201 102.530  1.00  0.00    -0.390 OA
ATOM     34  H9  UNL     1      12.418  22.402 102.135  1.00  0.00     0.210 HD
ENDBRANCH   5  33
TORSDOF 12
ENDMDL
