MODEL 1
REMARK VINA RESULT: -6.187975186      0.000      0.000
REMARK  12 active torsions:
REMARK  status: ('A' for Active; 'I' for Inactive)
REMARK    1  A    between atoms: N1_1  and  C1_5 
REMARK    2  A    between atoms: C2_6  and  O1_7 
REMARK    3  A    between atoms: O1_7  and  C3_8 
REMARK    4  A    between atoms: C4_9  and  O2_10 
REMARK    5  A    between atoms: C5_12  and  O3_13 
REMARK    6  A    between atoms: C6_15  and  O4_16 
REMARK    7  A    between atoms: C7_18  and  O5_19 
REMARK    8  A    between atoms: C8_21  and  O6_22 
REMARK    9  A    between atoms: C9_25  and  C10_26 
REMARK   10  A    between atoms: C10_26  and  O8_27 
REMARK   11  A    between atoms: C11_29  and  O9_30 
REMARK   12  A    between atoms: C12_32  and  O10_33 
ROOT
HETATM    1  C1  UNL     1      26.894  23.442 100.905  1.00  0.00     0.269 C 
HETATM    2  C2  UNL     1      27.359  24.827 100.652  1.00  0.00     0.294 C 
HETATM    3  O7  UNL     1      26.391  25.794 100.667  1.00  0.00    -0.349 OA
HETATM    4  C9  UNL     1      25.446  25.667 101.649  1.00  0.00     0.179 C 
HETATM    5  C11 UNL     1      24.643  24.438 101.419  1.00  0.00     0.180 C 
HETATM    6  C12 UNL     1      25.434  23.248 101.024  1.00  0.00     0.184 C 
ENDROOT
BRANCH   2   7
HETATM    7  O1  UNL     1      28.000  24.888  99.404  1.00  0.00    -0.348 OA
BRANCH   7   8
HETATM    8  C3  UNL     1      28.937  25.889  99.328  1.00  0.00     0.187 C 
HETATM    9  C4  UNL     1      28.497  27.020  98.408  1.00  0.00     0.181 C 
HETATM   10  C5  UNL     1      28.676  26.512  96.992  1.00  0.00     0.180 C 
HETATM   11  C6  UNL     1      30.138  26.490  96.692  1.00  0.00     0.180 C 
HETATM   12  C7  UNL     1      30.974  26.091  97.870  1.00  0.00     0.180 C 
HETATM   13  C8  UNL     1      30.241  25.311  98.903  1.00  0.00     0.181 C 
BRANCH   9  14
HETATM   14  O2  UNL     1      29.234  28.156  98.635  1.00  0.00    -0.390 OA
ATOM     15  H2  UNL     1      29.869  28.294  97.942  1.00  0.00     0.210 HD
ENDBRANCH   9  14
BRANCH  10  16
HETATM   16  O3  UNL     1      28.149  25.220  96.959  1.00  0.00    -0.390 OA
ATOM     17  H3  UNL     1      28.402  24.843  96.124  1.00  0.00     0.210 HD
ENDBRANCH  10  16
BRANCH  11  18
HETATM   18  O4  UNL     1      30.371  25.668  95.575  1.00  0.00    -0.390 OA
ATOM     19  H4  UNL     1      31.075  26.037  95.055  1.00  0.00     0.210 HD
ENDBRANCH  11  18
BRANCH  12  20
HETATM   20  O5  UNL     1      31.675  27.187  98.419  1.00  0.00    -0.390 OA
ATOM     21  H5  UNL     1      32.616  27.085  98.340  1.00  0.00     0.210 HD
ENDBRANCH  12  20
BRANCH  13  22
HETATM   22  O6  UNL     1      31.086  25.212 100.031  1.00  0.00    -0.390 OA
ATOM     23  H6  UNL     1      31.592  24.410  99.967  1.00  0.00     0.210 HD
ENDBRANCH  13  22
ENDBRANCH   7   8
ENDBRANCH   2   7
BRANCH   1  24
HETATM   24  N1  UNL     1      27.370  22.543  99.838  1.00  0.00    -0.068 N 
ATOM     25  H13 UNL     1      28.281  22.826  99.479  1.00  0.00     0.275 HD
ATOM     26  H12 UNL     1      27.630  21.626 100.201  1.00  0.00     0.275 HD
ATOM     27  H11 UNL     1      26.672  22.477  99.097  1.00  0.00     0.275 HD
ENDBRANCH   1  24
BRANCH   6  28
HETATM   28  O10 UNL     1      25.199  22.201 101.945  1.00  0.00    -0.391 OA
ATOM     29  H10 UNL     1      24.873  22.581 102.752  1.00  0.00     0.210 HD
ENDBRANCH   6  28
BRANCH   4  30
HETATM   30  C10 UNL     1      26.003  25.686 103.048  1.00  0.00     0.198 C 
BRANCH  30  31
HETATM   31  O8  UNL     1      25.465  26.691 103.829  1.00  0.00    -0.398 OA
ATOM     32  H8  UNL     1      26.115  27.314 104.134  1.00  0.00     0.209 HD
ENDBRANCH  30  31
ENDBRANCH   4  30
BRANCH   5  33
HETATM   33  O9  UNL     1      23.657  24.753 100.459  1.00  0.00    -0.390 OA
ATOM     34  H9  UNL     1      23.773  24.158  99.727  1.00  0.00     0.210 HD
ENDBRANCH   5  33
TORSDOF 12
ENDMDL
