MODEL 1
REMARK VINA RESULT: -6.201867068      0.000      0.000
REMARK  1 active torsions:
REMARK  status: ('A' for Active; 'I' for Inactive)
REMARK    1  A    between atoms: C1_2  and  C2_4 
ROOT
HETATM    1  C2  UNL     1      11.942   3.731  24.150  1.00  0.00     0.040 A 
HETATM    2  C3  UNL     1      12.552   3.768  25.385  1.00  0.00     0.018 A 
HETATM    3  C4  UNL     1      13.197   2.657  25.899  1.00  0.00     0.001 A 
HETATM    4  C5  UNL     1      13.250   1.475  25.191  1.00  0.00     0.000 A 
HETATM    5  C6  UNL     1      12.646   1.422  23.957  1.00  0.00     0.001 A 
HETATM    6  C7  UNL     1      11.998   2.549  23.446  1.00  0.00     0.018 A 
ENDROOT
BRANCH   1   7
HETATM    7  C1  UNL     1      11.262   4.902  23.609  1.00  0.00     0.209 C 
HETATM    8  O1  UNL     1      10.826   4.952  22.433  1.00  0.00    -0.644 OA
HETATM    9  O2  UNL     1      11.057   6.048  24.381  1.00  0.00    -0.644 OA
ENDBRANCH   1   7
TORSDOF 1
ENDMDL
