MODEL 3
REMARK VINA RESULT: -6.143872874      0.064      1.060
REMARK  1 active torsions:
REMARK  status: ('A' for Active; 'I' for Inactive)
REMARK    1  A    between atoms: C1_2  and  C2_4 
ROOT
HETATM    1  C2  UNL     1      11.963   3.725  24.204  1.00  0.00     0.040 A 
HETATM    2  C3  UNL     1      12.576   3.741  25.438  1.00  0.00     0.018 A 
HETATM    3  C4  UNL     1      13.218   2.619  25.932  1.00  0.00     0.001 A 
HETATM    4  C5  UNL     1      13.264   1.448  25.205  1.00  0.00     0.000 A 
HETATM    5  C6  UNL     1      12.655   1.417  23.973  1.00  0.00     0.001 A 
HETATM    6  C7  UNL     1      12.010   2.555  23.481  1.00  0.00     0.018 A 
ENDROOT
BRANCH   1   7
HETATM    7  C1  UNL     1      11.286   4.908  23.684  1.00  0.00     0.209 C 
HETATM    8  O1  UNL     1      11.086   5.936  24.377  1.00  0.00    -0.644 OA
HETATM    9  O2  UNL     1      10.818   4.962  22.370  1.00  0.00    -0.644 OA
ENDBRANCH   1   7
TORSDOF 1
ENDMDL
