MODEL 4
REMARK VINA RESULT: -6.139883580      0.066      1.898
REMARK  1 active torsions:
REMARK  status: ('A' for Active; 'I' for Inactive)
REMARK    1  A    between atoms: C1_2  and  C2_4 
ROOT
HETATM    1  C2  UNL     1      11.962   3.723  24.202  1.00  0.00     0.040 A 
HETATM    2  C3  UNL     1      12.007   2.554  23.474  1.00  0.00     0.018 A 
HETATM    3  C4  UNL     1      12.648   1.429  23.964  1.00  0.00     0.001 A 
HETATM    4  C5  UNL     1      13.264   1.443  25.198  1.00  0.00     0.000 A 
HETATM    5  C6  UNL     1      13.228   2.602  25.936  1.00  0.00     0.001 A 
HETATM    6  C7  UNL     1      12.578   3.733  25.433  1.00  0.00     0.018 A 
ENDROOT
BRANCH   1   7
HETATM    7  C1  UNL     1      11.287   4.908  23.685  1.00  0.00     0.209 C 
HETATM    8  O1  UNL     1      11.089   5.934  24.379  1.00  0.00    -0.644 OA
HETATM    9  O2  UNL     1      10.817   4.964  22.371  1.00  0.00    -0.644 OA
ENDBRANCH   1   7
TORSDOF 1
ENDMDL
