MODEL 2
REMARK VINA RESULT: -6.199031859      0.014      1.575
REMARK  1 active torsions:
REMARK  status: ('A' for Active; 'I' for Inactive)
REMARK    1  A    between atoms: C1_2  and  C2_4 
ROOT
HETATM    1  C2  UNL     1      11.940   3.720  24.148  1.00  0.00     0.040 A 
HETATM    2  C3  UNL     1      12.000   2.538  23.443  1.00  0.00     0.018 A 
HETATM    3  C4  UNL     1      12.647   1.428  23.958  1.00  0.00     0.001 A 
HETATM    4  C5  UNL     1      13.254   1.471  25.196  1.00  0.00     0.000 A 
HETATM    5  C6  UNL     1      13.203   2.644  25.911  1.00  0.00     0.001 A 
HETATM    6  C7  UNL     1      12.547   3.759  25.383  1.00  0.00     0.018 A 
ENDROOT
BRANCH   1   7
HETATM    7  C1  UNL     1      11.259   4.889  23.603  1.00  0.00     0.209 C 
HETATM    8  O1  UNL     1      10.827   4.936  22.425  1.00  0.00    -0.644 OA
HETATM    9  O2  UNL     1      11.046   6.034  24.374  1.00  0.00    -0.644 OA
ENDBRANCH   1   7
TORSDOF 1
ENDMDL
