MODEL 5
REMARK VINA RESULT: -5.666764499      1.194      1.567
REMARK  1 active torsions:
REMARK  status: ('A' for Active; 'I' for Inactive)
REMARK    1  A    between atoms: C1_2  and  C2_4 
ROOT
HETATM    1  C2  UNL     1      11.877   4.743  24.388  1.00  0.00     0.040 A 
HETATM    2  C3  UNL     1      12.603   4.214  25.433  1.00  0.00     0.018 A 
HETATM    3  C4  UNL     1      12.958   2.877  25.454  1.00  0.00     0.001 A 
HETATM    4  C5  UNL     1      12.597   2.029  24.428  1.00  0.00     0.000 A 
HETATM    5  C6  UNL     1      11.872   2.542  23.378  1.00  0.00     0.001 A 
HETATM    6  C7  UNL     1      11.518   3.894  23.365  1.00  0.00     0.018 A 
ENDROOT
BRANCH   1   7
HETATM    7  C1  UNL     1      11.502   6.152  24.367  1.00  0.00     0.209 C 
HETATM    8  O1  UNL     1      10.575   6.619  25.073  1.00  0.00    -0.644 OA
HETATM    9  O2  UNL     1      12.164   7.071  23.550  1.00  0.00    -0.644 OA
ENDBRANCH   1   7
TORSDOF 1
ENDMDL
