MODEL 8
REMARK VINA RESULT: -5.575146631      2.972      4.057
REMARK  3 active torsions:
REMARK  status: ('A' for Active; 'I' for Inactive)
REMARK    1  A    between atoms: C1_2  and  C2_4 
REMARK    2  A    between atoms: C3_6  and  C4_7 
REMARK    3  A    between atoms: C7_10  and  O3_11 
ROOT
HETATM    1  C4  UNL     1      11.149   2.315  -4.702  1.00  0.00    -0.033 A 
HETATM    2  C5  UNL     1      10.486   1.485  -5.606  1.00  0.00     0.014 A 
HETATM    3  C6  UNL     1       9.844   1.929  -6.727  1.00  0.00     0.037 A 
HETATM    4  C7  UNL     1       9.856   3.294  -6.980  1.00  0.00     0.065 A 
HETATM    5  C8  UNL     1      10.509   4.125  -6.097  1.00  0.00     0.037 A 
HETATM    6  C9  UNL     1      11.154   3.674  -4.970  1.00  0.00     0.014 A 
ENDROOT
BRANCH   1   7
HETATM    7  C3  UNL     1      11.827   1.676  -3.607  1.00  0.00     0.060 C 
HETATM    8  C2  UNL     1      13.072   1.909  -3.303  1.00  0.00     0.193 C 
HETATM    9  F1  UNL     1      13.640   1.221  -2.217  1.00  0.00    -0.199 F 
BRANCH   8  10
HETATM   10  C1  UNL     1      13.895   2.827  -4.020  1.00  0.00     0.239 C 
HETATM   11  O1  UNL     1      14.216   3.936  -3.472  1.00  0.00    -0.642 OA
HETATM   12  O2  UNL     1      14.378   2.628  -5.276  1.00  0.00    -0.642 OA
ENDBRANCH   8  10
ENDBRANCH   1   7
BRANCH   4  13
HETATM   13  O3  UNL     1       9.219   3.801  -8.104  1.00  0.00    -0.361 OA
ATOM     14  H3  UNL     1       9.653   4.450  -8.646  1.00  0.00     0.217 HD
ENDBRANCH   4  13
TORSDOF 3
ENDMDL
