MODEL 6
REMARK VINA RESULT: -5.638301218      1.404      1.666
REMARK  3 active torsions:
REMARK  status: ('A' for Active; 'I' for Inactive)
REMARK    1  A    between atoms: C1_2  and  C2_4 
REMARK    2  A    between atoms: C3_6  and  C4_7 
REMARK    3  A    between atoms: C7_10  and  O3_11 
ROOT
HETATM    1  C4  UNL     1      15.248   3.184  -5.290  1.00  0.00    -0.033 A 
HETATM    2  C5  UNL     1      15.899   2.665  -4.171  1.00  0.00     0.014 A 
HETATM    3  C6  UNL     1      15.260   2.086  -3.110  1.00  0.00     0.037 A 
HETATM    4  C7  UNL     1      13.874   2.011  -3.153  1.00  0.00     0.065 A 
HETATM    5  C8  UNL     1      13.218   2.518  -4.253  1.00  0.00     0.037 A 
HETATM    6  C9  UNL     1      13.865   3.100  -5.318  1.00  0.00     0.014 A 
ENDROOT
BRANCH   1   7
HETATM    7  C3  UNL     1      16.076   3.700  -6.345  1.00  0.00     0.060 C 
HETATM    8  C2  UNL     1      16.671   4.857  -6.286  1.00  0.00     0.193 C 
HETATM    9  F1  UNL     1      17.451   5.270  -7.380  1.00  0.00    -0.199 F 
BRANCH   8  10
HETATM   10  C1  UNL     1      16.571   5.733  -5.165  1.00  0.00     0.239 C 
HETATM   11  O1  UNL     1      17.389   5.598  -4.192  1.00  0.00    -0.642 OA
HETATM   12  O2  UNL     1      15.652   6.726  -5.028  1.00  0.00    -0.642 OA
ENDBRANCH   8  10
ENDBRANCH   1   7
BRANCH   4  13
HETATM   13  O3  UNL     1      13.174   1.435  -2.104  1.00  0.00    -0.361 OA
ATOM     14  H3  UNL     1      12.445   0.852  -2.280  1.00  0.00     0.217 HD
ENDBRANCH   4  13
TORSDOF 3
ENDMDL
