MODEL 11
REMARK VINA RESULT: -5.351306614      2.952      3.805
REMARK  3 active torsions:
REMARK  status: ('A' for Active; 'I' for Inactive)
REMARK    1  A    between atoms: C1_2  and  C2_4 
REMARK    2  A    between atoms: C3_6  and  C4_7 
REMARK    3  A    between atoms: C7_10  and  O3_11 
ROOT
HETATM    1  C4  UNL     1      12.325   2.545  -4.652  1.00  0.00    -0.033 A 
HETATM    2  C5  UNL     1      11.134   3.268  -4.712  1.00  0.00     0.014 A 
HETATM    3  C6  UNL     1      10.783   4.084  -5.751  1.00  0.00     0.037 A 
HETATM    4  C7  UNL     1      11.671   4.198  -6.812  1.00  0.00     0.065 A 
HETATM    5  C8  UNL     1      12.851   3.489  -6.766  1.00  0.00     0.037 A 
HETATM    6  C9  UNL     1      13.200   2.668  -5.719  1.00  0.00     0.014 A 
ENDROOT
BRANCH   1   7
HETATM    7  C3  UNL     1      12.508   1.684  -3.516  1.00  0.00     0.060 C 
HETATM    8  C2  UNL     1      13.599   1.660  -2.805  1.00  0.00     0.193 C 
HETATM    9  F1  UNL     1      13.676   0.771  -1.718  1.00  0.00    -0.199 F 
BRANCH   8  10
HETATM   10  C1  UNL     1      14.727   2.491  -3.073  1.00  0.00     0.239 C 
HETATM   11  O1  UNL     1      15.889   1.962  -3.146  1.00  0.00    -0.642 OA
HETATM   12  O2  UNL     1      14.680   3.837  -3.258  1.00  0.00    -0.642 OA
ENDBRANCH   8  10
ENDBRANCH   1   7
BRANCH   4  13
HETATM   13  O3  UNL     1      11.367   5.013  -7.892  1.00  0.00    -0.361 OA
ATOM     14  H3  UNL     1      11.923   5.013  -8.662  1.00  0.00     0.217 HD
ENDBRANCH   4  13
TORSDOF 3
ENDMDL
