MODEL 13
REMARK VINA RESULT: -5.177133825      2.204      2.854
REMARK  3 active torsions:
REMARK  status: ('A' for Active; 'I' for Inactive)
REMARK    1  A    between atoms: C1_2  and  C2_4 
REMARK    2  A    between atoms: C3_6  and  C4_7 
REMARK    3  A    between atoms: C7_10  and  O3_11 
ROOT
HETATM    1  C4  UNL     1      13.077   2.728  -4.542  1.00  0.00    -0.033 A 
HETATM    2  C5  UNL     1      11.757   3.104  -4.292  1.00  0.00     0.014 A 
HETATM    3  C6  UNL     1      10.900   3.578  -5.245  1.00  0.00     0.037 A 
HETATM    4  C7  UNL     1      11.377   3.691  -6.544  1.00  0.00     0.065 A 
HETATM    5  C8  UNL     1      12.678   3.322  -6.806  1.00  0.00     0.037 A 
HETATM    6  C9  UNL     1      13.537   2.845  -5.843  1.00  0.00     0.014 A 
ENDROOT
BRANCH   1   7
HETATM    7  C3  UNL     1      13.823   2.190  -3.437  1.00  0.00     0.060 C 
HETATM    8  C2  UNL     1      15.005   2.617  -3.097  1.00  0.00     0.193 C 
HETATM    9  F1  UNL     1      15.650   2.012  -2.004  1.00  0.00    -0.199 F 
BRANCH   8  10
HETATM   10  C1  UNL     1      15.685   3.669  -3.779  1.00  0.00     0.239 C 
HETATM   11  O1  UNL     1      16.654   3.382  -4.560  1.00  0.00    -0.642 OA
HETATM   12  O2  UNL     1      15.390   4.992  -3.665  1.00  0.00    -0.642 OA
ENDBRANCH   8  10
ENDBRANCH   1   7
BRANCH   4  13
HETATM   13  O3  UNL     1      10.550   4.167  -7.551  1.00  0.00    -0.361 OA
ATOM     14  H3  UNL     1      10.624   5.068  -7.843  1.00  0.00     0.217 HD
ENDBRANCH   4  13
TORSDOF 3
ENDMDL
