MODEL 2
REMARK VINA RESULT: -5.891311082      3.583      5.507
REMARK  3 active torsions:
REMARK  status: ('A' for Active; 'I' for Inactive)
REMARK    1  A    between atoms: C1_2  and  C2_4 
REMARK    2  A    between atoms: C3_6  and  C4_7 
REMARK    3  A    between atoms: C7_10  and  O3_11 
ROOT
HETATM    1  C4  UNL     1      11.563   3.042  -4.924  1.00  0.00    -0.033 A 
HETATM    2  C5  UNL     1      12.902   3.274  -5.237  1.00  0.00     0.014 A 
HETATM    3  C6  UNL     1      13.955   2.774  -4.524  1.00  0.00     0.037 A 
HETATM    4  C7  UNL     1      13.670   1.985  -3.417  1.00  0.00     0.065 A 
HETATM    5  C8  UNL     1      12.352   1.746  -3.097  1.00  0.00     0.037 A 
HETATM    6  C9  UNL     1      11.295   2.251  -3.819  1.00  0.00     0.014 A 
ENDROOT
BRANCH   1   7
HETATM    7  C3  UNL     1      10.580   3.590  -5.817  1.00  0.00     0.060 C 
HETATM    8  C2  UNL     1      10.046   2.916  -6.794  1.00  0.00     0.193 C 
HETATM    9  F1  UNL     1       9.099   3.553  -7.615  1.00  0.00    -0.199 F 
BRANCH   8  10
HETATM   10  C1  UNL     1      10.374   1.557  -7.079  1.00  0.00     0.239 C 
HETATM   11  O1  UNL     1      11.284   1.302  -7.939  1.00  0.00    -0.642 OA
HETATM   12  O2  UNL     1       9.783   0.474  -6.506  1.00  0.00    -0.642 OA
ENDBRANCH   8  10
ENDBRANCH   1   7
BRANCH   4  13
HETATM   13  O3  UNL     1      14.700   1.452  -2.656  1.00  0.00    -0.361 OA
ATOM     14  H3  UNL     1      14.507   0.852  -1.945  1.00  0.00     0.217 HD
ENDBRANCH   4  13
TORSDOF 3
ENDMDL
