MODEL 3
REMARK VINA RESULT: -5.876469536      3.611      5.300
REMARK  3 active torsions:
REMARK  status: ('A' for Active; 'I' for Inactive)
REMARK    1  A    between atoms: C1_2  and  C2_4 
REMARK    2  A    between atoms: C3_6  and  C4_7 
REMARK    3  A    between atoms: C7_10  and  O3_11 
ROOT
HETATM    1  C4  UNL     1      11.794   3.006  -4.963  1.00  0.00    -0.033 A 
HETATM    2  C5  UNL     1      11.464   2.204  -3.870  1.00  0.00     0.014 A 
HETATM    3  C6  UNL     1      12.379   1.651  -3.020  1.00  0.00     0.037 A 
HETATM    4  C7  UNL     1      13.722   1.906  -3.260  1.00  0.00     0.065 A 
HETATM    5  C8  UNL     1      14.063   2.699  -4.334  1.00  0.00     0.037 A 
HETATM    6  C9  UNL     1      13.138   3.254  -5.188  1.00  0.00     0.014 A 
ENDROOT
BRANCH   1   7
HETATM    7  C3  UNL     1      10.704   3.560  -5.718  1.00  0.00     0.060 C 
HETATM    8  C2  UNL     1      10.180   2.972  -6.755  1.00  0.00     0.193 C 
HETATM    9  F1  UNL     1       9.122   3.607  -7.427  1.00  0.00    -0.199 F 
BRANCH   8  10
HETATM   10  C1  UNL     1      10.628   1.710  -7.248  1.00  0.00     0.239 C 
HETATM   11  O1  UNL     1      10.037   0.644  -6.864  1.00  0.00    -0.642 OA
HETATM   12  O2  UNL     1      11.662   1.532  -8.113  1.00  0.00    -0.642 OA
ENDBRANCH   8  10
ENDBRANCH   1   7
BRANCH   4  13
HETATM   13  O3  UNL     1      14.694   1.370  -2.429  1.00  0.00    -0.361 OA
ATOM     14  H3  UNL     1      15.508   1.838  -2.282  1.00  0.00     0.217 HD
ENDBRANCH   4  13
TORSDOF 3
ENDMDL
