MODEL 2
REMARK VINA RESULT: -8.535353836      1.025      2.334
REMARK  8 active torsions:
REMARK  status: ('A' for Active; 'I' for Inactive)
REMARK    1  A    between atoms: N5_13  and  C6_14 
REMARK    2  A    between atoms: C7_16  and  C8_17 
REMARK    3  A    between atoms: C8_17  and  O2_18 
REMARK    4  A    between atoms: O2_18  and  P1_19 
REMARK    5  A    between atoms: P1_19  and  O5_22 
REMARK    6  A    between atoms: O5_22  and  P2_23 
REMARK    7  A    between atoms: C9_27  and  O9_28 
REMARK    8  A    between atoms: C10_30  and  O10_31 
ROOT
HETATM    1  C6  UNL     1       6.611  35.702  42.921  1.00  0.00     0.262 C 
HETATM    2  O1  UNL     1       6.102  36.683  42.095  1.00  0.00    -0.353 OA
HETATM    3  C7  UNL     1       7.130  37.358  41.506  1.00  0.00     0.180 C 
HETATM    4  C9  UNL     1       8.375  36.523  41.679  1.00  0.00     0.182 C 
HETATM    5  C10 UNL     1       8.074  35.975  43.080  1.00  0.00     0.198 C 
ENDROOT
BRANCH   1   6
HETATM    6  N5  UNL     1       6.299  34.423  42.373  1.00  0.00    -0.297 N 
HETATM    7  C3  UNL     1       6.413  34.006  41.100  1.00  0.00     0.142 A 
HETATM    8  N3  UNL     1       6.834  34.614  39.992  1.00  0.00    -0.336 N 
HETATM    9  C4  UNL     1       6.002  32.706  41.015  1.00  0.00     0.119 A 
HETATM   10  C2  UNL     1       6.857  33.976  38.809  1.00  0.00     0.183 A 
ATOM     11  H3  UNL     1       7.145  35.585  40.043  1.00  0.00     0.168 HD
HETATM   12  N2  UNL     1       6.459  32.706  38.707  1.00  0.00    -0.339 N 
HETATM   13  C1  UNL     1       6.031  32.062  39.795  1.00  0.00     0.148 A 
ATOM     14  H2  UNL     1       6.481  32.231  37.805  1.00  0.00     0.167 HD
HETATM   15  N1  UNL     1       5.594  30.719  39.760  1.00  0.00    -0.080 NA
HETATM   16  N4  UNL     1       5.637  32.337  42.237  1.00  0.00    -0.346 N 
HETATM   17  C5  UNL     1       5.815  33.367  43.052  1.00  0.00     0.188 A 
ATOM     18  H4  UNL     1       5.281  31.419  42.503  1.00  0.00     0.167 HD
ENDBRANCH   1   6
BRANCH   5  19
HETATM   19  O10 UNL     1       8.207  37.062  43.953  1.00  0.00    -0.388 OA
ATOM     20  H10 UNL     1       8.152  36.725  44.839  1.00  0.00     0.210 HD
ENDBRANCH   5  19
BRANCH   3  21
HETATM   21  C8  UNL     1       6.894  37.769  40.087  1.00  0.00     0.216 C 
BRANCH  21  22
HETATM   22  O2  UNL     1       7.943  38.436  39.509  1.00  0.00    -0.287 OA
BRANCH  22  23
HETATM   23  P1  UNL     1       8.199  37.729  37.972  1.00  0.00     0.418 P 
HETATM   24  O3  UNL     1       9.011  38.693  37.148  1.00  0.00    -0.624 OA
HETATM   25  O4  UNL     1       6.741  37.472  37.174  1.00  0.00    -0.624 OA
BRANCH  23  26
HETATM   26  O5  UNL     1       9.049  36.303  38.173  1.00  0.00    -0.173 OA
BRANCH  26  27
HETATM   27  P2  UNL     1      10.708  36.506  38.201  1.00  0.00     0.431 P 
HETATM   28  O6  UNL     1      11.295  36.586  36.805  1.00  0.00    -0.616 OA
HETATM   29  O7  UNL     1      11.500  35.229  38.987  1.00  0.00    -0.616 OA
HETATM   30  O8  UNL     1      11.038  37.937  39.070  1.00  0.00    -0.616 OA
ENDBRANCH  26  27
ENDBRANCH  23  26
ENDBRANCH  22  23
ENDBRANCH  21  22
ENDBRANCH   3  21
BRANCH   4  31
HETATM   31  O9  UNL     1       9.538  37.256  41.651  1.00  0.00    -0.390 OA
ATOM     32  H9  UNL     1      10.119  37.077  42.381  1.00  0.00     0.210 HD
ENDBRANCH   4  31
TORSDOF 8
ENDMDL
