MODEL 1
REMARK VINA RESULT: -8.665035993      0.000      0.000
REMARK  8 active torsions:
REMARK  status: ('A' for Active; 'I' for Inactive)
REMARK    1  A    between atoms: N5_13  and  C6_14 
REMARK    2  A    between atoms: C7_16  and  C8_17 
REMARK    3  A    between atoms: C8_17  and  O2_18 
REMARK    4  A    between atoms: O2_18  and  P1_19 
REMARK    5  A    between atoms: P1_19  and  O5_22 
REMARK    6  A    between atoms: O5_22  and  P2_23 
REMARK    7  A    between atoms: C9_27  and  O9_28 
REMARK    8  A    between atoms: C10_30  and  O10_31 
ROOT
HETATM    1  C6  UNL     1       6.334  36.057  42.596  1.00  0.00     0.262 C 
HETATM    2  O1  UNL     1       7.002  36.762  41.617  1.00  0.00    -0.353 OA
HETATM    3  C7  UNL     1       8.239  37.111  42.073  1.00  0.00     0.180 C 
HETATM    4  C9  UNL     1       8.527  36.263  43.287  1.00  0.00     0.182 C 
HETATM    5  C10 UNL     1       7.106  36.227  43.867  1.00  0.00     0.198 C 
ENDROOT
BRANCH   1   6
HETATM    6  N5  UNL     1       6.176  34.704  42.170  1.00  0.00    -0.297 N 
HETATM    7  C3  UNL     1       6.351  34.187  40.942  1.00  0.00     0.142 A 
HETATM    8  N3  UNL     1       6.712  34.734  39.782  1.00  0.00    -0.336 N 
HETATM    9  C4  UNL     1       6.092  32.846  40.979  1.00  0.00     0.119 A 
HETATM   10  C2  UNL     1       6.821  33.994  38.664  1.00  0.00     0.183 A 
ATOM     11  H3  UNL     1       6.909  35.734  39.742  1.00  0.00     0.168 HD
HETATM   12  N2  UNL     1       6.572  32.683  38.682  1.00  0.00    -0.339 N 
HETATM   13  C1  UNL     1       6.208  32.099  39.825  1.00  0.00     0.148 A 
ATOM     14  H2  UNL     1       6.658  32.132  37.828  1.00  0.00     0.167 HD
HETATM   15  N1  UNL     1       5.929  30.717  39.916  1.00  0.00    -0.080 NA
HETATM   16  N4  UNL     1       5.759  32.553  42.231  1.00  0.00    -0.346 N 
HETATM   17  C5  UNL     1       5.809  33.668  42.945  1.00  0.00     0.188 A 
ATOM     18  H4  UNL     1       5.508  31.629  42.581  1.00  0.00     0.167 HD
ENDBRANCH   1   6
BRANCH   5  19
HETATM   19  O10 UNL     1       6.853  37.520  44.342  1.00  0.00    -0.388 OA
ATOM     20  H10 UNL     1       7.513  38.094  43.971  1.00  0.00     0.210 HD
ENDBRANCH   5  19
BRANCH   3  21
HETATM   21  C8  UNL     1       9.332  37.064  41.053  1.00  0.00     0.216 C 
BRANCH  21  22
HETATM   22  O2  UNL     1       9.044  36.303  39.950  1.00  0.00    -0.287 OA
BRANCH  22  23
HETATM   23  P1  UNL     1      10.331  36.516  38.844  1.00  0.00     0.418 P 
HETATM   24  O3  UNL     1      11.341  35.426  39.090  1.00  0.00    -0.624 OA
HETATM   25  O4  UNL     1      11.100  37.993  39.088  1.00  0.00    -0.624 OA
BRANCH  23  26
HETATM   26  O5  UNL     1       9.730  36.389  37.289  1.00  0.00    -0.173 OA
BRANCH  26  27
HETATM   27  P2  UNL     1       8.505  37.475  36.950  1.00  0.00     0.431 P 
HETATM   28  O6  UNL     1       8.860  38.886  37.380  1.00  0.00    -0.616 OA
HETATM   29  O7  UNL     1       7.056  37.079  37.736  1.00  0.00    -0.616 OA
HETATM   30  O8  UNL     1       8.217  37.419  35.269  1.00  0.00    -0.616 OA
ENDBRANCH  26  27
ENDBRANCH  23  26
ENDBRANCH  22  23
ENDBRANCH  21  22
ENDBRANCH   3  21
BRANCH   4  31
HETATM   31  O9  UNL     1       9.424  36.834  44.159  1.00  0.00    -0.390 OA
ATOM     32  H9  UNL     1       9.181  37.709  44.436  1.00  0.00     0.210 HD
ENDBRANCH   4  31
TORSDOF 8
ENDMDL
