MODEL 3
REMARK VINA RESULT: -8.331616606      2.057      3.542
REMARK  8 active torsions:
REMARK  status: ('A' for Active; 'I' for Inactive)
REMARK    1  A    between atoms: N5_13  and  C6_14 
REMARK    2  A    between atoms: C7_16  and  C8_17 
REMARK    3  A    between atoms: C8_17  and  O2_18 
REMARK    4  A    between atoms: O2_18  and  P1_19 
REMARK    5  A    between atoms: P1_19  and  O5_22 
REMARK    6  A    between atoms: O5_22  and  P2_23 
REMARK    7  A    between atoms: C9_27  and  O9_28 
REMARK    8  A    between atoms: C10_30  and  O10_31 
ROOT
HETATM    1  C6  UNL     1       7.524  36.619  39.434  1.00  0.00     0.262 C 
HETATM    2  O1  UNL     1       8.085  37.061  38.254  1.00  0.00    -0.353 OA
HETATM    3  C7  UNL     1       9.429  37.220  38.422  1.00  0.00     0.180 C 
HETATM    4  C9  UNL     1       9.815  36.484  39.683  1.00  0.00     0.182 C 
HETATM    5  C10 UNL     1       8.555  36.790  40.504  1.00  0.00     0.198 C 
ENDROOT
BRANCH   1   6
HETATM    6  N5  UNL     1       7.063  35.280  39.257  1.00  0.00    -0.297 N 
HETATM    7  C3  UNL     1       6.710  34.385  40.196  1.00  0.00     0.142 A 
HETATM    8  N3  UNL     1       6.675  34.447  41.525  1.00  0.00    -0.336 N 
HETATM    9  C4  UNL     1       6.329  33.223  39.586  1.00  0.00     0.119 A 
HETATM   10  C2  UNL     1       6.277  33.396  42.265  1.00  0.00     0.183 A 
ATOM     11  H3  UNL     1       6.956  35.310  41.993  1.00  0.00     0.168 HD
HETATM   12  N2  UNL     1       5.901  32.254  41.687  1.00  0.00    -0.339 N 
HETATM   13  C1  UNL     1       5.922  32.153  40.356  1.00  0.00     0.148 A 
ATOM     14  H2  UNL     1       5.601  31.464  42.257  1.00  0.00     0.167 HD
HETATM   15  N1  UNL     1       5.539  30.974  39.678  1.00  0.00    -0.080 NA
HETATM   16  N4  UNL     1       6.452  33.416  38.278  1.00  0.00    -0.346 N 
HETATM   17  C5  UNL     1       6.893  34.651  38.081  1.00  0.00     0.188 A 
ATOM     18  H4  UNL     1       6.244  32.732  37.551  1.00  0.00     0.167 HD
ENDBRANCH   1   6
BRANCH   5  19
HETATM   19  O10 UNL     1       8.620  38.154  40.812  1.00  0.00    -0.388 OA
ATOM     20  H10 UNL     1       9.046  38.237  41.657  1.00  0.00     0.210 HD
ENDBRANCH   5  19
BRANCH   3  21
HETATM   21  C8  UNL     1      10.269  36.843  37.244  1.00  0.00     0.216 C 
BRANCH  21  22
HETATM   22  O2  UNL     1      11.121  37.828  36.817  1.00  0.00    -0.287 OA
BRANCH  22  23
HETATM   23  P1  UNL     1      10.334  38.652  35.541  1.00  0.00     0.418 P 
HETATM   24  O3  UNL     1      11.388  39.141  34.584  1.00  0.00    -0.624 OA
HETATM   25  O4  UNL     1       9.498  39.996  36.113  1.00  0.00    -0.624 OA
BRANCH  23  26
HETATM   26  O5  UNL     1       9.313  37.583  34.761  1.00  0.00    -0.173 OA
BRANCH  26  27
HETATM   27  P2  UNL     1       8.175  38.326  33.788  1.00  0.00     0.431 P 
HETATM   28  O6  UNL     1       8.783  39.426  32.939  1.00  0.00    -0.616 OA
HETATM   29  O7  UNL     1       6.927  39.041  34.686  1.00  0.00    -0.616 OA
HETATM   30  O8  UNL     1       7.479  37.123  32.797  1.00  0.00    -0.616 OA
ENDBRANCH  26  27
ENDBRANCH  23  26
ENDBRANCH  22  23
ENDBRANCH  21  22
ENDBRANCH   3  21
BRANCH   4  31
HETATM   31  O9  UNL     1      10.952  36.974  40.281  1.00  0.00    -0.390 OA
ATOM     32  H9  UNL     1      10.986  36.820  41.217  1.00  0.00     0.210 HD
ENDBRANCH   4  31
TORSDOF 8
ENDMDL
