MODEL 10
REMARK VINA RESULT: -6.704209236      3.070      6.231
REMARK  9 active torsions:
REMARK  status: ('A' for Active; 'I' for Inactive)
REMARK    1  A    between atoms: O1_1  and  C1_3 
REMARK    2  A    between atoms: C2_4  and  O2_5 
REMARK    3  A    between atoms: C3_7  and  O3_8 
REMARK    4  A    between atoms: O3_8  and  P1_9 
REMARK    5  A    between atoms: C4_13  and  O7_14 
REMARK    6  A    between atoms: C5_16  and  O8_17 
REMARK    7  A    between atoms: O8_17  and  P2_18 
REMARK    8  A    between atoms: C6_22  and  O12_23 
REMARK    9  A    between atoms: O12_23  and  P3_24 
ROOT
HETATM    1  C1  UNL     1      24.012  36.679   5.568  1.00  0.00     0.181 C 
HETATM    2  C2  UNL     1      25.208  36.046   4.948  1.00  0.00     0.181 C 
HETATM    3  C3  UNL     1      24.886  34.915   4.007  1.00  0.00     0.198 C 
HETATM    4  C4  UNL     1      23.908  33.953   4.641  1.00  0.00     0.182 C 
HETATM    5  C5  UNL     1      22.671  34.655   5.138  1.00  0.00     0.199 C 
HETATM    6  C6  UNL     1      23.062  35.675   6.194  1.00  0.00     0.199 C 
ENDROOT
BRANCH   3   7
HETATM    7  O3  UNL     1      26.078  34.237   3.759  1.00  0.00    -0.272 OA
BRANCH   7   8
HETATM    8  P1  UNL     1      26.821  34.568   2.451  1.00  0.00     0.422 P 
HETATM    9  O4  UNL     1      27.487  34.991   1.131  1.00  0.00    -0.617 OA
HETATM   10  O5  UNL     1      27.806  33.248   2.600  1.00  0.00    -0.617 OA
HETATM   11  O6  UNL     1      25.365  34.365   1.661  1.00  0.00    -0.617 OA
ENDBRANCH   7   8
ENDBRANCH   3   7
BRANCH   2  12
HETATM   12  O2  UNL     1      26.138  35.636   5.917  1.00  0.00    -0.390 OA
ATOM     13  H2  UNL     1      26.751  36.330   6.130  1.00  0.00     0.210 HD
ENDBRANCH   2  12
BRANCH   4  14
HETATM   14  O7  UNL     1      23.540  32.976   3.749  1.00  0.00    -0.390 OA
ATOM     15  H7  UNL     1      22.796  32.484   4.077  1.00  0.00     0.210 HD
ENDBRANCH   4  14
BRANCH   1  16
HETATM   16  O1  UNL     1      24.470  37.500   6.621  1.00  0.00    -0.390 OA
ATOM     17  H1  UNL     1      24.751  36.926   7.324  1.00  0.00     0.210 HD
ENDBRANCH   1  16
BRANCH   5  18
HETATM   18  O8  UNL     1      21.803  33.733   5.639  1.00  0.00    -0.272 OA
BRANCH  18  19
HETATM   19  P2  UNL     1      20.374  33.649   4.816  1.00  0.00     0.422 P 
HETATM   20  O9  UNL     1      20.612  32.196   4.414  1.00  0.00    -0.617 OA
HETATM   21  O10 UNL     1      18.995  33.136   5.655  1.00  0.00    -0.617 OA
HETATM   22  O11 UNL     1      20.192  34.265   3.333  1.00  0.00    -0.617 OA
ENDBRANCH  18  19
ENDBRANCH   5  18
BRANCH   6  23
HETATM   23  O12 UNL     1      21.955  36.366   6.602  1.00  0.00    -0.272 OA
BRANCH  23  24
HETATM   24  P3  UNL     1      21.642  36.037   8.179  1.00  0.00     0.422 P 
HETATM   25  O13 UNL     1      23.105  36.226   8.591  1.00  0.00    -0.617 OA
HETATM   26  O14 UNL     1      20.165  35.809   7.844  1.00  0.00    -0.617 OA
HETATM   27  O15 UNL     1      21.780  34.452   8.689  1.00  0.00    -0.617 OA
ENDBRANCH  23  24
ENDBRANCH   6  23
TORSDOF 9
ENDMDL
