MODEL 1
REMARK VINA RESULT: -7.268666696      0.000      0.000
REMARK  9 active torsions:
REMARK  status: ('A' for Active; 'I' for Inactive)
REMARK    1  A    between atoms: O1_1  and  C1_3 
REMARK    2  A    between atoms: C2_4  and  O2_5 
REMARK    3  A    between atoms: C3_7  and  O3_8 
REMARK    4  A    between atoms: O3_8  and  P1_9 
REMARK    5  A    between atoms: C4_13  and  O7_14 
REMARK    6  A    between atoms: C5_16  and  O8_17 
REMARK    7  A    between atoms: O8_17  and  P2_18 
REMARK    8  A    between atoms: C6_22  and  O12_23 
REMARK    9  A    between atoms: O12_23  and  P3_24 
ROOT
HETATM    1  C1  UNL     1      22.559  31.732   4.373  1.00  0.00     0.181 C 
HETATM    2  C2  UNL     1      22.696  33.201   4.574  1.00  0.00     0.181 C 
HETATM    3  C3  UNL     1      21.605  33.810   5.415  1.00  0.00     0.198 C 
HETATM    4  C4  UNL     1      20.245  33.351   4.943  1.00  0.00     0.182 C 
HETATM    5  C5  UNL     1      20.149  31.849   4.879  1.00  0.00     0.199 C 
HETATM    6  C6  UNL     1      21.180  31.320   3.895  1.00  0.00     0.199 C 
ENDROOT
BRANCH   3   7
HETATM    7  O3  UNL     1      21.688  35.192   5.255  1.00  0.00    -0.272 OA
BRANCH   7   8
HETATM    8  P1  UNL     1      21.868  36.041   6.527  1.00  0.00     0.422 P 
HETATM    9  O4  UNL     1      22.151  36.832   7.815  1.00  0.00    -0.617 OA
HETATM   10  O5  UNL     1      20.403  36.782   6.317  1.00  0.00    -0.617 OA
HETATM   11  O6  UNL     1      21.899  34.612   7.388  1.00  0.00    -0.617 OA
ENDBRANCH   7   8
ENDBRANCH   3   7
BRANCH   2  12
HETATM   12  O2  UNL     1      22.819  33.881   3.352  1.00  0.00    -0.390 OA
ATOM     13  H2  UNL     1      23.435  34.602   3.412  1.00  0.00     0.210 HD
ENDBRANCH   2  12
BRANCH   4  14
HETATM   14  O7  UNL     1      19.257  33.829   5.768  1.00  0.00    -0.390 OA
ATOM     15  H7  UNL     1      18.909  33.133   6.314  1.00  0.00     0.210 HD
ENDBRANCH   4  14
BRANCH   1  16
HETATM   16  O1  UNL     1      23.458  31.363   3.350  1.00  0.00    -0.390 OA
ATOM     17  H1  UNL     1      23.172  31.794   2.554  1.00  0.00     0.210 HD
ENDBRANCH   1  16
BRANCH   5  18
HETATM   18  O8  UNL     1      18.886  31.495   4.509  1.00  0.00    -0.272 OA
BRANCH  18  19
HETATM   19  P2  UNL     1      18.011  30.794   5.721  1.00  0.00     0.422 P 
HETATM   20  O9  UNL     1      19.236  30.658   6.621  1.00  0.00    -0.617 OA
HETATM   21  O10 UNL     1      17.323  31.800   6.897  1.00  0.00    -0.617 OA
HETATM   22  O11 UNL     1      17.582  29.236   5.689  1.00  0.00    -0.617 OA
ENDBRANCH  18  19
ENDBRANCH   5  18
BRANCH   6  23
HETATM   23  O12 UNL     1      21.147  29.953   3.882  1.00  0.00    -0.272 OA
BRANCH  23  24
HETATM   24  P3  UNL     1      21.001  29.414   2.339  1.00  0.00     0.422 P 
HETATM   25  O13 UNL     1      21.121  27.946   2.757  1.00  0.00    -0.617 OA
HETATM   26  O14 UNL     1      20.895  30.857   1.839  1.00  0.00    -0.617 OA
HETATM   27  O15 UNL     1      22.399  29.199   1.450  1.00  0.00    -0.617 OA
ENDBRANCH  23  24
ENDBRANCH   6  23
TORSDOF 9
ENDMDL
