MODEL 2
REMARK VINA RESULT: -7.192091102      1.391      1.723
REMARK  9 active torsions:
REMARK  status: ('A' for Active; 'I' for Inactive)
REMARK    1  A    between atoms: O1_1  and  C1_3 
REMARK    2  A    between atoms: C2_4  and  O2_5 
REMARK    3  A    between atoms: C3_7  and  O3_8 
REMARK    4  A    between atoms: O3_8  and  P1_9 
REMARK    5  A    between atoms: C4_13  and  O7_14 
REMARK    6  A    between atoms: C5_16  and  O8_17 
REMARK    7  A    between atoms: O8_17  and  P2_18 
REMARK    8  A    between atoms: C6_22  and  O12_23 
REMARK    9  A    between atoms: O12_23  and  P3_24 
ROOT
HETATM    1  C1  UNL     1      23.292  32.318   4.432  1.00  0.00     0.181 C 
HETATM    2  C2  UNL     1      23.531  33.679   4.986  1.00  0.00     0.181 C 
HETATM    3  C3  UNL     1      22.454  34.157   5.925  1.00  0.00     0.198 C 
HETATM    4  C4  UNL     1      21.085  33.940   5.325  1.00  0.00     0.182 C 
HETATM    5  C5  UNL     1      20.879  32.511   4.896  1.00  0.00     0.199 C 
HETATM    6  C6  UNL     1      21.907  32.150   3.837  1.00  0.00     0.199 C 
ENDROOT
BRANCH   3   7
HETATM    7  O3  UNL     1      22.649  35.524   6.108  1.00  0.00    -0.272 OA
BRANCH   7   8
HETATM    8  P1  UNL     1      23.484  35.964   7.325  1.00  0.00     0.422 P 
HETATM    9  O4  UNL     1      24.349  36.288   8.555  1.00  0.00    -0.617 OA
HETATM   10  O5  UNL     1      22.991  37.536   7.177  1.00  0.00    -0.617 OA
HETATM   11  O6  UNL     1      22.543  34.939   8.247  1.00  0.00    -0.617 OA
ENDBRANCH   7   8
ENDBRANCH   3   7
BRANCH   2  12
HETATM   12  O2  UNL     1      23.756  34.620   3.970  1.00  0.00    -0.390 OA
ATOM     13  H2  UNL     1      24.288  34.261   3.270  1.00  0.00     0.210 HD
ENDBRANCH   2  12
BRANCH   4  14
HETATM   14  O7  UNL     1      20.102  34.286   6.219  1.00  0.00    -0.390 OA
ATOM     15  H7  UNL     1      20.369  35.033   6.741  1.00  0.00     0.210 HD
ENDBRANCH   4  14
BRANCH   1  16
HETATM   16  O1  UNL     1      24.203  32.132   3.370  1.00  0.00    -0.390 OA
ATOM     17  H1  UNL     1      24.370  31.199   3.301  1.00  0.00     0.210 HD
ENDBRANCH   1  16
BRANCH   5  18
HETATM   18  O8  UNL     1      19.610  32.363   4.423  1.00  0.00    -0.272 OA
BRANCH  18  19
HETATM   19  P2  UNL     1      18.706  31.273   5.274  1.00  0.00     0.422 P 
HETATM   20  O9  UNL     1      17.902  32.373   5.962  1.00  0.00    -0.617 OA
HETATM   21  O10 UNL     1      17.261  30.720   4.584  1.00  0.00    -0.617 OA
HETATM   22  O11 UNL     1      19.261  30.537   6.601  1.00  0.00    -0.617 OA
ENDBRANCH  18  19
ENDBRANCH   5  18
BRANCH   6  23
HETATM   23  O12 UNL     1      21.772  30.834   3.491  1.00  0.00    -0.272 OA
BRANCH  23  24
HETATM   24  P3  UNL     1      21.871  30.673   1.861  1.00  0.00     0.422 P 
HETATM   25  O13 UNL     1      23.262  30.035   1.929  1.00  0.00    -0.617 OA
HETATM   26  O14 UNL     1      20.494  31.324   1.708  1.00  0.00    -0.617 OA
HETATM   27  O15 UNL     1      22.566  31.920   0.993  1.00  0.00    -0.617 OA
ENDBRANCH  23  24
ENDBRANCH   6  23
TORSDOF 9
ENDMDL
