MODEL 3
REMARK VINA RESULT: -7.187919085      0.833      1.193
REMARK  9 active torsions:
REMARK  status: ('A' for Active; 'I' for Inactive)
REMARK    1  A    between atoms: O1_1  and  C1_3 
REMARK    2  A    between atoms: C2_4  and  O2_5 
REMARK    3  A    between atoms: C3_7  and  O3_8 
REMARK    4  A    between atoms: O3_8  and  P1_9 
REMARK    5  A    between atoms: C4_13  and  O7_14 
REMARK    6  A    between atoms: C5_16  and  O8_17 
REMARK    7  A    between atoms: O8_17  and  P2_18 
REMARK    8  A    between atoms: C6_22  and  O12_23 
REMARK    9  A    between atoms: O12_23  and  P3_24 
ROOT
HETATM    1  C1  UNL     1      22.829  32.305   4.455  1.00  0.00     0.181 C 
HETATM    2  C2  UNL     1      22.845  33.790   4.557  1.00  0.00     0.181 C 
HETATM    3  C3  UNL     1      21.664  34.367   5.293  1.00  0.00     0.198 C 
HETATM    4  C4  UNL     1      20.372  33.773   4.782  1.00  0.00     0.182 C 
HETATM    5  C5  UNL     1      20.392  32.267   4.821  1.00  0.00     0.199 C 
HETATM    6  C6  UNL     1      21.515  31.756   3.934  1.00  0.00     0.199 C 
ENDROOT
BRANCH   3   7
HETATM    7  O3  UNL     1      21.653  35.737   5.040  1.00  0.00    -0.272 OA
BRANCH   7   8
HETATM    8  P1  UNL     1      22.179  36.666   6.150  1.00  0.00     0.422 P 
HETATM    9  O4  UNL     1      22.687  37.502   7.336  1.00  0.00    -0.617 OA
HETATM   10  O5  UNL     1      22.340  37.935   5.102  1.00  0.00    -0.617 OA
HETATM   11  O6  UNL     1      20.706  36.468   6.910  1.00  0.00    -0.617 OA
ENDBRANCH   7   8
ENDBRANCH   3   7
BRANCH   2  12
HETATM   12  O2  UNL     1      22.988  34.394   3.299  1.00  0.00    -0.390 OA
ATOM     13  H2  UNL     1      23.604  35.118   3.325  1.00  0.00     0.210 HD
ENDBRANCH   2  12
BRANCH   4  14
HETATM   14  O7  UNL     1      19.304  34.226   5.517  1.00  0.00    -0.390 OA
ATOM     15  H7  UNL     1      18.540  34.341   4.965  1.00  0.00     0.210 HD
ENDBRANCH   4  14
BRANCH   1  16
HETATM   16  O1  UNL     1      23.812  31.939   3.511  1.00  0.00    -0.390 OA
ATOM     17  H1  UNL     1      23.365  31.521   2.785  1.00  0.00     0.210 HD
ENDBRANCH   1  16
BRANCH   5  18
HETATM   18  O8  UNL     1      19.183  31.791   4.410  1.00  0.00    -0.272 OA
BRANCH  18  19
HETATM   19  P2  UNL     1      18.419  30.855   5.536  1.00  0.00     0.422 P 
HETATM   20  O9  UNL     1      17.687  32.052   6.135  1.00  0.00    -0.617 OA
HETATM   21  O10 UNL     1      16.910  30.197   5.138  1.00  0.00    -0.617 OA
HETATM   22  O11 UNL     1      19.155  30.346   6.881  1.00  0.00    -0.617 OA
ENDBRANCH  18  19
ENDBRANCH   5  18
BRANCH   6  23
HETATM   23  O12 UNL     1      21.585  30.392   4.016  1.00  0.00    -0.272 OA
BRANCH  23  24
HETATM   24  P3  UNL     1      21.118  29.723   2.593  1.00  0.00     0.422 P 
HETATM   25  O13 UNL     1      20.738  28.394   3.253  1.00  0.00    -0.617 OA
HETATM   26  O14 UNL     1      21.495  31.011   1.857  1.00  0.00    -0.617 OA
HETATM   27  O15 UNL     1      22.260  28.876   1.715  1.00  0.00    -0.617 OA
ENDBRANCH  23  24
ENDBRANCH   6  23
TORSDOF 9
ENDMDL
