MODEL 1
REMARK VINA RESULT: -7.191677593      0.000      0.000
REMARK  7 active torsions:
REMARK  status: ('A' for Active; 'I' for Inactive)
REMARK    1  A    between atoms: N5_13  and  C6_14 
REMARK    2  A    between atoms: C7_16  and  C8_17 
REMARK    3  A    between atoms: C8_17  and  O2_18 
REMARK    4  A    between atoms: O2_18  and  P1_19 
REMARK    5  A    between atoms: C9_23  and  O6_24 
REMARK    6  A    between atoms: C10_26  and  O7_27 
REMARK    7  A    between atoms: O7_27  and  P2_28 
ROOT
HETATM    1  C6  UNL     1      20.980  43.574  -0.785  1.00  0.00     0.263 C 
HETATM    2  O1  UNL     1      19.617  43.482  -0.905  1.00  0.00    -0.353 OA
HETATM    3  C7  UNL     1      19.156  44.516  -1.677  1.00  0.00     0.180 C 
HETATM    4  C9  UNL     1      20.286  44.751  -2.659  1.00  0.00     0.183 C 
HETATM    5  C10 UNL     1      21.435  44.750  -1.636  1.00  0.00     0.216 C 
ENDROOT
BRANCH   1   6
HETATM    6  N5  UNL     1      21.607  42.386  -1.336  1.00  0.00    -0.297 N 
HETATM    7  C3  UNL     1      21.075  41.164  -1.485  1.00  0.00     0.142 A 
HETATM    8  N3  UNL     1      19.854  40.714  -1.175  1.00  0.00    -0.336 N 
HETATM    9  C4  UNL     1      21.991  40.301  -2.050  1.00  0.00     0.119 A 
HETATM   10  C2  UNL     1      19.550  39.442  -1.419  1.00  0.00     0.183 A 
ATOM     11  H3  UNL     1      19.164  41.339  -0.758  1.00  0.00     0.168 HD
HETATM   12  N2  UNL     1      20.395  38.547  -1.967  1.00  0.00    -0.339 N 
HETATM   13  C1  UNL     1      21.626  38.991  -2.281  1.00  0.00     0.148 A 
ATOM     14  H2  UNL     1      20.115  37.581  -2.136  1.00  0.00     0.167 HD
HETATM   15  N1  UNL     1      22.596  38.126  -2.866  1.00  0.00    -0.080 NA
HETATM   16  N4  UNL     1      23.103  41.032  -2.243  1.00  0.00    -0.346 N 
HETATM   17  C5  UNL     1      22.874  42.289  -1.814  1.00  0.00     0.188 A 
ATOM     18  H4  UNL     1      23.975  40.692  -2.647  1.00  0.00     0.167 HD
ENDBRANCH   1   6
BRANCH   5  19
HETATM   19  O7  UNL     1      21.292  45.915  -0.919  1.00  0.00    -0.270 OA
BRANCH  19  20
HETATM   20  P2  UNL     1      22.641  46.883  -0.880  1.00  0.00     0.422 P 
HETATM   21  O8  UNL     1      23.675  46.373  -1.847  1.00  0.00    -0.617 OA
HETATM   22  O9  UNL     1      23.269  47.094   0.674  1.00  0.00    -0.617 OA
HETATM   23  O10 UNL     1      22.165  48.436  -1.423  1.00  0.00    -0.617 OA
ENDBRANCH  19  20
ENDBRANCH   5  19
BRANCH   3  24
HETATM   24  C8  UNL     1      17.854  44.235  -2.363  1.00  0.00     0.217 C 
BRANCH  24  25
HETATM   25  O2  UNL     1      16.856  43.827  -1.505  1.00  0.00    -0.280 OA
BRANCH  25  26
HETATM   26  P1  UNL     1      16.492  42.205  -1.912  1.00  0.00     0.422 P 
HETATM   27  O3  UNL     1      15.083  42.099  -2.408  1.00  0.00    -0.617 OA
HETATM   28  O4  UNL     1      17.605  41.606  -3.030  1.00  0.00    -0.617 OA
HETATM   29  O5  UNL     1      16.686  41.294  -0.481  1.00  0.00    -0.617 OA
ENDBRANCH  25  26
ENDBRANCH  24  25
ENDBRANCH   3  24
BRANCH   4  30
HETATM   30  O6  UNL     1      20.194  45.959  -3.313  1.00  0.00    -0.390 OA
ATOM     31  H6  UNL     1      20.516  45.928  -4.206  1.00  0.00     0.210 HD
ENDBRANCH   4  30
TORSDOF 7
ENDMDL
