MODEL 3
REMARK VINA RESULT: -6.770940412      4.689      7.923
REMARK  7 active torsions:
REMARK  status: ('A' for Active; 'I' for Inactive)
REMARK    1  A    between atoms: N5_13  and  C6_14 
REMARK    2  A    between atoms: C7_16  and  C8_17 
REMARK    3  A    between atoms: C8_17  and  O2_18 
REMARK    4  A    between atoms: O2_18  and  P1_19 
REMARK    5  A    between atoms: C9_23  and  O6_24 
REMARK    6  A    between atoms: C10_26  and  O7_27 
REMARK    7  A    between atoms: O7_27  and  P2_28 
ROOT
HETATM    1  C6  UNL     1      16.801  45.785  -2.300  1.00  0.00     0.263 C 
HETATM    2  O1  UNL     1      17.822  46.506  -1.736  1.00  0.00    -0.353 OA
HETATM    3  C7  UNL     1      18.932  45.712  -1.620  1.00  0.00     0.180 C 
HETATM    4  C9  UNL     1      18.831  44.791  -2.820  1.00  0.00     0.183 C 
HETATM    5  C10 UNL     1      17.351  44.410  -2.646  1.00  0.00     0.216 C 
ENDROOT
BRANCH   1   6
HETATM    6  N5  UNL     1      16.389  46.402  -3.548  1.00  0.00    -0.297 N 
HETATM    7  C3  UNL     1      15.147  46.720  -3.942  1.00  0.00     0.142 A 
HETATM    8  N3  UNL     1      13.977  46.561  -3.312  1.00  0.00    -0.336 N 
HETATM    9  C4  UNL     1      15.167  47.293  -5.196  1.00  0.00     0.119 A 
HETATM   10  C2  UNL     1      12.858  46.959  -3.911  1.00  0.00     0.183 A 
ATOM     11  H3  UNL     1      13.945  46.140  -2.383  1.00  0.00     0.168 HD
HETATM   12  N2  UNL     1      12.806  47.526  -5.132  1.00  0.00    -0.339 N 
HETATM   13  C1  UNL     1      13.978  47.689  -5.774  1.00  0.00     0.148 A 
ATOM     14  H2  UNL     1      11.922  47.817  -5.550  1.00  0.00     0.167 HD
HETATM   15  N1  UNL     1      14.034  48.277  -7.070  1.00  0.00    -0.080 NA
HETATM   16  N4  UNL     1      16.461  47.317  -5.560  1.00  0.00    -0.346 N 
HETATM   17  C5  UNL     1      17.199  46.781  -4.569  1.00  0.00     0.188 A 
ATOM     18  H4  UNL     1      16.824  47.680  -6.442  1.00  0.00     0.167 HD
ENDBRANCH   1   6
BRANCH   5  19
HETATM   19  O7  UNL     1      17.306  43.605  -1.533  1.00  0.00    -0.270 OA
BRANCH  19  20
HETATM   20  P2  UNL     1      16.630  42.108  -1.777  1.00  0.00     0.422 P 
HETATM   21  O8  UNL     1      15.289  42.246  -2.447  1.00  0.00    -0.617 OA
HETATM   22  O9  UNL     1      16.548  41.172  -0.373  1.00  0.00    -0.617 OA
HETATM   23  O10 UNL     1      17.650  41.263  -2.862  1.00  0.00    -0.617 OA
ENDBRANCH  19  20
ENDBRANCH   5  19
BRANCH   3  24
HETATM   24  C8  UNL     1      20.225  46.467  -1.589  1.00  0.00     0.217 C 
BRANCH  24  25
HETATM   25  O2  UNL     1      21.307  45.693  -1.230  1.00  0.00    -0.280 OA
BRANCH  25  26
HETATM   26  P1  UNL     1      21.539  45.921   0.450  1.00  0.00     0.422 P 
HETATM   27  O3  UNL     1      22.997  45.864   0.785  1.00  0.00    -0.617 OA
HETATM   28  O4  UNL     1      20.827  47.364   0.960  1.00  0.00    -0.617 OA
HETATM   29  O5  UNL     1      20.702  44.653   1.229  1.00  0.00    -0.617 OA
ENDBRANCH  25  26
ENDBRANCH  24  25
ENDBRANCH   3  24
BRANCH   4  30
HETATM   30  O6  UNL     1      19.651  43.689  -2.728  1.00  0.00    -0.390 OA
ATOM     31  H6  UNL     1      19.661  43.163  -3.518  1.00  0.00     0.210 HD
ENDBRANCH   4  30
TORSDOF 7
ENDMDL
