MODEL 2
REMARK VINA RESULT: -6.887236439      3.640      6.268
REMARK  7 active torsions:
REMARK  status: ('A' for Active; 'I' for Inactive)
REMARK    1  A    between atoms: N5_13  and  C6_14 
REMARK    2  A    between atoms: C7_16  and  C8_17 
REMARK    3  A    between atoms: C8_17  and  O2_18 
REMARK    4  A    between atoms: O2_18  and  P1_19 
REMARK    5  A    between atoms: C9_23  and  O6_24 
REMARK    6  A    between atoms: C10_26  and  O7_27 
REMARK    7  A    between atoms: O7_27  and  P2_28 
ROOT
HETATM    1  C6  UNL     1      19.415  41.698  -1.418  1.00  0.00     0.263 C 
HETATM    2  O1  UNL     1      19.914  40.423  -1.487  1.00  0.00    -0.353 OA
HETATM    3  C7  UNL     1      19.615  39.882  -2.710  1.00  0.00     0.180 C 
HETATM    4  C9  UNL     1      19.650  41.077  -3.640  1.00  0.00     0.183 C 
HETATM    5  C10 UNL     1      18.802  42.023  -2.772  1.00  0.00     0.216 C 
ENDROOT
BRANCH   1   6
HETATM    6  N5  UNL     1      20.498  42.643  -1.207  1.00  0.00    -0.297 N 
HETATM    7  C3  UNL     1      20.424  43.980  -1.130  1.00  0.00     0.142 A 
HETATM    8  N3  UNL     1      19.364  44.791  -1.223  1.00  0.00    -0.336 N 
HETATM    9  C4  UNL     1      21.674  44.524  -0.921  1.00  0.00     0.119 A 
HETATM   10  C2  UNL     1      19.540  46.105  -1.113  1.00  0.00     0.183 A 
ATOM     11  H3  UNL     1      18.432  44.405  -1.376  1.00  0.00     0.168 HD
HETATM   12  N2  UNL     1      20.730  46.701  -0.909  1.00  0.00    -0.339 N 
HETATM   13  C1  UNL     1      21.803  45.894  -0.814  1.00  0.00     0.148 A 
ATOM     14  H2  UNL     1      20.814  47.714  -0.830  1.00  0.00     0.167 HD
HETATM   15  N1  UNL     1      23.108  46.422  -0.599  1.00  0.00    -0.080 NA
HETATM   16  N4  UNL     1      22.518  43.478  -0.873  1.00  0.00    -0.346 N 
HETATM   17  C5  UNL     1      21.812  42.344  -1.045  1.00  0.00     0.188 A 
ATOM     18  H4  UNL     1      23.527  43.534  -0.730  1.00  0.00     0.167 HD
ENDBRANCH   1   6
BRANCH   5  19
HETATM   19  O7  UNL     1      17.522  41.524  -2.826  1.00  0.00    -0.270 OA
BRANCH  19  20
HETATM   20  P2  UNL     1      16.452  42.226  -1.767  1.00  0.00     0.422 P 
HETATM   21  O8  UNL     1      16.816  43.669  -1.540  1.00  0.00    -0.617 OA
HETATM   22  O9  UNL     1      16.287  41.374  -0.317  1.00  0.00    -0.617 OA
HETATM   23  O10 UNL     1      14.913  42.207  -2.516  1.00  0.00    -0.617 OA
ENDBRANCH  19  20
ENDBRANCH   5  19
BRANCH   3  24
HETATM   24  C8  UNL     1      20.550  38.795  -3.144  1.00  0.00     0.217 C 
BRANCH  24  25
HETATM   25  O2  UNL     1      21.524  38.502  -2.214  1.00  0.00    -0.280 OA
BRANCH  25  26
HETATM   26  P1  UNL     1      23.025  38.593  -3.028  1.00  0.00     0.422 P 
HETATM   27  O3  UNL     1      22.997  39.688  -4.049  1.00  0.00    -0.617 OA
HETATM   28  O4  UNL     1      24.290  38.786  -1.926  1.00  0.00    -0.617 OA
HETATM   29  O5  UNL     1      23.255  37.081  -3.787  1.00  0.00    -0.617 OA
ENDBRANCH  25  26
ENDBRANCH  24  25
ENDBRANCH   3  24
BRANCH   4  30
HETATM   30  O6  UNL     1      19.051  40.836  -4.856  1.00  0.00    -0.390 OA
ATOM     31  H6  UNL     1      19.594  40.326  -5.446  1.00  0.00     0.210 HD
ENDBRANCH   4  30
TORSDOF 7
ENDMDL
