MODEL 1
REMARK VINA RESULT: -8.693087054      0.000      0.000
REMARK  3 active torsions:
REMARK  status: ('A' for Active; 'I' for Inactive)
REMARK    1  A    between atoms: C2_5  and  O1_6 
REMARK    2  A    between atoms: O1_6  and  C3_7 
REMARK    3  A    between atoms: C3_7  and  C4_8 
ROOT
HETATM    1  N1  UNL     1      32.856  43.379  19.273  1.00  0.00    -0.063 NA
HETATM    2  C1  UNL     1      33.030  44.741  19.624  1.00  0.00     0.196 A 
HETATM    3  N2  UNL     1      33.243  45.684  18.689  1.00  0.00    -0.309 N 
ATOM      4  H2  UNL     1      33.276  45.392  17.712  1.00  0.00     0.170 HD
HETATM    5  C2  UNL     1      33.413  46.992  18.965  1.00  0.00     0.176 A 
HETATM    6  C10 UNL     1      33.367  47.376  20.273  1.00  0.00     0.129 A 
HETATM    7  N3  UNL     1      33.501  48.577  20.834  1.00  0.00    -0.346 N 
ATOM      8  H3  UNL     1      33.668  49.460  20.351  1.00  0.00     0.167 HD
HETATM    9  C11 UNL     1      33.371  48.399  22.161  1.00  0.00     0.182 A 
HETATM   10  N4  UNL     1      33.158  47.100  22.424  1.00  0.00    -0.337 N 
ATOM     11  H4  UNL     1      33.025  46.691  23.349  1.00  0.00     0.168 HD
HETATM   12  C12 UNL     1      33.150  46.422  21.241  1.00  0.00     0.140 A 
HETATM   13  N5  UNL     1      32.988  45.144  20.919  1.00  0.00    -0.315 N 
ATOM     14  H5  UNL     1      32.829  44.456  21.655  1.00  0.00     0.170 HD
ENDROOT
BRANCH   5  15
HETATM   15  O1  UNL     1      33.621  47.835  17.906  1.00  0.00    -0.334 OA
BRANCH  15  16
HETATM   16  C3  UNL     1      34.821  48.139  17.297  1.00  0.00     0.182 C 
BRANCH  16  17
HETATM   17  C4  UNL     1      34.992  49.633  17.000  1.00  0.00     0.010 C 
HETATM   18  C5  UNL     1      36.350  50.116  17.431  1.00  0.00     0.007 C 
HETATM   19  C6  UNL     1      36.195  50.771  18.795  1.00  0.00     0.000 C 
HETATM   20  C7  UNL     1      35.461  52.059  18.594  1.00  0.00     0.000 C 
HETATM   21  C8  UNL     1      34.124  51.772  17.995  1.00  0.00     0.000 C 
HETATM   22  C9  UNL     1      33.870  50.328  17.711  1.00  0.00     0.007 C 
ENDBRANCH  16  17
ENDBRANCH  15  16
ENDBRANCH   5  15
TORSDOF 3
ENDMDL
