MODEL 3
REMARK VINA RESULT: -8.497065676      0.724      2.710
REMARK  3 active torsions:
REMARK  status: ('A' for Active; 'I' for Inactive)
REMARK    1  A    between atoms: C2_5  and  O1_6 
REMARK    2  A    between atoms: O1_6  and  C3_7 
REMARK    3  A    between atoms: C3_7  and  C4_8 
ROOT
HETATM    1  N1  UNL     1      32.775  47.520  22.568  1.00  0.00    -0.063 NA
HETATM    2  C1  UNL     1      32.890  46.864  21.317  1.00  0.00     0.196 A 
HETATM    3  N2  UNL     1      33.142  47.548  20.187  1.00  0.00    -0.309 N 
ATOM      4  H2  UNL     1      33.250  48.560  20.253  1.00  0.00     0.170 HD
HETATM    5  C2  UNL     1      33.263  46.976  18.973  1.00  0.00     0.176 A 
HETATM    6  C10 UNL     1      33.118  45.622  18.892  1.00  0.00     0.129 A 
HETATM    7  N3  UNL     1      33.183  44.799  17.845  1.00  0.00    -0.346 N 
ATOM      8  H3  UNL     1      33.363  45.060  16.876  1.00  0.00     0.167 HD
HETATM    9  C11 UNL     1      32.967  43.559  18.317  1.00  0.00     0.182 A 
HETATM   10  N4  UNL     1      32.769  43.607  19.644  1.00  0.00    -0.337 N 
ATOM     11  H4  UNL     1      32.584  42.808  20.251  1.00  0.00     0.168 HD
HETATM   12  C12 UNL     1      32.860  44.909  20.040  1.00  0.00     0.140 A 
HETATM   13  N5  UNL     1      32.750  45.518  21.215  1.00  0.00    -0.315 N 
ATOM     14  H5  UNL     1      32.558  44.967  22.052  1.00  0.00     0.170 HD
ENDROOT
BRANCH   5  15
HETATM   15  O1  UNL     1      33.520  47.802  17.912  1.00  0.00    -0.334 OA
BRANCH  15  16
HETATM   16  C3  UNL     1      34.748  48.097  17.354  1.00  0.00     0.182 C 
BRANCH  16  17
HETATM   17  C4  UNL     1      34.932  49.585  17.039  1.00  0.00     0.010 C 
HETATM   18  C5  UNL     1      36.331  50.035  17.356  1.00  0.00     0.007 C 
HETATM   19  C6  UNL     1      36.304  50.696  18.725  1.00  0.00     0.000 C 
HETATM   20  C7  UNL     1      35.589  52.002  18.579  1.00  0.00     0.000 C 
HETATM   21  C8  UNL     1      34.201  51.748  18.091  1.00  0.00     0.000 C 
HETATM   22  C9  UNL     1      33.889  50.310  17.835  1.00  0.00     0.007 C 
ENDBRANCH  16  17
ENDBRANCH  15  16
ENDBRANCH   5  15
TORSDOF 3
ENDMDL
