MODEL 2
REMARK VINA RESULT: -8.607959277      1.067      1.580
REMARK  3 active torsions:
REMARK  status: ('A' for Active; 'I' for Inactive)
REMARK    1  A    between atoms: C2_5  and  O1_6 
REMARK    2  A    between atoms: O1_6  and  C3_7 
REMARK    3  A    between atoms: C3_7  and  C4_8 
ROOT
HETATM    1  N1  UNL     1      32.915  42.949  17.808  1.00  0.00    -0.063 NA
HETATM    2  C1  UNL     1      32.913  44.154  18.555  1.00  0.00     0.196 A 
HETATM    3  N2  UNL     1      33.124  45.345  17.967  1.00  0.00    -0.309 N 
ATOM      4  H2  UNL     1      33.289  45.360  16.960  1.00  0.00     0.170 HD
HETATM    5  C2  UNL     1      33.132  46.519  18.627  1.00  0.00     0.176 A 
HETATM    6  C10 UNL     1      32.912  46.492  19.973  1.00  0.00     0.129 A 
HETATM    7  N3  UNL     1      32.864  47.478  20.868  1.00  0.00    -0.346 N 
ATOM      8  H3  UNL     1      32.990  48.473  20.686  1.00  0.00     0.167 HD
HETATM    9  C11 UNL     1      32.616  46.904  22.059  1.00  0.00     0.182 A 
HETATM   10  N4  UNL     1      32.510  45.575  21.908  1.00  0.00    -0.337 N 
ATOM     11  H4  UNL     1      32.324  44.901  22.650  1.00  0.00     0.168 HD
HETATM   12  C12 UNL     1      32.694  45.281  20.589  1.00  0.00     0.140 A 
HETATM   13  N5  UNL     1      32.696  44.149  19.894  1.00  0.00    -0.315 N 
ATOM     14  H5  UNL     1      32.532  43.264  20.375  1.00  0.00     0.170 HD
ENDROOT
BRANCH   5  15
HETATM   15  O1  UNL     1      33.362  47.651  17.892  1.00  0.00    -0.334 OA
BRANCH  15  16
HETATM   16  C3  UNL     1      34.551  48.054  17.318  1.00  0.00     0.182 C 
BRANCH  16  17
HETATM   17  C4  UNL     1      35.388  48.961  18.225  1.00  0.00     0.010 C 
HETATM   18  C5  UNL     1      34.518  49.951  18.950  1.00  0.00     0.007 C 
HETATM   19  C6  UNL     1      34.576  51.264  18.186  1.00  0.00     0.000 C 
HETATM   20  C7  UNL     1      35.939  51.845  18.395  1.00  0.00     0.000 C 
HETATM   21  C8  UNL     1      36.963  50.890  17.876  1.00  0.00     0.000 C 
HETATM   22  C9  UNL     1      36.402  49.616  17.336  1.00  0.00     0.007 C 
ENDBRANCH  16  17
ENDBRANCH  15  16
ENDBRANCH   5  15
TORSDOF 3
ENDMDL
