MODEL 19
REMARK VINA RESULT: -8.740802357      2.162      4.414
REMARK  7 active torsions:
REMARK  status: ('A' for Active; 'I' for Inactive)
REMARK    1  A    between atoms: N1_1  and  S1_4 
REMARK    2  A    between atoms: S1_4  and  C1_7 
REMARK    3  A    between atoms: C4_10  and  N2_11 
REMARK    4  A    between atoms: N2_11  and  C5_13 
REMARK    5  A    between atoms: C6_16  and  O3_17 
REMARK    6  A    between atoms: O3_17  and  C7_18 
REMARK    7  A    between atoms: C7_18  and  C8_19 
ROOT
HETATM    1  C5  UNL     1       7.458  44.420  50.129  1.00  0.00     0.686 A 
HETATM    2  N3  UNL     1       6.369  44.904  50.818  1.00  0.00    -0.168 N 
ATOM      3  H3  UNL     1       5.440  44.545  50.597  1.00  0.00     0.186 HD
HETATM    4  C6  UNL     1       6.499  45.830  51.766  1.00  0.00     0.188 A 
HETATM    5  C14 UNL     1       7.714  46.361  52.118  1.00  0.00     0.130 A 
HETATM    6  N4  UNL     1       8.123  47.263  52.993  1.00  0.00    -0.346 N 
ATOM      7  H4  UNL     1       7.542  47.791  53.644  1.00  0.00     0.167 HD
HETATM    8  C15 UNL     1       9.461  47.345  52.853  1.00  0.00     0.182 A 
HETATM    9  N5  UNL     1       9.876  46.498  51.898  1.00  0.00    -0.336 N 
ATOM     10  H5  UNL     1      10.839  46.358  51.591  1.00  0.00     0.168 HD
HETATM   11  C16 UNL     1       8.801  45.877  51.427  1.00  0.00     0.153 A 
HETATM   12  N6  UNL     1       8.612  44.956  50.496  1.00  0.00    -0.174 N 
ATOM     13  H6  UNL     1       9.445  44.624  50.009  1.00  0.00     0.186 HD
ENDROOT
BRANCH   1  14
HETATM   14  N2  UNL     1       7.278  43.439  49.139  1.00  0.00    -0.192 N 
ATOM     15  H2  UNL     1       8.005  43.346  48.431  1.00  0.00     0.184 HD
BRANCH  14  16
HETATM   16  C4  UNL     1       6.176  42.580  49.053  1.00  0.00     0.049 A 
HETATM   17  C3  UNL     1       5.477  42.089  50.117  1.00  0.00     0.031 A 
HETATM   18  C2  UNL     1       4.370  41.230  49.962  1.00  0.00     0.027 A 
HETATM   19  C1  UNL     1       3.939  40.845  48.715  1.00  0.00     0.079 A 
HETATM   20  C18 UNL     1       4.641  41.338  47.648  1.00  0.00     0.027 A 
HETATM   21  C17 UNL     1       5.718  42.173  47.783  1.00  0.00     0.031 A 
BRANCH  19  22
HETATM   22  S1  UNL     1       2.570  39.783  48.491  1.00  0.00     0.256 S 
HETATM   23  O1  UNL     1       2.373  38.929  49.724  1.00  0.00    -0.201 OA
HETATM   24  O2  UNL     1       1.364  40.630  48.227  1.00  0.00    -0.201 OA
BRANCH  22  25
HETATM   25  N1  UNL     1       2.929  38.757  47.140  1.00  0.00    -0.324 N 
ATOM     26  H12 UNL     1       2.885  37.738  47.159  1.00  0.00     0.169 HD
ATOM     27  H11 UNL     1       3.186  39.335  46.340  1.00  0.00     0.169 HD
ENDBRANCH  22  25
ENDBRANCH  19  22
ENDBRANCH  14  16
ENDBRANCH   1  14
BRANCH   4  28
HETATM   28  O3  UNL     1       5.340  46.253  52.403  1.00  0.00    -0.333 OA
BRANCH  28  29
HETATM   29  C7  UNL     1       4.984  45.889  53.700  1.00  0.00     0.182 C 
BRANCH  29  30
HETATM   30  C8  UNL     1       3.626  45.197  53.635  1.00  0.00     0.010 C 
HETATM   31  C9  UNL     1       2.664  45.975  52.803  1.00  0.00     0.007 C 
HETATM   32  C10 UNL     1       2.067  45.216  51.657  1.00  0.00     0.000 C 
HETATM   33  C11 UNL     1       1.600  43.841  52.001  1.00  0.00     0.000 C 
HETATM   34  C12 UNL     1       2.485  43.144  53.006  1.00  0.00     0.000 C 
HETATM   35  C13 UNL     1       3.842  43.824  53.033  1.00  0.00     0.007 C 
ENDBRANCH  29  30
ENDBRANCH  28  29
ENDBRANCH   4  28
TORSDOF 7
ENDMDL
