MODEL 4
REMARK VINA RESULT: -9.358939933      1.700      2.230
REMARK  7 active torsions:
REMARK  status: ('A' for Active; 'I' for Inactive)
REMARK    1  A    between atoms: N1_1  and  S1_4 
REMARK    2  A    between atoms: S1_4  and  C1_7 
REMARK    3  A    between atoms: C4_10  and  N2_11 
REMARK    4  A    between atoms: N2_11  and  C5_13 
REMARK    5  A    between atoms: C6_16  and  O3_17 
REMARK    6  A    between atoms: O3_17  and  C7_18 
REMARK    7  A    between atoms: C7_18  and  C8_19 
ROOT
HETATM    1  C5  UNL     1       4.559  42.602  51.361  1.00  0.00     0.686 A 
HETATM    2  N3  UNL     1       5.008  43.859  51.698  1.00  0.00    -0.168 N 
ATOM      3  H3  UNL     1       5.873  44.206  51.281  1.00  0.00     0.186 HD
HETATM    4  C6  UNL     1       4.343  44.633  52.553  1.00  0.00     0.188 A 
HETATM    5  C14 UNL     1       3.175  44.235  53.153  1.00  0.00     0.130 A 
HETATM    6  N4  UNL     1       2.333  44.779  54.013  1.00  0.00    -0.346 N 
ATOM      7  H4  UNL     1       2.405  45.703  54.438  1.00  0.00     0.167 HD
HETATM    8  C15 UNL     1       1.360  43.869  54.217  1.00  0.00     0.182 A 
HETATM    9  N5  UNL     1       1.600  42.768  53.486  1.00  0.00    -0.336 N 
ATOM     10  H5  UNL     1       1.023  41.928  53.452  1.00  0.00     0.168 HD
HETATM   11  C16 UNL     1       2.728  42.977  52.817  1.00  0.00     0.153 A 
HETATM   12  N6  UNL     1       3.430  42.254  51.961  1.00  0.00    -0.174 N 
ATOM     13  H6  UNL     1       3.062  41.329  51.739  1.00  0.00     0.186 HD
ENDROOT
BRANCH   1  14
HETATM   14  N2  UNL     1       5.288  41.820  50.451  1.00  0.00    -0.192 N 
ATOM     15  H2  UNL     1       6.207  41.488  50.745  1.00  0.00     0.184 HD
BRANCH  14  16
HETATM   16  C4  UNL     1       4.850  41.462  49.170  1.00  0.00     0.049 A 
HETATM   17  C3  UNL     1       3.778  40.662  48.902  1.00  0.00     0.031 A 
HETATM   18  C2  UNL     1       3.383  40.343  47.587  1.00  0.00     0.027 A 
HETATM   19  C1  UNL     1       4.070  40.833  46.502  1.00  0.00     0.079 A 
HETATM   20  C18 UNL     1       5.146  41.635  46.772  1.00  0.00     0.027 A 
HETATM   21  C17 UNL     1       5.541  41.953  48.043  1.00  0.00     0.031 A 
BRANCH  19  22
HETATM   22  S1  UNL     1       3.606  40.456  44.859  1.00  0.00     0.256 S 
HETATM   23  O1  UNL     1       3.763  38.973  44.607  1.00  0.00    -0.201 OA
HETATM   24  O2  UNL     1       2.184  40.885  44.670  1.00  0.00    -0.201 OA
BRANCH  22  25
HETATM   25  N1  UNL     1       4.673  41.328  43.809  1.00  0.00    -0.324 N 
ATOM     26  H12 UNL     1       4.958  41.013  42.882  1.00  0.00     0.169 HD
ATOM     27  H11 UNL     1       4.960  42.193  44.266  1.00  0.00     0.169 HD
ENDBRANCH  22  25
ENDBRANCH  19  22
ENDBRANCH  14  16
ENDBRANCH   1  14
BRANCH   4  28
HETATM   28  O3  UNL     1       4.879  45.884  52.826  1.00  0.00    -0.333 OA
BRANCH  28  29
HETATM   29  C7  UNL     1       5.972  46.430  52.155  1.00  0.00     0.182 C 
BRANCH  29  30
HETATM   30  C8  UNL     1       7.143  46.473  53.131  1.00  0.00     0.010 C 
HETATM   31  C9  UNL     1       8.398  45.990  52.487  1.00  0.00     0.007 C 
HETATM   32  C10 UNL     1       9.537  46.964  52.523  1.00  0.00     0.000 C 
HETATM   33  C11 UNL     1       9.747  47.624  53.845  1.00  0.00     0.000 C 
HETATM   34  C12 UNL     1       8.459  47.922  54.573  1.00  0.00     0.000 C 
HETATM   35  C13 UNL     1       7.310  47.909  53.582  1.00  0.00     0.007 C 
ENDBRANCH  29  30
ENDBRANCH  28  29
ENDBRANCH   4  28
TORSDOF 7
ENDMDL
