MODEL 3
REMARK VINA RESULT: -9.392435091      2.007      2.710
REMARK  7 active torsions:
REMARK  status: ('A' for Active; 'I' for Inactive)
REMARK    1  A    between atoms: N1_1  and  S1_4 
REMARK    2  A    between atoms: S1_4  and  C1_7 
REMARK    3  A    between atoms: C4_10  and  N2_11 
REMARK    4  A    between atoms: N2_11  and  C5_13 
REMARK    5  A    between atoms: C6_16  and  O3_17 
REMARK    6  A    between atoms: O3_17  and  C7_18 
REMARK    7  A    between atoms: C7_18  and  C8_19 
ROOT
HETATM    1  C5  UNL     1       3.614  42.534  52.064  1.00  0.00     0.686 A 
HETATM    2  N3  UNL     1       4.301  43.714  51.897  1.00  0.00    -0.168 N 
ATOM      3  H3  UNL     1       5.063  43.755  51.221  1.00  0.00     0.186 HD
HETATM    4  C6  UNL     1       3.995  44.805  52.597  1.00  0.00     0.188 A 
HETATM    5  C14 UNL     1       2.984  44.827  53.524  1.00  0.00     0.130 A 
HETATM    6  N4  UNL     1       2.479  45.740  54.336  1.00  0.00    -0.346 N 
ATOM      7  H4  UNL     1       2.784  46.708  54.433  1.00  0.00     0.167 HD
HETATM    8  C15 UNL     1       1.481  45.135  55.009  1.00  0.00     0.182 A 
HETATM    9  N5  UNL     1       1.369  43.856  54.615  1.00  0.00    -0.336 N 
ATOM     10  H5  UNL     1       0.695  43.174  54.963  1.00  0.00     0.168 HD
HETATM   11  C16 UNL     1       2.299  43.646  53.690  1.00  0.00     0.153 A 
HETATM   12  N6  UNL     1       2.646  42.594  52.967  1.00  0.00    -0.174 N 
ATOM     13  H6  UNL     1       2.112  41.740  53.121  1.00  0.00     0.186 HD
ENDROOT
BRANCH   1  14
HETATM   14  N2  UNL     1       3.965  41.407  51.302  1.00  0.00    -0.192 N 
ATOM     15  H2  UNL     1       4.245  40.566  51.806  1.00  0.00     0.184 HD
BRANCH  14  16
HETATM   16  C4  UNL     1       3.960  41.352  49.903  1.00  0.00     0.049 A 
HETATM   17  C3  UNL     1       2.851  41.173  49.128  1.00  0.00     0.031 A 
HETATM   18  C2  UNL     1       2.911  41.133  47.720  1.00  0.00     0.027 A 
HETATM   19  C1  UNL     1       4.107  41.275  47.057  1.00  0.00     0.079 A 
HETATM   20  C18 UNL     1       5.219  41.453  47.836  1.00  0.00     0.027 A 
HETATM   21  C17 UNL     1       5.176  41.494  49.203  1.00  0.00     0.031 A 
BRANCH  19  22
HETATM   22  S1  UNL     1       4.215  41.229  45.314  1.00  0.00     0.256 S 
HETATM   23  O1  UNL     1       2.842  41.009  44.718  1.00  0.00    -0.201 OA
HETATM   24  O2  UNL     1       4.797  42.529  44.851  1.00  0.00    -0.201 OA
BRANCH  22  25
HETATM   25  N1  UNL     1       5.238  39.895  44.895  1.00  0.00    -0.324 N 
ATOM     26  H12 UNL     1       5.040  38.920  45.119  1.00  0.00     0.169 HD
ATOM     27  H11 UNL     1       6.055  40.243  44.395  1.00  0.00     0.169 HD
ENDBRANCH  22  25
ENDBRANCH  19  22
ENDBRANCH  14  16
ENDBRANCH   1  14
BRANCH   4  28
HETATM   28  O3  UNL     1       4.747  45.947  52.354  1.00  0.00    -0.333 OA
BRANCH  28  29
HETATM   29  C7  UNL     1       5.884  45.978  51.549  1.00  0.00     0.182 C 
BRANCH  29  30
HETATM   30  C8  UNL     1       7.103  46.022  52.465  1.00  0.00     0.010 C 
HETATM   31  C9  UNL     1       8.367  46.070  51.677  1.00  0.00     0.007 C 
HETATM   32  C10 UNL     1       9.253  47.240  51.982  1.00  0.00     0.000 C 
HETATM   33  C11 UNL     1       9.433  47.518  53.437  1.00  0.00     0.000 C 
HETATM   34  C12 UNL     1       8.186  47.267  54.251  1.00  0.00     0.000 C 
HETATM   35  C13 UNL     1       6.981  47.260  53.329  1.00  0.00     0.007 C 
ENDBRANCH  29  30
ENDBRANCH  28  29
ENDBRANCH   4  28
TORSDOF 7
ENDMDL
