MODEL 2
REMARK VINA RESULT: -9.395430598      1.887      2.536
REMARK  7 active torsions:
REMARK  status: ('A' for Active; 'I' for Inactive)
REMARK    1  A    between atoms: N1_1  and  S1_4 
REMARK    2  A    between atoms: S1_4  and  C1_7 
REMARK    3  A    between atoms: C4_10  and  N2_11 
REMARK    4  A    between atoms: N2_11  and  C5_13 
REMARK    5  A    between atoms: C6_16  and  O3_17 
REMARK    6  A    between atoms: O3_17  and  C7_18 
REMARK    7  A    between atoms: C7_18  and  C8_19 
ROOT
HETATM    1  C5  UNL     1       3.834  42.503  51.903  1.00  0.00     0.686 A 
HETATM    2  N3  UNL     1       4.662  43.590  51.742  1.00  0.00    -0.168 N 
ATOM      3  H3  UNL     1       5.402  43.553  51.040  1.00  0.00     0.186 HD
HETATM    4  C6  UNL     1       4.523  44.689  52.481  1.00  0.00     0.188 A 
HETATM    5  C14 UNL     1       3.554  44.813  53.444  1.00  0.00     0.130 A 
HETATM    6  N4  UNL     1       3.198  45.757  54.297  1.00  0.00    -0.346 N 
ATOM      7  H4  UNL     1       3.629  46.674  54.408  1.00  0.00     0.167 HD
HETATM    8  C15 UNL     1       2.152  45.265  54.990  1.00  0.00     0.182 A 
HETATM    9  N5  UNL     1       1.863  44.024  54.567  1.00  0.00    -0.336 N 
ATOM     10  H5  UNL     1       1.118  43.423  54.920  1.00  0.00     0.168 HD
HETATM   11  C16 UNL     1       2.727  43.724  53.604  1.00  0.00     0.153 A 
HETATM   12  N6  UNL     1       2.912  42.660  52.841  1.00  0.00    -0.174 N 
ATOM     13  H6  UNL     1       2.277  41.876  52.992  1.00  0.00     0.186 HD
ENDROOT
BRANCH   1  14
HETATM   14  N2  UNL     1       4.012  41.364  51.099  1.00  0.00    -0.192 N 
ATOM     15  H2  UNL     1       4.050  40.459  51.567  1.00  0.00     0.184 HD
BRANCH  14  16
HETATM   16  C4  UNL     1       4.140  41.378  49.705  1.00  0.00     0.049 A 
HETATM   17  C3  UNL     1       5.315  41.513  49.025  1.00  0.00     0.031 A 
HETATM   18  C2  UNL     1       5.378  41.514  47.617  1.00  0.00     0.027 A 
HETATM   19  C1  UNL     1       4.242  41.375  46.856  1.00  0.00     0.079 A 
HETATM   20  C18 UNL     1       3.062  41.240  47.539  1.00  0.00     0.027 A 
HETATM   21  C17 UNL     1       2.986  41.238  48.906  1.00  0.00     0.031 A 
BRANCH  19  22
HETATM   22  S1  UNL     1       4.287  41.371  45.109  1.00  0.00     0.256 S 
HETATM   23  O1  UNL     1       4.903  42.658  44.607  1.00  0.00    -0.201 OA
HETATM   24  O2  UNL     1       5.088  40.185  44.669  1.00  0.00    -0.201 OA
BRANCH  22  25
HETATM   25  N1  UNL     1       2.649  41.269  44.551  1.00  0.00    -0.324 N 
ATOM     26  H12 UNL     1       2.206  41.944  43.928  1.00  0.00     0.169 HD
ATOM     27  H11 UNL     1       2.213  40.436  44.944  1.00  0.00     0.169 HD
ENDBRANCH  22  25
ENDBRANCH  19  22
ENDBRANCH  14  16
ENDBRANCH   1  14
BRANCH   4  28
HETATM   28  O3  UNL     1       5.409  45.731  52.241  1.00  0.00    -0.333 OA
BRANCH  28  29
HETATM   29  C7  UNL     1       6.622  45.588  51.572  1.00  0.00     0.182 C 
BRANCH  29  30
HETATM   30  C8  UNL     1       7.553  46.696  52.052  1.00  0.00     0.010 C 
HETATM   31  C9  UNL     1       6.933  47.479  53.159  1.00  0.00     0.007 C 
HETATM   32  C10 UNL     1       7.740  47.528  54.421  1.00  0.00     0.000 C 
HETATM   33  C11 UNL     1       9.192  47.807  54.219  1.00  0.00     0.000 C 
HETATM   34  C12 UNL     1       9.754  47.166  52.973  1.00  0.00     0.000 C 
HETATM   35  C13 UNL     1       8.833  46.044  52.530  1.00  0.00     0.007 C 
ENDBRANCH  29  30
ENDBRANCH  28  29
ENDBRANCH   4  28
TORSDOF 7
ENDMDL
