MODEL 9
REMARK VINA RESULT: -10.415133166      2.467      8.053
REMARK  13 active torsions:
REMARK  status: ('A' for Active; 'I' for Inactive)
REMARK    1  A    between atoms: C9_12  and  N2_13 
REMARK    2  A    between atoms: N2_13  and  C10_16 
REMARK    3  A    between atoms: C10_16  and  C11_17 
REMARK    4  A    between atoms: C11_17  and  C12_18 
REMARK    5  A    between atoms: C12_18  and  C13_19 
REMARK    6  A    between atoms: C13_19  and  C14_20 
REMARK    7  A    between atoms: C14_20  and  C15_21 
REMARK    8  A    between atoms: C15_21  and  C16_22 
REMARK    9  A    between atoms: C16_22  and  C17_23 
REMARK   10  A    between atoms: C17_23  and  C18_24 
REMARK   11  A    between atoms: C18_24  and  C19_25 
REMARK   12  A    between atoms: C19_25  and  N3_26 
REMARK   13  A    between atoms: N3_26  and  C20_29 
ROOT
HETATM    1  C14 UNL     1       5.028  65.543  67.711  1.00  0.00     0.000 C 
ENDROOT
BRANCH   1   2
HETATM    2  C13 UNL     1       3.792  65.785  68.504  1.00  0.00     0.000 C 
BRANCH   2   3
HETATM    3  C12 UNL     1       3.857  65.198  69.893  1.00  0.00     0.002 C 
BRANCH   3   4
HETATM    4  C11 UNL     1       4.923  64.151  70.028  1.00  0.00     0.027 C 
BRANCH   4   5
HETATM    5  C10 UNL     1       4.351  62.760  70.174  1.00  0.00     0.233 C 
BRANCH   5   6
HETATM    6  N2  UNL     1       3.228  62.488  69.340  1.00  0.00    -0.067 N 
ATOM      7  H22 UNL     1       3.530  62.190  68.413  1.00  0.00     0.277 HD
ATOM      8  H21 UNL     1       2.744  63.352  69.091  1.00  0.00     0.277 HD
BRANCH   6   9
HETATM    9  C9  UNL     1       2.300  61.524  69.915  1.00  0.00     0.220 C 
HETATM   10  C4  UNL     1       1.594  62.212  70.998  1.00  0.00    -0.005 A 
HETATM   11  C3  UNL     1       0.795  63.310  70.691  1.00  0.00     0.017 A 
HETATM   12  C5  UNL     1       1.685  61.823  72.291  1.00  0.00     0.020 A 
HETATM   13  C2  UNL     1       0.112  63.986  71.690  1.00  0.00     0.075 A 
HETATM   14  C1  UNL     1       0.275  63.509  72.968  1.00  0.00     0.245 A 
HETATM   15  O1  UNL     1      -0.336  64.103  73.910  1.00  0.00    -0.268 OA
HETATM   16  N1  UNL     1       1.031  62.463  73.285  1.00  0.00    -0.327 N 
ATOM     17  H1  UNL     1       1.115  62.151  74.252  1.00  0.00     0.169 HD
HETATM   18  C6  UNL     1       2.514  60.665  72.696  1.00  0.00     0.058 C 
HETATM   19  C7  UNL     1       2.336  59.626  71.579  1.00  0.00     0.008 C 
HETATM   20  C8  UNL     1       2.997  60.275  70.364  1.00  0.00     0.038 C 
ENDBRANCH   6   9
ENDBRANCH   5   6
ENDBRANCH   4   5
ENDBRANCH   3   4
ENDBRANCH   2   3
ENDBRANCH   1   2
BRANCH   1  21
HETATM   21  C15 UNL     1       4.843  65.407  66.241  1.00  0.00     0.000 C 
BRANCH  21  22
HETATM   22  C16 UNL     1       3.487  64.708  65.937  1.00  0.00     0.000 C 
BRANCH  22  23
HETATM   23  C17 UNL     1       3.377  64.493  64.479  1.00  0.00     0.002 C 
BRANCH  23  24
HETATM   24  C18 UNL     1       4.571  64.889  63.698  1.00  0.00     0.027 C 
BRANCH  24  25
HETATM   25  C19 UNL     1       4.418  65.974  62.720  1.00  0.00     0.233 C 
BRANCH  25  26
HETATM   26  N3  UNL     1       4.967  67.241  63.033  1.00  0.00    -0.067 N 
ATOM     27  H32 UNL     1       5.473  67.226  63.919  1.00  0.00     0.277 HD
ATOM     28  H31 UNL     1       5.745  67.479  62.418  1.00  0.00     0.277 HD
BRANCH  26  29
HETATM   29  C20 UNL     1       3.909  68.291  63.018  1.00  0.00     0.220 C 
HETATM   30  C21 UNL     1       3.169  68.203  61.716  1.00  0.00     0.038 C 
HETATM   31  C22 UNL     1       1.690  68.453  61.861  1.00  0.00     0.008 C 
HETATM   32  C23 UNL     1       1.048  67.594  62.912  1.00  0.00     0.058 C 
HETATM   33  C24 UNL     1       1.713  67.882  64.207  1.00  0.00     0.020 A 
HETATM   34  N4  UNL     1       0.978  67.818  65.325  1.00  0.00    -0.327 N 
HETATM   35  C28 UNL     1       3.048  68.195  64.194  1.00  0.00    -0.005 A 
HETATM   36  C25 UNL     1       1.507  68.061  66.547  1.00  0.00     0.245 A 
ATOM     37  H4  UNL     1      -0.010  67.577  65.254  1.00  0.00     0.169 HD
HETATM   38  O2  UNL     1       0.840  68.009  67.613  1.00  0.00    -0.268 OA
HETATM   39  C26 UNL     1       2.853  68.383  66.597  1.00  0.00     0.075 A 
HETATM   40  C27 UNL     1       3.617  68.450  65.440  1.00  0.00     0.017 A 
ENDBRANCH  26  29
ENDBRANCH  25  26
ENDBRANCH  24  25
ENDBRANCH  23  24
ENDBRANCH  22  23
ENDBRANCH  21  22
ENDBRANCH   1  21
TORSDOF 13
ENDMDL
