MODEL 1
REMARK VINA RESULT: -11.158492833      0.000      0.000
REMARK  13 active torsions:
REMARK  status: ('A' for Active; 'I' for Inactive)
REMARK    1  A    between atoms: C9_12  and  N2_13 
REMARK    2  A    between atoms: N2_13  and  C10_16 
REMARK    3  A    between atoms: C10_16  and  C11_17 
REMARK    4  A    between atoms: C11_17  and  C12_18 
REMARK    5  A    between atoms: C12_18  and  C13_19 
REMARK    6  A    between atoms: C13_19  and  C14_20 
REMARK    7  A    between atoms: C14_20  and  C15_21 
REMARK    8  A    between atoms: C15_21  and  C16_22 
REMARK    9  A    between atoms: C16_22  and  C17_23 
REMARK   10  A    between atoms: C17_23  and  C18_24 
REMARK   11  A    between atoms: C18_24  and  C19_25 
REMARK   12  A    between atoms: C19_25  and  N3_26 
REMARK   13  A    between atoms: N3_26  and  C20_29 
ROOT
HETATM    1  C14 UNL     1       4.030  63.857  69.351  1.00  0.00     0.000 C 
ENDROOT
BRANCH   1   2
HETATM    2  C13 UNL     1       5.093  64.867  69.099  1.00  0.00     0.000 C 
BRANCH   2   3
HETATM    3  C12 UNL     1       4.940  65.567  67.770  1.00  0.00     0.002 C 
BRANCH   3   4
HETATM    4  C11 UNL     1       3.807  65.016  66.956  1.00  0.00     0.027 C 
BRANCH   4   5
HETATM    5  C10 UNL     1       3.951  65.325  65.484  1.00  0.00     0.233 C 
BRANCH   5   6
HETATM    6  N2  UNL     1       2.894  66.107  64.934  1.00  0.00    -0.067 N 
ATOM      7  H22 UNL     1       2.088  66.115  65.558  1.00  0.00     0.277 HD
ATOM      8  H21 UNL     1       2.479  65.639  64.128  1.00  0.00     0.277 HD
BRANCH   6   9
HETATM    9  C9  UNL     1       3.297  67.464  64.592  1.00  0.00     0.220 C 
HETATM   10  C4  UNL     1       2.508  67.856  63.422  1.00  0.00    -0.005 A 
HETATM   11  C3  UNL     1       1.123  67.932  63.537  1.00  0.00     0.017 A 
HETATM   12  C5  UNL     1       3.072  68.150  62.228  1.00  0.00     0.020 A 
HETATM   13  C2  UNL     1       0.344  68.299  62.451  1.00  0.00     0.075 A 
HETATM   14  C1  UNL     1       1.018  68.575  61.285  1.00  0.00     0.245 A 
HETATM   15  O1  UNL     1       0.337  68.916  60.268  1.00  0.00    -0.268 OA
HETATM   16  N1  UNL     1       2.338  68.511  61.152  1.00  0.00    -0.327 N 
ATOM     17  H1  UNL     1       2.786  68.728  60.262  1.00  0.00     0.169 HD
HETATM   18  C6  UNL     1       4.538  68.093  62.027  1.00  0.00     0.058 C 
HETATM   19  C7  UNL     1       5.149  68.626  63.331  1.00  0.00     0.008 C 
HETATM   20  C8  UNL     1       4.775  67.571  64.371  1.00  0.00     0.038 C 
ENDBRANCH   6   9
ENDBRANCH   5   6
ENDBRANCH   4   5
ENDBRANCH   3   4
ENDBRANCH   2   3
ENDBRANCH   1   2
BRANCH   1  21
HETATM   21  C15 UNL     1       4.385  62.756  70.288  1.00  0.00     0.000 C 
BRANCH  21  22
HETATM   22  C16 UNL     1       3.137  61.869  70.565  1.00  0.00     0.000 C 
BRANCH  22  23
HETATM   23  C17 UNL     1       2.236  62.588  71.490  1.00  0.00     0.002 C 
BRANCH  23  24
HETATM   24  C18 UNL     1       0.907  62.925  70.932  1.00  0.00     0.027 C 
BRANCH  24  25
HETATM   25  C19 UNL     1       0.582  64.346  70.752  1.00  0.00     0.233 C 
BRANCH  25  26
HETATM   26  N3  UNL     1       0.821  64.933  69.485  1.00  0.00    -0.067 N 
ATOM     27  H32 UNL     1       1.737  64.676  69.117  1.00  0.00     0.277 HD
ATOM     28  H31 UNL     1       0.241  64.515  68.758  1.00  0.00     0.277 HD
BRANCH  26  29
HETATM   29  C20 UNL     1       0.646  66.412  69.550  1.00  0.00     0.220 C 
HETATM   30  C21 UNL     1       2.003  67.053  69.548  1.00  0.00     0.038 C 
HETATM   31  C22 UNL     1       2.052  68.328  68.747  1.00  0.00     0.008 C 
HETATM   32  C23 UNL     1       1.524  68.165  67.350  1.00  0.00     0.058 C 
HETATM   33  C24 UNL     1       0.115  67.710  67.444  1.00  0.00     0.020 A 
HETATM   34  N4  UNL     1      -0.747  68.118  66.503  1.00  0.00    -0.327 N 
HETATM   35  C28 UNL     1      -0.233  66.891  68.487  1.00  0.00    -0.005 A 
HETATM   36  C25 UNL     1      -2.049  67.746  66.512  1.00  0.00     0.245 A 
ATOM     37  H4  UNL     1      -0.413  68.728  65.757  1.00  0.00     0.169 HD
HETATM   38  O2  UNL     1      -2.880  68.115  65.642  1.00  0.00    -0.268 OA
HETATM   39  C26 UNL     1      -2.459  66.917  67.542  1.00  0.00     0.075 A 
HETATM   40  C27 UNL     1      -1.568  66.492  68.518  1.00  0.00     0.017 A 
ENDBRANCH  26  29
ENDBRANCH  25  26
ENDBRANCH  24  25
ENDBRANCH  23  24
ENDBRANCH  22  23
ENDBRANCH  21  22
ENDBRANCH   1  21
TORSDOF 13
ENDMDL
