MODEL 2
REMARK VINA RESULT: -11.067089036      0.544      5.723
REMARK  13 active torsions:
REMARK  status: ('A' for Active; 'I' for Inactive)
REMARK    1  A    between atoms: C9_12  and  N2_13 
REMARK    2  A    between atoms: N2_13  and  C10_16 
REMARK    3  A    between atoms: C10_16  and  C11_17 
REMARK    4  A    between atoms: C11_17  and  C12_18 
REMARK    5  A    between atoms: C12_18  and  C13_19 
REMARK    6  A    between atoms: C13_19  and  C14_20 
REMARK    7  A    between atoms: C14_20  and  C15_21 
REMARK    8  A    between atoms: C15_21  and  C16_22 
REMARK    9  A    between atoms: C16_22  and  C17_23 
REMARK   10  A    between atoms: C17_23  and  C18_24 
REMARK   11  A    between atoms: C18_24  and  C19_25 
REMARK   12  A    between atoms: C19_25  and  N3_26 
REMARK   13  A    between atoms: N3_26  and  C20_29 
ROOT
HETATM    1  C14 UNL     1       4.007  62.805  69.879  1.00  0.00     0.000 C 
ENDROOT
BRANCH   1   2
HETATM    2  C13 UNL     1       2.845  62.925  70.799  1.00  0.00     0.000 C 
BRANCH   2   3
HETATM    3  C12 UNL     1       1.605  62.239  70.279  1.00  0.00     0.002 C 
BRANCH   3   4
HETATM    4  C11 UNL     1       0.346  62.971  70.641  1.00  0.00     0.027 C 
BRANCH   4   5
HETATM    5  C10 UNL     1       0.551  64.465  70.725  1.00  0.00     0.233 C 
BRANCH   5   6
HETATM    6  N2  UNL     1       0.796  65.103  69.474  1.00  0.00    -0.067 N 
ATOM      7  H22 UNL     1       0.186  64.724  68.750  1.00  0.00     0.277 HD
ATOM      8  H21 UNL     1       1.701  64.823  69.096  1.00  0.00     0.277 HD
BRANCH   6   9
HETATM    9  C9  UNL     1       0.687  66.553  69.534  1.00  0.00     0.220 C 
HETATM   10  C4  UNL     1      -0.217  66.954  68.453  1.00  0.00    -0.005 A 
HETATM   11  C3  UNL     1      -1.536  66.513  68.480  1.00  0.00     0.017 A 
HETATM   12  C5  UNL     1       0.179  67.739  67.425  1.00  0.00     0.020 A 
HETATM   13  C2  UNL     1      -2.420  66.872  67.474  1.00  0.00     0.075 A 
HETATM   14  C1  UNL     1      -1.914  67.670  66.477  1.00  0.00     0.245 A 
HETATM   15  O1  UNL     1      -2.695  68.020  65.537  1.00  0.00    -0.268 OA
HETATM   16  N1  UNL     1      -0.660  68.104  66.430  1.00  0.00    -0.327 N 
ATOM     17  H1  UNL     1      -0.338  68.697  65.665  1.00  0.00     0.169 HD
HETATM   18  C6  UNL     1       1.566  68.248  67.326  1.00  0.00     0.058 C 
HETATM   19  C7  UNL     1       1.981  68.580  68.767  1.00  0.00     0.008 C 
HETATM   20  C8  UNL     1       2.027  67.220  69.461  1.00  0.00     0.038 C 
ENDBRANCH   6   9
ENDBRANCH   5   6
ENDBRANCH   4   5
ENDBRANCH   3   4
ENDBRANCH   2   3
ENDBRANCH   1   2
BRANCH   1  21
HETATM   21  C15 UNL     1       5.036  63.875  69.985  1.00  0.00     0.000 C 
BRANCH  21  22
HETATM   22  C16 UNL     1       4.512  65.186  69.331  1.00  0.00     0.000 C 
BRANCH  22  23
HETATM   23  C17 UNL     1       4.377  64.972  67.876  1.00  0.00     0.002 C 
BRANCH  23  24
HETATM   24  C18 UNL     1       4.916  66.063  67.032  1.00  0.00     0.027 C 
BRANCH  24  25
HETATM   25  C19 UNL     1       4.708  65.971  65.581  1.00  0.00     0.233 C 
BRANCH  25  26
HETATM   26  N3  UNL     1       3.497  66.472  65.044  1.00  0.00    -0.067 N 
ATOM     27  H32 UNL     1       3.097  65.835  64.354  1.00  0.00     0.277 HD
ATOM     28  H31 UNL     1       2.742  66.449  65.729  1.00  0.00     0.277 HD
BRANCH  26  29
HETATM   29  C20 UNL     1       3.695  67.840  64.485  1.00  0.00     0.220 C 
HETATM   30  C21 UNL     1       5.154  68.028  64.191  1.00  0.00     0.038 C 
HETATM   31  C22 UNL     1       5.405  68.810  62.928  1.00  0.00     0.008 C 
HETATM   32  C23 UNL     1       4.676  68.254  61.738  1.00  0.00     0.058 C 
HETATM   33  C24 UNL     1       3.224  68.280  62.038  1.00  0.00     0.020 A 
HETATM   34  N4  UNL     1       2.371  68.497  61.028  1.00  0.00    -0.327 N 
HETATM   35  C28 UNL     1       2.826  68.075  63.334  1.00  0.00    -0.005 A 
HETATM   36  C25 UNL     1       1.031  68.532  61.215  1.00  0.00     0.245 A 
ATOM     37  H4  UNL     1       2.743  68.641  60.089  1.00  0.00     0.169 HD
HETATM   38  O2  UNL     1       0.207  68.735  60.284  1.00  0.00    -0.268 OA
HETATM   39  C26 UNL     1       0.569  68.331  62.504  1.00  0.00     0.075 A 
HETATM   40  C27 UNL     1       1.450  68.105  63.553  1.00  0.00     0.017 A 
ENDBRANCH  26  29
ENDBRANCH  25  26
ENDBRANCH  24  25
ENDBRANCH  23  24
ENDBRANCH  22  23
ENDBRANCH  21  22
ENDBRANCH   1  21
TORSDOF 13
ENDMDL
