MODEL 11
REMARK VINA RESULT: -10.406174454      3.365      6.048
REMARK  13 active torsions:
REMARK  status: ('A' for Active; 'I' for Inactive)
REMARK    1  A    between atoms: C9_12  and  N2_13 
REMARK    2  A    between atoms: N2_13  and  C10_16 
REMARK    3  A    between atoms: C10_16  and  C11_17 
REMARK    4  A    between atoms: C11_17  and  C12_18 
REMARK    5  A    between atoms: C12_18  and  C13_19 
REMARK    6  A    between atoms: C13_19  and  C14_20 
REMARK    7  A    between atoms: C14_20  and  C15_21 
REMARK    8  A    between atoms: C15_21  and  C16_22 
REMARK    9  A    between atoms: C16_22  and  C17_23 
REMARK   10  A    between atoms: C17_23  and  C18_24 
REMARK   11  A    between atoms: C18_24  and  C19_25 
REMARK   12  A    between atoms: C19_25  and  N3_26 
REMARK   13  A    between atoms: N3_26  and  C20_29 
ROOT
HETATM    1  C14 UNL     1       4.210  63.380  70.094  1.00  0.00     0.000 C 
ENDROOT
BRANCH   1   2
HETATM    2  C13 UNL     1       4.885  64.578  69.526  1.00  0.00     0.000 C 
BRANCH   2   3
HETATM    3  C12 UNL     1       3.927  65.541  68.868  1.00  0.00     0.002 C 
BRANCH   3   4
HETATM    4  C11 UNL     1       4.346  65.911  67.476  1.00  0.00     0.027 C 
BRANCH   4   5
HETATM    5  C10 UNL     1       3.467  66.981  66.874  1.00  0.00     0.233 C 
BRANCH   5   6
HETATM    6  N2  UNL     1       3.336  66.914  65.456  1.00  0.00    -0.067 N 
ATOM      7  H22 UNL     1       2.392  66.633  65.193  1.00  0.00     0.277 HD
ATOM      8  H21 UNL     1       3.859  66.123  65.080  1.00  0.00     0.277 HD
BRANCH   6   9
HETATM    9  C9  UNL     1       3.713  68.149  64.781  1.00  0.00     0.220 C 
HETATM   10  C4  UNL     1       2.950  68.198  63.532  1.00  0.00    -0.005 A 
HETATM   11  C3  UNL     1       1.561  68.255  63.594  1.00  0.00     0.017 A 
HETATM   12  C5  UNL     1       3.540  68.190  62.316  1.00  0.00     0.020 A 
HETATM   13  C2  UNL     1       0.805  68.302  62.433  1.00  0.00     0.075 A 
HETATM   14  C1  UNL     1       1.505  68.288  61.251  1.00  0.00     0.245 A 
HETATM   15  O1  UNL     1       0.846  68.331  60.165  1.00  0.00    -0.268 OA
HETATM   16  N1  UNL     1       2.829  68.235  61.167  1.00  0.00    -0.327 N 
ATOM     17  H1  UNL     1       3.298  68.228  60.261  1.00  0.00     0.169 HD
HETATM   18  C6  UNL     1       5.013  68.131  62.168  1.00  0.00     0.058 C 
HETATM   19  C7  UNL     1       5.571  69.004  63.302  1.00  0.00     0.008 C 
HETATM   20  C8  UNL     1       5.194  68.244  64.572  1.00  0.00     0.038 C 
ENDBRANCH   6   9
ENDBRANCH   5   6
ENDBRANCH   4   5
ENDBRANCH   3   4
ENDBRANCH   2   3
ENDBRANCH   1   2
BRANCH   1  21
HETATM   21  C15 UNL     1       3.244  62.690  69.197  1.00  0.00     0.000 C 
BRANCH  21  22
HETATM   22  C16 UNL     1       1.953  62.323  69.986  1.00  0.00     0.000 C 
BRANCH  22  23
HETATM   23  C17 UNL     1       1.855  63.195  71.174  1.00  0.00     0.002 C 
BRANCH  23  24
HETATM   24  C18 UNL     1       0.644  62.991  72.001  1.00  0.00     0.027 C 
BRANCH  24  25
HETATM   25  C19 UNL     1       0.813  62.360  73.316  1.00  0.00     0.233 C 
BRANCH  25  26
HETATM   26  N3  UNL     1       2.123  62.249  73.843  1.00  0.00    -0.067 N 
ATOM     27  H32 UNL     1       2.819  62.652  73.215  1.00  0.00     0.277 HD
ATOM     28  H31 UNL     1       2.263  62.866  74.643  1.00  0.00     0.277 HD
BRANCH  26  29
HETATM   29  C20 UNL     1       2.436  60.831  74.179  1.00  0.00     0.220 C 
HETATM   30  C21 UNL     1       1.263  60.243  74.907  1.00  0.00     0.038 C 
HETATM   31  C22 UNL     1       0.996  58.809  74.533  1.00  0.00     0.008 C 
HETATM   32  C23 UNL     1       0.877  58.600  73.049  1.00  0.00     0.058 C 
HETATM   33  C24 UNL     1       2.152  59.030  72.424  1.00  0.00     0.020 A 
HETATM   34  N4  UNL     1       2.575  58.377  71.334  1.00  0.00    -0.327 N 
HETATM   35  C28 UNL     1       2.830  60.078  72.991  1.00  0.00    -0.005 A 
HETATM   36  C25 UNL     1       3.724  58.707  70.699  1.00  0.00     0.245 A 
ATOM     37  H4  UNL     1       2.014  57.606  70.970  1.00  0.00     0.169 HD
HETATM   38  O2  UNL     1       4.146  58.111  69.675  1.00  0.00    -0.268 OA
HETATM   39  C26 UNL     1       4.453  59.760  71.226  1.00  0.00     0.075 A 
HETATM   40  C27 UNL     1       4.017  60.439  72.355  1.00  0.00     0.017 A 
ENDBRANCH  26  29
ENDBRANCH  25  26
ENDBRANCH  24  25
ENDBRANCH  23  24
ENDBRANCH  22  23
ENDBRANCH  21  22
ENDBRANCH   1  21
TORSDOF 13
ENDMDL
