MODEL 1
REMARK VINA RESULT: -11.573292484      0.000      0.000
REMARK  15 active torsions:
REMARK  status: ('A' for Active; 'I' for Inactive)
REMARK    1  A    between atoms: C9_12  and  N2_13 
REMARK    2  A    between atoms: N2_13  and  C10_16 
REMARK    3  A    between atoms: C10_16  and  C11_17 
REMARK    4  A    between atoms: C11_17  and  C12_18 
REMARK    5  A    between atoms: C12_18  and  C13_19 
REMARK    6  A    between atoms: C13_19  and  C14_20 
REMARK    7  A    between atoms: C14_20  and  C15_21 
REMARK    8  A    between atoms: C15_21  and  C16_22 
REMARK    9  A    between atoms: C16_22  and  C17_23 
REMARK   10  A    between atoms: C17_23  and  C18_24 
REMARK   11  A    between atoms: C18_24  and  C19_25 
REMARK   12  A    between atoms: C19_25  and  C20_26 
REMARK   13  A    between atoms: C20_26  and  C21_27 
REMARK   14  A    between atoms: C21_27  and  N3_28 
REMARK   15  A    between atoms: N3_28  and  C22_30 
ROOT
HETATM    1  C15 UNL     1       3.351  62.611  69.385  1.00  0.00     0.000 C 
ENDROOT
BRANCH   1   2
HETATM    2  C14 UNL     1       2.164  61.920  69.880  1.00  0.00     0.000 C 
BRANCH   2   3
HETATM    3  C13 UNL     1       1.875  61.842  71.313  1.00  0.00     0.000 C 
BRANCH   3   4
HETATM    4  C12 UNL     1       1.457  63.084  71.993  1.00  0.00     0.002 C 
BRANCH   4   5
HETATM    5  C11 UNL     1       0.239  63.612  71.187  1.00  0.00     0.027 C 
BRANCH   5   6
HETATM    6  C10 UNL     1       0.446  65.075  70.959  1.00  0.00     0.233 C 
BRANCH   6   7
HETATM    7  N2  UNL     1       0.909  65.439  69.651  1.00  0.00    -0.067 N 
ATOM      8  H22 UNL     1       0.416  64.914  68.928  1.00  0.00     0.277 HD
ATOM      9  H21 UNL     1       1.855  65.093  69.487  1.00  0.00     0.277 HD
BRANCH   7  10
HETATM   10  C9  UNL     1       0.828  66.842  69.411  1.00  0.00     0.220 C 
HETATM   11  C4  UNL     1      -0.277  67.240  68.496  1.00  0.00    -0.005 A 
HETATM   12  C3  UNL     1      -1.337  66.418  68.213  1.00  0.00     0.017 A 
HETATM   13  C5  UNL     1      -0.192  68.485  67.934  1.00  0.00     0.020 A 
HETATM   14  C2  UNL     1      -2.317  66.872  67.351  1.00  0.00     0.075 A 
HETATM   15  C1  UNL     1      -2.214  68.119  66.800  1.00  0.00     0.245 A 
HETATM   16  O1  UNL     1      -3.123  68.532  66.003  1.00  0.00    -0.268 OA
HETATM   17  N1  UNL     1      -1.160  68.896  67.099  1.00  0.00    -0.327 N 
ATOM     18  H1  UNL     1      -1.093  69.824  66.682  1.00  0.00     0.169 HD
HETATM   19  C6  UNL     1       0.925  69.425  68.196  1.00  0.00     0.058 C 
HETATM   20  C7  UNL     1       2.199  68.770  68.593  1.00  0.00     0.008 C 
HETATM   21  C8  UNL     1       2.105  67.278  68.721  1.00  0.00     0.038 C 
ENDBRANCH   7  10
ENDBRANCH   6   7
ENDBRANCH   5   6
ENDBRANCH   4   5
ENDBRANCH   3   4
ENDBRANCH   2   3
ENDBRANCH   1   2
BRANCH   1  22
HETATM   22  C16 UNL     1       4.451  63.048  70.254  1.00  0.00     0.000 C 
BRANCH  22  23
HETATM   23  C17 UNL     1       4.547  64.586  70.152  1.00  0.00     0.000 C 
BRANCH  23  24
HETATM   24  C18 UNL     1       5.439  65.015  68.990  1.00  0.00     0.000 C 
BRANCH  24  25
HETATM   25  C19 UNL     1       4.629  65.608  67.899  1.00  0.00     0.002 C 
BRANCH  25  26
HETATM   26  C20 UNL     1       5.318  65.997  66.653  1.00  0.00     0.019 C 
BRANCH  26  27
HETATM   27  C21 UNL     1       4.571  66.423  65.456  1.00  0.00     0.114 C 
BRANCH  27  28
HETATM   28  N3  UNL     1       3.707  67.543  65.541  1.00  0.00    -0.413 N 
ATOM     29  H3  UNL     1       2.949  67.588  66.221  1.00  0.00     0.153 HD
BRANCH  28  30
HETATM   30  C22 UNL     1       3.962  68.622  64.606  1.00  0.00     0.111 C 
HETATM   31  C23 UNL     1       5.395  68.899  64.327  1.00  0.00     0.030 C 
HETATM   32  C24 UNL     1       5.892  68.574  62.961  1.00  0.00     0.008 C 
HETATM   33  C25 UNL     1       4.970  68.896  61.836  1.00  0.00     0.058 C 
HETATM   34  C26 UNL     1       3.544  68.699  62.154  1.00  0.00     0.020 A 
HETATM   35  N4  UNL     1       2.705  68.662  61.073  1.00  0.00    -0.327 N 
HETATM   36  C30 UNL     1       3.091  68.579  63.426  1.00  0.00    -0.013 A 
HETATM   37  C27 UNL     1       1.397  68.504  61.233  1.00  0.00     0.245 A 
ATOM     38  H4  UNL     1       3.089  68.757  60.133  1.00  0.00     0.169 HD
HETATM   39  O2  UNL     1       0.624  68.471  60.216  1.00  0.00    -0.268 OA
HETATM   40  C28 UNL     1       0.874  68.377  62.498  1.00  0.00     0.075 A 
HETATM   41  C29 UNL     1       1.729  68.415  63.605  1.00  0.00     0.017 A 
ENDBRANCH  28  30
ENDBRANCH  27  28
ENDBRANCH  26  27
ENDBRANCH  25  26
ENDBRANCH  24  25
ENDBRANCH  23  24
ENDBRANCH  22  23
ENDBRANCH   1  22
TORSDOF 15
ENDMDL
