MODEL 2
REMARK VINA RESULT: -11.233904347      3.239      6.674
REMARK  15 active torsions:
REMARK  status: ('A' for Active; 'I' for Inactive)
REMARK    1  A    between atoms: C9_12  and  N2_13 
REMARK    2  A    between atoms: N2_13  and  C10_16 
REMARK    3  A    between atoms: C10_16  and  C11_17 
REMARK    4  A    between atoms: C11_17  and  C12_18 
REMARK    5  A    between atoms: C12_18  and  C13_19 
REMARK    6  A    between atoms: C13_19  and  C14_20 
REMARK    7  A    between atoms: C14_20  and  C15_21 
REMARK    8  A    between atoms: C15_21  and  C16_22 
REMARK    9  A    between atoms: C16_22  and  C17_23 
REMARK   10  A    between atoms: C17_23  and  C18_24 
REMARK   11  A    between atoms: C18_24  and  C19_25 
REMARK   12  A    between atoms: C19_25  and  C20_26 
REMARK   13  A    between atoms: C20_26  and  C21_27 
REMARK   14  A    between atoms: C21_27  and  N3_28 
REMARK   15  A    between atoms: N3_28  and  C22_30 
ROOT
HETATM    1  C15 UNL     1       0.205  67.719  67.440  1.00  0.00     0.000 C 
ENDROOT
BRANCH   1   2
HETATM    2  C14 UNL     1       1.026  68.647  68.213  1.00  0.00     0.000 C 
BRANCH   2   3
HETATM    3  C13 UNL     1       2.260  68.206  68.864  1.00  0.00     0.000 C 
BRANCH   3   4
HETATM    4  C12 UNL     1       2.207  66.958  69.651  1.00  0.00     0.002 C 
BRANCH   4   5
HETATM    5  C11 UNL     1       3.581  66.268  69.433  1.00  0.00     0.027 C 
BRANCH   5   6
HETATM    6  C10 UNL     1       3.543  64.949  70.136  1.00  0.00     0.233 C 
BRANCH   6   7
HETATM    7  N2  UNL     1       2.537  64.033  69.681  1.00  0.00    -0.067 N 
ATOM      8  H22 UNL     1       2.858  63.511  68.865  1.00  0.00     0.277 HD
ATOM      9  H21 UNL     1       1.753  64.531  69.257  1.00  0.00     0.277 HD
BRANCH   7  10
HETATM   10  C9  UNL     1       2.090  63.153  70.710  1.00  0.00     0.220 C 
HETATM   11  C4  UNL     1       2.630  61.771  70.605  1.00  0.00    -0.005 A 
HETATM   12  C3  UNL     1       3.728  61.460  69.844  1.00  0.00     0.017 A 
HETATM   13  C5  UNL     1       1.974  60.798  71.310  1.00  0.00     0.020 A 
HETATM   14  C2  UNL     1       4.159  60.147  69.806  1.00  0.00     0.075 A 
HETATM   15  C1  UNL     1       3.490  59.191  70.519  1.00  0.00     0.245 A 
HETATM   16  O1  UNL     1       3.894  57.979  70.477  1.00  0.00    -0.268 OA
HETATM   17  N1  UNL     1       2.417  59.532  71.251  1.00  0.00    -0.327 N 
ATOM     18  H1  UNL     1       1.926  58.810  71.778  1.00  0.00     0.169 HD
HETATM   19  C6  UNL     1       0.782  61.063  72.152  1.00  0.00     0.058 C 
HETATM   20  C7  UNL     1      -0.006  62.255  71.742  1.00  0.00     0.008 C 
HETATM   21  C8  UNL     1       0.585  63.013  70.591  1.00  0.00     0.038 C 
ENDBRANCH   7  10
ENDBRANCH   6   7
ENDBRANCH   5   6
ENDBRANCH   4   5
ENDBRANCH   3   4
ENDBRANCH   2   3
ENDBRANCH   1   2
BRANCH   1  22
HETATM   22  C16 UNL     1       0.648  67.109  66.180  1.00  0.00     0.000 C 
BRANCH  22  23
HETATM   23  C17 UNL     1       0.865  68.246  65.158  1.00  0.00     0.000 C 
BRANCH  23  24
HETATM   24  C18 UNL     1       1.134  67.699  63.759  1.00  0.00     0.000 C 
BRANCH  24  25
HETATM   25  C19 UNL     1       1.428  68.801  62.812  1.00  0.00     0.002 C 
BRANCH  25  26
HETATM   26  C20 UNL     1       2.053  68.459  61.519  1.00  0.00     0.019 C 
BRANCH  26  27
HETATM   27  C21 UNL     1       3.514  68.344  61.372  1.00  0.00     0.114 C 
BRANCH  27  28
HETATM   28  N3  UNL     1       4.157  67.140  61.753  1.00  0.00    -0.413 N 
ATOM     29  H3  UNL     1       4.082  66.290  61.194  1.00  0.00     0.153 HD
BRANCH  28  30
HETATM   30  C22 UNL     1       4.928  67.184  62.980  1.00  0.00     0.111 C 
HETATM   31  C23 UNL     1       5.189  68.544  63.521  1.00  0.00     0.030 C 
HETATM   32  C24 UNL     1       4.506  68.906  64.794  1.00  0.00     0.008 C 
HETATM   33  C25 UNL     1       4.433  67.834  65.826  1.00  0.00     0.058 C 
HETATM   34  C26 UNL     1       4.260  66.480  65.272  1.00  0.00     0.020 A 
HETATM   35  N4  UNL     1       3.862  65.527  66.172  1.00  0.00    -0.327 N 
HETATM   36  C30 UNL     1       4.493  66.190  63.968  1.00  0.00    -0.013 A 
HETATM   37  C27 UNL     1       3.687  64.267  65.795  1.00  0.00     0.245 A 
ATOM     38  H4  UNL     1       3.699  65.790  67.144  1.00  0.00     0.169 HD
HETATM   39  O2  UNL     1       3.315  63.388  66.645  1.00  0.00    -0.268 OA
HETATM   40  C28 UNL     1       3.908  63.908  64.487  1.00  0.00     0.075 A 
HETATM   41  C29 UNL     1       4.315  64.879  63.564  1.00  0.00     0.017 A 
ENDBRANCH  28  30
ENDBRANCH  27  28
ENDBRANCH  26  27
ENDBRANCH  25  26
ENDBRANCH  24  25
ENDBRANCH  23  24
ENDBRANCH  22  23
ENDBRANCH   1  22
TORSDOF 15
ENDMDL
