MODEL 4
REMARK VINA RESULT: -11.092855219      2.923      6.321
REMARK  15 active torsions:
REMARK  status: ('A' for Active; 'I' for Inactive)
REMARK    1  A    between atoms: C9_12  and  N2_13 
REMARK    2  A    between atoms: N2_13  and  C10_16 
REMARK    3  A    between atoms: C10_16  and  C11_17 
REMARK    4  A    between atoms: C11_17  and  C12_18 
REMARK    5  A    between atoms: C12_18  and  C13_19 
REMARK    6  A    between atoms: C13_19  and  C14_20 
REMARK    7  A    between atoms: C14_20  and  C15_21 
REMARK    8  A    between atoms: C15_21  and  C16_22 
REMARK    9  A    between atoms: C16_22  and  C17_23 
REMARK   10  A    between atoms: C17_23  and  C18_24 
REMARK   11  A    between atoms: C18_24  and  C19_25 
REMARK   12  A    between atoms: C19_25  and  C20_26 
REMARK   13  A    between atoms: C20_26  and  C21_27 
REMARK   14  A    between atoms: C21_27  and  N3_28 
REMARK   15  A    between atoms: N3_28  and  C22_30 
ROOT
HETATM    1  C15 UNL     1       0.535  67.755  67.609  1.00  0.00     0.000 C 
ENDROOT
BRANCH   1   2
HETATM    2  C14 UNL     1       1.572  68.561  68.245  1.00  0.00     0.000 C 
BRANCH   2   3
HETATM    3  C13 UNL     1       2.594  67.949  69.095  1.00  0.00     0.000 C 
BRANCH   3   4
HETATM    4  C12 UNL     1       2.406  66.535  69.475  1.00  0.00     0.002 C 
BRANCH   4   5
HETATM    5  C11 UNL     1       3.833  65.976  69.725  1.00  0.00     0.027 C 
BRANCH   5   6
HETATM    6  C10 UNL     1       3.695  64.543  70.128  1.00  0.00     0.233 C 
BRANCH   6   7
HETATM    7  N2  UNL     1       2.556  63.855  69.590  1.00  0.00    -0.067 N 
ATOM      8  H22 UNL     1       2.465  64.025  68.588  1.00  0.00     0.277 HD
ATOM      9  H21 UNL     1       1.686  64.282  69.908  1.00  0.00     0.277 HD
BRANCH   7  10
HETATM   10  C9  UNL     1       2.575  62.458  69.873  1.00  0.00     0.220 C 
HETATM   11  C4  UNL     1       1.519  62.016  70.823  1.00  0.00    -0.005 A 
HETATM   12  C3  UNL     1       0.411  62.773  71.105  1.00  0.00     0.017 A 
HETATM   13  C5  UNL     1       1.700  60.797  71.421  1.00  0.00     0.020 A 
HETATM   14  C2  UNL     1      -0.518  62.281  72.003  1.00  0.00     0.075 A 
HETATM   15  C1  UNL     1      -0.319  61.062  72.588  1.00  0.00     0.245 A 
HETATM   16  O1  UNL     1      -1.182  60.615  73.417  1.00  0.00    -0.268 OA
HETATM   17  N1  UNL     1       0.778  60.348  72.289  1.00  0.00    -0.327 N 
ATOM     18  H1  UNL     1       0.917  59.441  72.732  1.00  0.00     0.169 HD
HETATM   19  C6  UNL     1       2.872  59.926  71.162  1.00  0.00     0.058 C 
HETATM   20  C7  UNL     1       4.090  60.653  70.718  1.00  0.00     0.008 C 
HETATM   21  C8  UNL     1       3.893  62.130  70.547  1.00  0.00     0.038 C 
ENDBRANCH   7  10
ENDBRANCH   6   7
ENDBRANCH   5   6
ENDBRANCH   4   5
ENDBRANCH   3   4
ENDBRANCH   2   3
ENDBRANCH   1   2
BRANCH   1  22
HETATM   22  C16 UNL     1       0.697  67.123  66.293  1.00  0.00     0.000 C 
BRANCH  22  23
HETATM   23  C17 UNL     1       0.771  68.248  65.238  1.00  0.00     0.000 C 
BRANCH  23  24
HETATM   24  C18 UNL     1       1.120  67.699  63.858  1.00  0.00     0.000 C 
BRANCH  24  25
HETATM   25  C19 UNL     1       1.521  68.796  62.943  1.00  0.00     0.002 C 
BRANCH  25  26
HETATM   26  C20 UNL     1       2.045  68.435  61.612  1.00  0.00     0.019 C 
BRANCH  26  27
HETATM   27  C21 UNL     1       3.492  68.364  61.343  1.00  0.00     0.114 C 
BRANCH  27  28
HETATM   28  N3  UNL     1       4.204  67.189  61.687  1.00  0.00    -0.413 N 
ATOM     29  H3  UNL     1       4.184  66.355  61.100  1.00  0.00     0.153 HD
BRANCH  28  30
HETATM   30  C22 UNL     1       4.964  67.237  62.922  1.00  0.00     0.111 C 
HETATM   31  C23 UNL     1       5.216  68.598  63.463  1.00  0.00     0.030 C 
HETATM   32  C24 UNL     1       4.520  68.960  64.730  1.00  0.00     0.008 C 
HETATM   33  C25 UNL     1       4.442  67.889  65.762  1.00  0.00     0.058 C 
HETATM   34  C26 UNL     1       4.279  66.533  65.208  1.00  0.00     0.020 A 
HETATM   35  N4  UNL     1       3.876  65.581  66.106  1.00  0.00    -0.327 N 
HETATM   36  C30 UNL     1       4.525  66.242  63.907  1.00  0.00    -0.013 A 
HETATM   37  C27 UNL     1       3.709  64.320  65.729  1.00  0.00     0.245 A 
ATOM     38  H4  UNL     1       3.703  65.844  67.077  1.00  0.00     0.169 HD
HETATM   39  O2  UNL     1       3.333  63.440  66.577  1.00  0.00    -0.268 OA
HETATM   40  C28 UNL     1       3.942  63.960  64.424  1.00  0.00     0.075 A 
HETATM   41  C29 UNL     1       4.354  64.930  63.504  1.00  0.00     0.017 A 
ENDBRANCH  28  30
ENDBRANCH  27  28
ENDBRANCH  26  27
ENDBRANCH  25  26
ENDBRANCH  24  25
ENDBRANCH  23  24
ENDBRANCH  22  23
ENDBRANCH   1  22
TORSDOF 15
ENDMDL
