MODEL 14
REMARK VINA RESULT: -5.223062744      2.868      4.611
REMARK  3 active torsions:
REMARK  status: ('A' for Active; 'I' for Inactive)
REMARK    1  A    between atoms: C1_2  and  C2_4 
REMARK    2  A    between atoms: C2_4  and  N1_5 
REMARK       I    between atoms: N1_5  and  C3_7 
REMARK    3  A    between atoms: C3_7  and  C4_9 
ROOT
HETATM    1  N1  UNL     1      19.063  25.571  30.552  1.00  0.00    -0.342 N 
ATOM      2  H1  UNL     1      18.305  25.172  31.106  1.00  0.00     0.163 HD
HETATM    3  C3  UNL     1      18.895  25.666  29.145  1.00  0.00     0.318 C 
HETATM    4  O3  UNL     1      19.861  26.166  28.506  1.00  0.00    -0.261 OA
ENDROOT
BRANCH   1   5
HETATM    5  C2  UNL     1      20.260  26.014  31.235  1.00  0.00     0.236 C 
BRANCH   5   6
HETATM    6  C1  UNL     1      20.353  25.446  32.587  1.00  0.00     0.191 C 
HETATM    7  O1  UNL     1      20.695  24.251  32.733  1.00  0.00    -0.647 OA
HETATM    8  O2  UNL     1      20.062  26.225  33.687  1.00  0.00    -0.647 OA
ENDBRANCH   5   6
ENDBRANCH   1   5
BRANCH   3   9
HETATM    9  C4  UNL     1      17.682  25.216  28.469  1.00  0.00     0.270 C 
HETATM   10  O4  UNL     1      17.678  24.302  27.622  1.00  0.00    -0.640 OA
HETATM   11  O5  UNL     1      16.486  25.835  28.787  1.00  0.00    -0.640 OA
ENDBRANCH   3   9
TORSDOF 3
ENDMDL
