MODEL 1
REMARK VINA RESULT: -6.042971289      0.000      0.000
REMARK  3 active torsions:
REMARK  status: ('A' for Active; 'I' for Inactive)
REMARK    1  A    between atoms: C1_2  and  C2_4 
REMARK    2  A    between atoms: C2_4  and  N1_5 
REMARK       I    between atoms: N1_5  and  C3_7 
REMARK    3  A    between atoms: C3_7  and  C4_9 
ROOT
HETATM    1  N1  UNL     1      19.908  24.870  28.404  1.00  0.00    -0.342 N 
ATOM      2  H1  UNL     1      19.867  23.900  28.093  1.00  0.00     0.163 HD
HETATM    3  C3  UNL     1      21.047  25.645  28.058  1.00  0.00     0.318 C 
HETATM    4  O3  UNL     1      21.047  26.838  28.468  1.00  0.00    -0.261 OA
ENDROOT
BRANCH   1   5
HETATM    5  C2  UNL     1      18.802  25.395  29.178  1.00  0.00     0.236 C 
BRANCH   5   6
HETATM    6  C1  UNL     1      17.519  25.204  28.486  1.00  0.00     0.191 C 
HETATM    7  O1  UNL     1      17.448  24.403  27.527  1.00  0.00    -0.647 OA
HETATM    8  O2  UNL     1      16.403  25.904  28.891  1.00  0.00    -0.647 OA
ENDBRANCH   5   6
ENDBRANCH   1   5
BRANCH   3   9
HETATM    9  C4  UNL     1      22.154  25.103  27.276  1.00  0.00     0.270 C 
HETATM   10  O4  UNL     1      23.094  25.806  26.858  1.00  0.00    -0.640 OA
HETATM   11  O5  UNL     1      22.154  23.750  26.990  1.00  0.00    -0.640 OA
ENDBRANCH   3   9
TORSDOF 3
ENDMDL
