MODEL 5
REMARK VINA RESULT: -8.203994378      1.652      3.680
REMARK  6 active torsions:
REMARK  status: ('A' for Active; 'I' for Inactive)
REMARK    1  A    between atoms: C2_2  and  N1_4 
REMARK    2  A    between atoms: C4_6  and  C5_7 
REMARK    3  A    between atoms: C5_7  and  O1_8 
REMARK    4  A    between atoms: C5_7  and  C6_10 
REMARK    5  A    between atoms: C6_10  and  O2_11 
REMARK    6  A    between atoms: O2_11  and  C7_12 
ROOT
HETATM    1  O2  UNL     1       4.133   8.740  22.242  1.00  0.00    -0.347 OA
ENDROOT
BRANCH   1   2
HETATM    2  C6  UNL     1       3.983   8.139  20.995  1.00  0.00     0.213 C 
BRANCH   2   3
HETATM    3  C5  UNL     1       2.477   7.954  20.763  1.00  0.00     0.180 C 
BRANCH   3   4
HETATM    4  C4  UNL     1       1.878   9.314  20.846  1.00  0.00     0.089 C 
HETATM    5  N1  UNL     1       2.502  10.342  20.439  1.00  0.00    -0.396 N 
ATOM      6  H1  UNL     1       3.436  10.258  20.041  1.00  0.00     0.159 HD
BRANCH   5   7
HETATM    7  C2  UNL     1       1.864  11.630  20.549  1.00  0.00     0.072 C 
HETATM    8  C1  UNL     1       1.858  12.016  22.019  1.00  0.00     0.031 C 
HETATM    9  C3  UNL     1       2.709  12.662  19.789  1.00  0.00     0.031 C 
ENDBRANCH   5   7
ENDBRANCH   3   4
BRANCH   3  10
HETATM   10  O1  UNL     1       2.320   7.531  19.429  1.00  0.00    -0.388 OA
ATOM     11  H1  UNL     1       3.168   7.632  19.013  1.00  0.00     0.210 HD
ENDBRANCH   3  10
ENDBRANCH   2   3
ENDBRANCH   1   2
BRANCH   1  12
HETATM   12  C7  UNL     1       4.466   8.114  23.414  1.00  0.00     0.080 A 
HETATM   13  C8  UNL     1       5.161   6.936  23.485  1.00  0.00     0.037 A 
HETATM   14  C9  UNL     1       5.465   6.357  24.710  1.00  0.00     0.004 A 
HETATM   15  C10 UNL     1       5.065   6.970  25.885  1.00  0.00     0.012 A 
HETATM   16  C11 UNL     1       4.361   8.162  25.837  1.00  0.00    -0.023 A 
HETATM   17  C12 UNL     1       3.943   8.808  26.968  1.00  0.00     0.012 A 
HETATM   18  C16 UNL     1       4.077   8.708  24.602  1.00  0.00     0.007 A 
HETATM   19  C13 UNL     1       3.237  10.004  26.917  1.00  0.00     0.001 A 
HETATM   20  C14 UNL     1       2.950  10.554  25.692  1.00  0.00     0.001 A 
HETATM   21  C15 UNL     1       3.374   9.898  24.563  1.00  0.00     0.015 A 
ENDBRANCH   1  12
TORSDOF 6
ENDMDL
