MODEL 1
REMARK VINA RESULT: -8.600949685      0.000      0.000
REMARK  6 active torsions:
REMARK  status: ('A' for Active; 'I' for Inactive)
REMARK    1  A    between atoms: C2_2  and  N1_4 
REMARK    2  A    between atoms: C4_6  and  C5_7 
REMARK    3  A    between atoms: C5_7  and  O1_8 
REMARK    4  A    between atoms: C5_7  and  C6_10 
REMARK    5  A    between atoms: C6_10  and  O2_11 
REMARK    6  A    between atoms: O2_11  and  C7_12 
ROOT
HETATM    1  O2  UNL     1       2.704  10.481  22.801  1.00  0.00    -0.347 OA
ENDROOT
BRANCH   1   2
HETATM    2  C6  UNL     1       1.833  11.482  22.382  1.00  0.00     0.213 C 
BRANCH   2   3
HETATM    3  C5  UNL     1       2.063  11.679  20.878  1.00  0.00     0.180 C 
BRANCH   3   4
HETATM    4  C4  UNL     1       1.971  10.325  20.268  1.00  0.00     0.089 C 
HETATM    5  N1  UNL     1       0.956   9.583  20.444  1.00  0.00    -0.396 N 
ATOM      6  H1  UNL     1       0.173   9.902  21.013  1.00  0.00     0.159 HD
BRANCH   5   7
HETATM    7  C2  UNL     1       0.930   8.281  19.824  1.00  0.00     0.072 C 
HETATM    8  C1  UNL     1       2.136   7.507  20.332  1.00  0.00     0.031 C 
HETATM    9  C3  UNL     1      -0.336   7.546  20.282  1.00  0.00     0.031 C 
ENDBRANCH   5   7
ENDBRANCH   3   4
BRANCH   3  10
HETATM   10  O1  UNL     1       0.964  12.411  20.390  1.00  0.00    -0.388 OA
ATOM     11  H1  UNL     1       0.864  13.161  20.966  1.00  0.00     0.210 HD
ENDBRANCH   3  10
ENDBRANCH   2   3
ENDBRANCH   1   2
BRANCH   1  12
HETATM   12  C7  UNL     1       3.015  10.158  24.096  1.00  0.00     0.080 A 
HETATM   13  C8  UNL     1       2.638  10.899  25.184  1.00  0.00     0.037 A 
HETATM   14  C9  UNL     1       2.988  10.512  26.470  1.00  0.00     0.004 A 
HETATM   15  C10 UNL     1       3.730   9.360  26.670  1.00  0.00     0.012 A 
HETATM   16  C11 UNL     1       4.122   8.595  25.585  1.00  0.00    -0.023 A 
HETATM   17  C12 UNL     1       4.856   7.449  25.727  1.00  0.00     0.012 A 
HETATM   18  C16 UNL     1       3.756   9.011  24.321  1.00  0.00     0.007 A 
HETATM   19  C13 UNL     1       5.248   6.683  24.636  1.00  0.00     0.001 A 
HETATM   20  C14 UNL     1       4.888   7.090  23.374  1.00  0.00     0.001 A 
HETATM   21  C15 UNL     1       4.152   8.241  23.242  1.00  0.00     0.015 A 
ENDBRANCH   1  12
TORSDOF 6
ENDMDL
