MODEL 15
REMARK VINA RESULT: -7.991912811      3.938      6.533
REMARK  6 active torsions:
REMARK  status: ('A' for Active; 'I' for Inactive)
REMARK    1  A    between atoms: C2_2  and  N1_4 
REMARK    2  A    between atoms: C4_6  and  C5_7 
REMARK    3  A    between atoms: C5_7  and  O1_8 
REMARK    4  A    between atoms: C5_7  and  C6_10 
REMARK    5  A    between atoms: C6_10  and  O2_11 
REMARK    6  A    between atoms: O2_11  and  C7_12 
ROOT
HETATM    1  O2  UNL     1       4.710   6.805  24.605  1.00  0.00    -0.347 OA
ENDROOT
BRANCH   1   2
HETATM    2  C6  UNL     1       5.703   6.529  23.670  1.00  0.00     0.213 C 
BRANCH   2   3
HETATM    3  C5  UNL     1       7.023   6.395  24.441  1.00  0.00     0.180 C 
BRANCH   3   4
HETATM    4  C4  UNL     1       6.875   5.192  25.305  1.00  0.00     0.089 C 
HETATM    5  N1  UNL     1       7.072   4.021  24.855  1.00  0.00    -0.396 N 
ATOM      6  H1  UNL     1       7.339   3.878  23.882  1.00  0.00     0.159 HD
BRANCH   5   7
HETATM    7  C2  UNL     1       6.910   2.899  25.745  1.00  0.00     0.072 C 
HETATM    8  C1  UNL     1       6.591   1.680  24.895  1.00  0.00     0.031 C 
HETATM    9  C3  UNL     1       8.244   2.645  26.460  1.00  0.00     0.031 C 
ENDBRANCH   5   7
ENDBRANCH   3   4
BRANCH   3  10
HETATM   10  O1  UNL     1       8.018   6.085  23.495  1.00  0.00    -0.388 OA
ATOM     11  H1  UNL     1       8.285   6.910  23.105  1.00  0.00     0.210 HD
ENDBRANCH   3  10
ENDBRANCH   2   3
ENDBRANCH   1   2
BRANCH   1  12
HETATM   12  C7  UNL     1       4.166   8.032  24.879  1.00  0.00     0.080 A 
HETATM   13  C8  UNL     1       3.804   8.943  23.922  1.00  0.00     0.037 A 
HETATM   14  C9  UNL     1       3.257  10.170  24.272  1.00  0.00     0.004 A 
HETATM   15  C10 UNL     1       3.069  10.490  25.606  1.00  0.00     0.012 A 
HETATM   16  C11 UNL     1       3.428   9.585  26.591  1.00  0.00    -0.023 A 
HETATM   17  C12 UNL     1       3.263   9.852  27.922  1.00  0.00     0.012 A 
HETATM   18  C16 UNL     1       3.969   8.375  26.205  1.00  0.00     0.007 A 
HETATM   19  C13 UNL     1       3.624   8.941  28.908  1.00  0.00     0.001 A 
HETATM   20  C14 UNL     1       4.164   7.735  28.533  1.00  0.00     0.001 A 
HETATM   21  C15 UNL     1       4.324   7.477  27.195  1.00  0.00     0.015 A 
ENDBRANCH   1  12
TORSDOF 6
ENDMDL
