MODEL 6
REMARK VINA RESULT: -8.201635468      1.080      1.191
REMARK  6 active torsions:
REMARK  status: ('A' for Active; 'I' for Inactive)
REMARK    1  A    between atoms: C2_2  and  N1_4 
REMARK    2  A    between atoms: C4_6  and  C5_7 
REMARK    3  A    between atoms: C5_7  and  O1_8 
REMARK    4  A    between atoms: C5_7  and  C6_10 
REMARK    5  A    between atoms: C6_10  and  O2_11 
REMARK    6  A    between atoms: O2_11  and  C7_12 
ROOT
HETATM    1  O2  UNL     1       3.009  10.219  23.575  1.00  0.00    -0.347 OA
ENDROOT
BRANCH   1   2
HETATM    2  C6  UNL     1       3.338  11.447  23.008  1.00  0.00     0.213 C 
BRANCH   2   3
HETATM    3  C5  UNL     1       2.210  11.810  22.033  1.00  0.00     0.180 C 
BRANCH   3   4
HETATM    4  C4  UNL     1       1.837  10.543  21.346  1.00  0.00     0.089 C 
HETATM    5  N1  UNL     1       2.682   9.879  20.669  1.00  0.00    -0.396 N 
ATOM      6  H1  UNL     1       3.645  10.203  20.580  1.00  0.00     0.159 HD
BRANCH   5   7
HETATM    7  C2  UNL     1       2.256   8.661  20.028  1.00  0.00     0.072 C 
HETATM    8  C1  UNL     1       2.983   7.509  20.702  1.00  0.00     0.031 C 
HETATM    9  C3  UNL     1       0.752   8.481  20.268  1.00  0.00     0.031 C 
ENDBRANCH   5   7
ENDBRANCH   3   4
BRANCH   3  10
HETATM   10  O1  UNL     1       1.099  12.180  22.814  1.00  0.00    -0.388 OA
ATOM     11  H1  UNL     1       0.758  11.378  23.193  1.00  0.00     0.210 HD
ENDBRANCH   3  10
ENDBRANCH   2   3
ENDBRANCH   1   2
BRANCH   1  12
HETATM   12  C7  UNL     1       3.304   9.802  24.846  1.00  0.00     0.080 A 
HETATM   13  C8  UNL     1       2.941  10.477  25.980  1.00  0.00     0.037 A 
HETATM   14  C9  UNL     1       3.275   9.995  27.239  1.00  0.00     0.004 A 
HETATM   15  C10 UNL     1       3.987   8.814  27.363  1.00  0.00     0.012 A 
HETATM   16  C11 UNL     1       4.365   8.114  26.229  1.00  0.00    -0.023 A 
HETATM   17  C12 UNL     1       5.069   6.944  26.296  1.00  0.00     0.012 A 
HETATM   18  C16 UNL     1       4.016   8.624  24.995  1.00  0.00     0.007 A 
HETATM   19  C13 UNL     1       5.448   6.243  25.157  1.00  0.00     0.001 A 
HETATM   20  C14 UNL     1       5.105   6.744  23.925  1.00  0.00     0.001 A 
HETATM   21  C15 UNL     1       4.398   7.919  23.868  1.00  0.00     0.015 A 
ENDBRANCH   1  12
TORSDOF 6
ENDMDL
