MODEL 19
REMARK VINA RESULT: -3.927283581      4.813      5.824
REMARK  1 active torsions:
REMARK  status: ('A' for Active; 'I' for Inactive)
REMARK    1  A    between atoms: C1_2  and  C2_6 
ROOT
HETATM    1  C2  UNL     1      46.087  33.192  37.842  1.00  0.00     0.004 A 
HETATM    2  C3  UNL     1      45.376  33.771  36.830  1.00  0.00     0.015 A 
HETATM    3  C4  UNL     1      44.103  33.328  36.445  1.00  0.00     0.001 A 
HETATM    4  C5  UNL     1      43.568  32.274  37.119  1.00  0.00     0.000 A 
HETATM    5  C6  UNL     1      44.226  31.639  38.152  1.00  0.00     0.001 A 
HETATM    6  C7  UNL     1      45.473  32.109  38.494  1.00  0.00     0.015 A 
ENDROOT
BRANCH   1   7
HETATM    7  C1  UNL     1      47.393  33.647  38.238  1.00  0.00     0.120 C 
HETATM    8  N1  UNL     1      47.992  34.711  37.506  1.00  0.00    -0.082 NA
HETATM    9  N2  UNL     1      48.016  33.135  39.206  1.00  0.00    -0.387 N 
ATOM     10  H22 UNL     1      48.943  33.458  39.486  1.00  0.00     0.157 HD
ATOM     11  H21 UNL     1      47.587  32.372  39.730  1.00  0.00     0.157 HD
ENDBRANCH   1   7
TORSDOF 1
ENDMDL
