MODEL 2
REMARK VINA RESULT: -5.532866921      0.025      1.586
REMARK  1 active torsions:
REMARK  status: ('A' for Active; 'I' for Inactive)
REMARK    1  A    between atoms: C1_2  and  C2_6 
ROOT
HETATM    1  C2  UNL     1      50.128  36.592  39.512  1.00  0.00     0.004 A 
HETATM    2  C3  UNL     1      50.069  35.716  40.558  1.00  0.00     0.015 A 
HETATM    3  C4  UNL     1      49.488  34.445  40.454  1.00  0.00     0.001 A 
HETATM    4  C5  UNL     1      48.965  34.085  39.250  1.00  0.00     0.000 A 
HETATM    5  C6  UNL     1      48.987  34.915  38.149  1.00  0.00     0.001 A 
HETATM    6  C7  UNL     1      49.568  36.153  38.300  1.00  0.00     0.015 A 
ENDROOT
BRANCH   1   7
HETATM    7  C1  UNL     1      50.725  37.897  39.619  1.00  0.00     0.120 C 
HETATM    8  N1  UNL     1      50.726  38.540  40.889  1.00  0.00    -0.082 NA
HETATM    9  N2  UNL     1      51.243  38.479  38.630  1.00  0.00    -0.387 N 
ATOM     10  H22 UNL     1      51.666  39.405  38.706  1.00  0.00     0.157 HD
ATOM     11  H21 UNL     1      51.242  38.018  37.720  1.00  0.00     0.157 HD
ENDBRANCH   1   7
TORSDOF 1
ENDMDL
