MODEL 3
REMARK VINA RESULT: -5.226904714      0.599      1.929
REMARK  1 active torsions:
REMARK  status: ('A' for Active; 'I' for Inactive)
REMARK    1  A    between atoms: C1_2  and  C2_6 
ROOT
HETATM    1  C2  UNL     1      50.150  36.838  39.647  1.00  0.00     0.004 A 
HETATM    2  C3  UNL     1      50.143  35.956  40.690  1.00  0.00     0.015 A 
HETATM    3  C4  UNL     1      49.807  34.604  40.541  1.00  0.00     0.001 A 
HETATM    4  C5  UNL     1      49.475  34.168  39.295  1.00  0.00     0.000 A 
HETATM    5  C6  UNL     1      49.459  34.998  38.195  1.00  0.00     0.001 A 
HETATM    6  C7  UNL     1      49.796  36.318  38.390  1.00  0.00     0.015 A 
ENDROOT
BRANCH   1   7
HETATM    7  C1  UNL     1      50.495  38.226  39.801  1.00  0.00     0.120 C 
HETATM    8  N1  UNL     1      50.049  39.150  38.814  1.00  0.00    -0.082 NA
HETATM    9  N2  UNL     1      51.174  38.643  40.777  1.00  0.00    -0.387 N 
ATOM     10  H22 UNL     1      51.419  39.628  40.886  1.00  0.00     0.157 HD
ATOM     11  H21 UNL     1      51.493  37.981  41.484  1.00  0.00     0.157 HD
ENDBRANCH   1   7
TORSDOF 1
ENDMDL
