MODEL 14
REMARK VINA RESULT: -4.074881517      4.299      5.485
REMARK  1 active torsions:
REMARK  status: ('A' for Active; 'I' for Inactive)
REMARK    1  A    between atoms: C1_2  and  C2_6 
ROOT
HETATM    1  C2  UNL     1      46.912  33.333  38.030  1.00  0.00     0.004 A 
HETATM    2  C3  UNL     1      45.756  32.621  38.179  1.00  0.00     0.015 A 
HETATM    3  C4  UNL     1      44.574  32.937  37.495  1.00  0.00     0.001 A 
HETATM    4  C5  UNL     1      44.598  34.004  36.650  1.00  0.00     0.000 A 
HETATM    5  C6  UNL     1      45.727  34.770  36.449  1.00  0.00     0.001 A 
HETATM    6  C7  UNL     1      46.863  34.421  37.142  1.00  0.00     0.015 A 
ENDROOT
BRANCH   1   7
HETATM    7  C1  UNL     1      48.125  33.007  38.731  1.00  0.00     0.120 C 
HETATM    8  N1  UNL     1      48.866  31.866  38.312  1.00  0.00    -0.082 NA
HETATM    9  N2  UNL     1      48.546  33.698  39.697  1.00  0.00    -0.387 N 
ATOM     10  H22 UNL     1      49.407  33.467  40.195  1.00  0.00     0.157 HD
ATOM     11  H21 UNL     1      48.015  34.516  39.998  1.00  0.00     0.157 HD
ENDBRANCH   1   7
TORSDOF 1
ENDMDL
