MODEL 15
REMARK VINA RESULT: -4.074267621      4.292      5.365
REMARK  1 active torsions:
REMARK  status: ('A' for Active; 'I' for Inactive)
REMARK    1  A    between atoms: C1_2  and  C2_6 
ROOT
HETATM    1  C2  UNL     1      46.934  33.377  38.021  1.00  0.00     0.004 A 
HETATM    2  C3  UNL     1      46.867  34.430  37.155  1.00  0.00     0.015 A 
HETATM    3  C4  UNL     1      45.698  34.771  36.460  1.00  0.00     0.001 A 
HETATM    4  C5  UNL     1      44.592  34.008  36.671  1.00  0.00     0.000 A 
HETATM    5  C6  UNL     1      44.583  32.929  37.530  1.00  0.00     0.001 A 
HETATM    6  C7  UNL     1      45.754  32.633  38.189  1.00  0.00     0.015 A 
ENDROOT
BRANCH   1   7
HETATM    7  C1  UNL     1      48.135  33.027  38.734  1.00  0.00     0.120 C 
HETATM    8  N1  UNL     1      48.859  31.875  38.318  1.00  0.00    -0.082 NA
HETATM    9  N2  UNL     1      48.558  33.708  39.706  1.00  0.00    -0.387 N 
ATOM     10  H22 UNL     1      49.409  33.460  40.211  1.00  0.00     0.157 HD
ATOM     11  H21 UNL     1      48.038  34.534  40.004  1.00  0.00     0.157 HD
ENDBRANCH   1   7
TORSDOF 1
ENDMDL
