MODEL 1
REMARK VINA RESULT: -5.552317791      0.000      0.000
REMARK  1 active torsions:
REMARK  status: ('A' for Active; 'I' for Inactive)
REMARK    1  A    between atoms: C1_2  and  C2_6 
ROOT
HETATM    1  C2  UNL     1      50.118  36.599  39.464  1.00  0.00     0.004 A 
HETATM    2  C3  UNL     1      49.575  36.153  38.293  1.00  0.00     0.015 A 
HETATM    3  C4  UNL     1      48.984  34.889  38.161  1.00  0.00     0.001 A 
HETATM    4  C5  UNL     1      48.961  34.083  39.258  1.00  0.00     0.000 A 
HETATM    5  C6  UNL     1      49.490  34.464  40.473  1.00  0.00     0.001 A 
HETATM    6  C7  UNL     1      50.059  35.714  40.554  1.00  0.00     0.015 A 
ENDROOT
BRANCH   1   7
HETATM    7  C1  UNL     1      50.723  37.898  39.600  1.00  0.00     0.120 C 
HETATM    8  N1  UNL     1      50.724  38.515  40.882  1.00  0.00    -0.082 NA
HETATM    9  N2  UNL     1      51.248  38.496  38.623  1.00  0.00    -0.387 N 
ATOM     10  H22 UNL     1      51.677  39.417  38.720  1.00  0.00     0.157 HD
ATOM     11  H21 UNL     1      51.247  38.054  37.704  1.00  0.00     0.157 HD
ENDBRANCH   1   7
TORSDOF 1
ENDMDL
