MODEL 6
REMARK VINA RESULT: -5.197547411      1.056      1.890
REMARK  1 active torsions:
REMARK  status: ('A' for Active; 'I' for Inactive)
REMARK    1  A    between atoms: C1_2  and  C2_6 
ROOT
HETATM    1  C2  UNL     1      50.151  36.552  40.161  1.00  0.00     0.004 A 
HETATM    2  C3  UNL     1      49.688  35.390  40.709  1.00  0.00     0.015 A 
HETATM    3  C4  UNL     1      49.487  34.223  39.959  1.00  0.00     0.001 A 
HETATM    4  C5  UNL     1      49.770  34.268  38.629  1.00  0.00     0.000 A 
HETATM    5  C6  UNL     1      50.240  35.405  38.006  1.00  0.00     0.001 A 
HETATM    6  C7  UNL     1      50.422  36.525  38.783  1.00  0.00     0.015 A 
ENDROOT
BRANCH   1   7
HETATM    7  C1  UNL     1      50.359  37.749  40.932  1.00  0.00     0.120 C 
HETATM    8  N1  UNL     1      49.738  37.851  42.208  1.00  0.00    -0.082 NA
HETATM    9  N2  UNL     1      51.069  38.701  40.511  1.00  0.00    -0.387 N 
ATOM     10  H22 UNL     1      51.215  39.551  41.057  1.00  0.00     0.157 HD
ATOM     11  H21 UNL     1      51.513  38.629  39.596  1.00  0.00     0.157 HD
ENDBRANCH   1   7
TORSDOF 1
ENDMDL
