MODEL 2
REMARK VINA RESULT: -6.950977468      1.243      4.418
REMARK  20 active torsions:
REMARK  status: ('A' for Active; 'I' for Inactive)
REMARK    1  A    between atoms: C2_2  and  C3_3 
REMARK    2  A    between atoms: C3_3  and  C4_4 
REMARK    3  A    between atoms: C4_4  and  O2_6 
REMARK    4  A    between atoms: O2_6  and  C5_7 
REMARK    5  A    between atoms: C5_7  and  C6_8 
REMARK    6  A    between atoms: C6_8  and  C7_9 
REMARK    7  A    between atoms: C6_8  and  O15_34 
REMARK    8  A    between atoms: C7_9  and  O3_10 
REMARK    9  A    between atoms: O3_10  and  P1_11 
REMARK   10  A    between atoms: P1_11  and  O6_14 
REMARK   11  A    between atoms: O6_14  and  C8_15 
REMARK   12  A    between atoms: C9_16  and  O7_17 
REMARK   13  A    between atoms: C10_19  and  O8_20 
REMARK   14  A    between atoms: C11_22  and  O9_23 
REMARK   15  A    between atoms: C12_25  and  O10_26 
REMARK   16  A    between atoms: O10_26  and  P2_27 
REMARK   17  A    between atoms: C13_31  and  O14_32 
REMARK   18  A    between atoms: O15_34  and  C14_35 
REMARK   19  A    between atoms: C14_35  and  C15_37 
REMARK   20  A    between atoms: C15_37  and  C16_38 
ROOT
HETATM    1  O6  UNL     1      14.718  17.242   7.065  1.00  0.00    -0.279 OA
ENDROOT
BRANCH   1   2
HETATM    2  P1  UNL     1      13.770  16.270   6.080  1.00  0.00     0.408 P 
HETATM    3  O4  UNL     1      13.585  15.202   7.147  1.00  0.00    -0.624 OA
HETATM    4  O5  UNL     1      14.575  15.132   5.117  1.00  0.00    -0.624 OA
BRANCH   2   5
HETATM    5  O3  UNL     1      12.230  16.569   5.825  1.00  0.00    -0.287 OA
BRANCH   5   6
HETATM    6  C7  UNL     1      11.239  16.113   6.591  1.00  0.00     0.216 C 
BRANCH   6   7
HETATM    7  C6  UNL     1      10.453  17.231   7.299  1.00  0.00     0.180 C 
BRANCH   7   8
HETATM    8  C5  UNL     1      10.097  16.716   8.652  1.00  0.00     0.213 C 
BRANCH   8   9
HETATM    9  O2  UNL     1      11.051  15.995   9.335  1.00  0.00    -0.319 OA
BRANCH   9  10
HETATM   10  C4  UNL     1      10.825  14.792   9.964  1.00  0.00     0.258 C 
HETATM   11  O1  UNL     1       9.785  14.729  10.654  1.00  0.00    -0.265 OA
BRANCH  10  12
HETATM   12  C3  UNL     1      11.764  13.630   9.835  1.00  0.00     0.111 C 
BRANCH  12  13
HETATM   13  C2  UNL     1      11.033  12.555   9.028  1.00  0.00     0.005 C 
HETATM   14  C1  UNL     1      11.773  12.223   7.765  1.00  0.00     0.005 C 
ENDBRANCH  12  13
ENDBRANCH  10  12
ENDBRANCH   9  10
ENDBRANCH   8   9
ENDBRANCH   7   8
BRANCH   7  15
HETATM   15  O15 UNL     1       9.380  17.564   6.487  1.00  0.00    -0.312 OA
BRANCH  15  16
HETATM   16  C14 UNL     1       9.312  18.818   5.893  1.00  0.00     0.259 C 
HETATM   17  O16 UNL     1       8.464  19.600   6.335  1.00  0.00    -0.265 OA
BRANCH  16  18
HETATM   18  C15 UNL     1      10.195  19.234   4.785  1.00  0.00     0.111 C 
BRANCH  18  19
HETATM   19  C16 UNL     1      11.190  20.246   5.291  1.00  0.00     0.005 C 
HETATM   20  C17 UNL     1      11.412  21.300   4.222  1.00  0.00     0.005 C 
ENDBRANCH  18  19
ENDBRANCH  16  18
ENDBRANCH  15  16
ENDBRANCH   7  15
ENDBRANCH   6   7
ENDBRANCH   5   6
ENDBRANCH   2   5
ENDBRANCH   1   2
BRANCH   1  21
HETATM   21  C8  UNL     1      14.047  17.785   8.121  1.00  0.00     0.197 C 
HETATM   22  C9  UNL     1      14.895  17.671   9.360  1.00  0.00     0.181 C 
HETATM   23  C10 UNL     1      15.716  18.913   9.603  1.00  0.00     0.180 C 
HETATM   24  C11 UNL     1      14.841  20.124   9.843  1.00  0.00     0.181 C 
HETATM   25  C12 UNL     1      13.479  19.935   9.201  1.00  0.00     0.198 C 
HETATM   26  C13 UNL     1      13.630  19.233   7.871  1.00  0.00     0.182 C 
BRANCH  22  27
HETATM   27  O7  UNL     1      14.065  17.474  10.440  1.00  0.00    -0.390 OA
ATOM     28  H7  UNL     1      13.559  16.684  10.290  1.00  0.00     0.210 HD
ENDBRANCH  22  27
BRANCH  23  29
HETATM   29  O8  UNL     1      16.619  19.113   8.585  1.00  0.00    -0.390 OA
ATOM     30  H8  UNL     1      17.162  19.873   8.756  1.00  0.00     0.210 HD
ENDBRANCH  23  29
BRANCH  24  31
HETATM   31  O9  UNL     1      14.680  20.358  11.197  1.00  0.00    -0.390 OA
ATOM     32  H9  UNL     1      13.760  20.439  11.421  1.00  0.00     0.210 HD
ENDBRANCH  24  31
BRANCH  25  33
HETATM   33  O10 UNL     1      12.935  21.166   8.975  1.00  0.00    -0.272 OA
BRANCH  33  34
HETATM   34  P2  UNL     1      11.423  21.431   9.539  1.00  0.00     0.422 P 
HETATM   35  O11 UNL     1      11.642  20.608  10.800  1.00  0.00    -0.617 OA
HETATM   36  O12 UNL     1      11.036  22.791  10.377  1.00  0.00    -0.617 OA
HETATM   37  O13 UNL     1      10.160  20.416   9.100  1.00  0.00    -0.617 OA
ENDBRANCH  33  34
ENDBRANCH  25  33
BRANCH  26  38
HETATM   38  O14 UNL     1      14.550  19.852   7.061  1.00  0.00    -0.390 OA
ATOM     39  H14 UNL     1      14.380  19.633   6.152  1.00  0.00     0.210 HD
ENDBRANCH  26  38
ENDBRANCH   1  21
TORSDOF 20
ENDMDL
