MODEL 3
REMARK VINA RESULT: -6.914399022      2.334      5.023
REMARK  20 active torsions:
REMARK  status: ('A' for Active; 'I' for Inactive)
REMARK    1  A    between atoms: C2_2  and  C3_3 
REMARK    2  A    between atoms: C3_3  and  C4_4 
REMARK    3  A    between atoms: C4_4  and  O2_6 
REMARK    4  A    between atoms: O2_6  and  C5_7 
REMARK    5  A    between atoms: C5_7  and  C6_8 
REMARK    6  A    between atoms: C6_8  and  C7_9 
REMARK    7  A    between atoms: C6_8  and  O15_34 
REMARK    8  A    between atoms: C7_9  and  O3_10 
REMARK    9  A    between atoms: O3_10  and  P1_11 
REMARK   10  A    between atoms: P1_11  and  O6_14 
REMARK   11  A    between atoms: O6_14  and  C8_15 
REMARK   12  A    between atoms: C9_16  and  O7_17 
REMARK   13  A    between atoms: C10_19  and  O8_20 
REMARK   14  A    between atoms: C11_22  and  O9_23 
REMARK   15  A    between atoms: C12_25  and  O10_26 
REMARK   16  A    between atoms: O10_26  and  P2_27 
REMARK   17  A    between atoms: C13_31  and  O14_32 
REMARK   18  A    between atoms: O15_34  and  C14_35 
REMARK   19  A    between atoms: C14_35  and  C15_37 
REMARK   20  A    between atoms: C15_37  and  C16_38 
ROOT
HETATM    1  O6  UNL     1      12.380  18.328   8.682  1.00  0.00    -0.279 OA
ENDROOT
BRANCH   1   2
HETATM    2  P1  UNL     1      13.596  17.359   9.312  1.00  0.00     0.408 P 
HETATM    3  O4  UNL     1      14.018  18.392  10.345  1.00  0.00    -0.624 OA
HETATM    4  O5  UNL     1      15.128  17.484   8.599  1.00  0.00    -0.624 OA
BRANCH   2   5
HETATM    5  O3  UNL     1      13.294  16.172  10.326  1.00  0.00    -0.287 OA
BRANCH   5   6
HETATM    6  C7  UNL     1      12.822  14.979   9.965  1.00  0.00     0.216 C 
BRANCH   6   7
HETATM    7  C6  UNL     1      11.295  14.860  10.110  1.00  0.00     0.180 C 
BRANCH   7   8
HETATM    8  C5  UNL     1      10.978  13.403  10.142  1.00  0.00     0.213 C 
BRANCH   8   9
HETATM    9  O2  UNL     1      11.702  12.572   9.316  1.00  0.00    -0.319 OA
BRANCH   9  10
HETATM   10  C4  UNL     1      11.431  12.359   7.984  1.00  0.00     0.258 C 
HETATM   11  O1  UNL     1      10.254  12.033   7.716  1.00  0.00    -0.265 OA
BRANCH  10  12
HETATM   12  C3  UNL     1      12.476  12.505   6.919  1.00  0.00     0.111 C 
BRANCH  12  13
HETATM   13  C2  UNL     1      12.769  14.001   6.785  1.00  0.00     0.005 C 
HETATM   14  C1  UNL     1      14.238  14.257   6.621  1.00  0.00     0.005 C 
ENDBRANCH  12  13
ENDBRANCH  10  12
ENDBRANCH   9  10
ENDBRANCH   8   9
ENDBRANCH   7   8
BRANCH   7  15
HETATM   15  O15 UNL     1      10.721  15.571   9.067  1.00  0.00    -0.312 OA
BRANCH  15  16
HETATM   16  C14 UNL     1       9.605  16.367   9.292  1.00  0.00     0.259 C 
HETATM   17  O16 UNL     1       8.973  16.738   8.297  1.00  0.00    -0.265 OA
BRANCH  16  18
HETATM   18  C15 UNL     1       9.163  16.772  10.641  1.00  0.00     0.111 C 
BRANCH  18  19
HETATM   19  C16 UNL     1       9.787  18.098  10.994  1.00  0.00     0.005 C 
HETATM   20  C17 UNL     1       9.200  18.590  12.304  1.00  0.00     0.005 C 
ENDBRANCH  18  19
ENDBRANCH  16  18
ENDBRANCH  15  16
ENDBRANCH   7  15
ENDBRANCH   6   7
ENDBRANCH   5   6
ENDBRANCH   2   5
ENDBRANCH   1   2
BRANCH   1  21
HETATM   21  C8  UNL     1      12.732  18.987   7.541  1.00  0.00     0.197 C 
HETATM   22  C9  UNL     1      13.080  17.981   6.475  1.00  0.00     0.181 C 
HETATM   23  C10 UNL     1      11.901  17.657   5.593  1.00  0.00     0.180 C 
HETATM   24  C11 UNL     1      11.419  18.873   4.833  1.00  0.00     0.181 C 
HETATM   25  C12 UNL     1      11.799  20.146   5.567  1.00  0.00     0.198 C 
HETATM   26  C13 UNL     1      11.647  19.947   7.057  1.00  0.00     0.182 C 
BRANCH  22  27
HETATM   27  O7  UNL     1      14.084  18.505   5.694  1.00  0.00    -0.390 OA
ATOM     28  H7  UNL     1      14.441  17.808   5.156  1.00  0.00     0.210 HD
ENDBRANCH  22  27
BRANCH  23  29
HETATM   29  O8  UNL     1      10.895  17.059   6.315  1.00  0.00    -0.390 OA
ATOM     30  H8  UNL     1      10.042  17.304   5.978  1.00  0.00     0.210 HD
ENDBRANCH  23  29
BRANCH  24  31
HETATM   31  O9  UNL     1      11.952  18.905   3.557  1.00  0.00    -0.390 OA
ATOM     32  H9  UNL     1      11.827  19.758   3.157  1.00  0.00     0.210 HD
ENDBRANCH  24  31
BRANCH  25  33
HETATM   33  O10 UNL     1      10.945  21.138   5.180  1.00  0.00    -0.272 OA
BRANCH  33  34
HETATM   34  P2  UNL     1      11.611  22.536   4.654  1.00  0.00     0.422 P 
HETATM   35  O11 UNL     1      12.017  21.953   3.309  1.00  0.00    -0.617 OA
HETATM   36  O12 UNL     1      10.704  23.726   3.973  1.00  0.00    -0.617 OA
HETATM   37  O13 UNL     1      13.219  22.891   4.982  1.00  0.00    -0.617 OA
ENDBRANCH  33  34
ENDBRANCH  25  33
BRANCH  26  38
HETATM   38  O14 UNL     1      10.407  19.458   7.390  1.00  0.00    -0.390 OA
ATOM     39  H14 UNL     1       9.734  19.929   6.912  1.00  0.00     0.210 HD
ENDBRANCH  26  38
ENDBRANCH   1  21
TORSDOF 20
ENDMDL
