MODEL 1
REMARK VINA RESULT: -7.075879796      0.000      0.000
REMARK  20 active torsions:
REMARK  status: ('A' for Active; 'I' for Inactive)
REMARK    1  A    between atoms: C2_2  and  C3_3 
REMARK    2  A    between atoms: C3_3  and  C4_4 
REMARK    3  A    between atoms: C4_4  and  O2_6 
REMARK    4  A    between atoms: O2_6  and  C5_7 
REMARK    5  A    between atoms: C5_7  and  C6_8 
REMARK    6  A    between atoms: C6_8  and  C7_9 
REMARK    7  A    between atoms: C6_8  and  O15_34 
REMARK    8  A    between atoms: C7_9  and  O3_10 
REMARK    9  A    between atoms: O3_10  and  P1_11 
REMARK   10  A    between atoms: P1_11  and  O6_14 
REMARK   11  A    between atoms: O6_14  and  C8_15 
REMARK   12  A    between atoms: C9_16  and  O7_17 
REMARK   13  A    between atoms: C10_19  and  O8_20 
REMARK   14  A    between atoms: C11_22  and  O9_23 
REMARK   15  A    between atoms: C12_25  and  O10_26 
REMARK   16  A    between atoms: O10_26  and  P2_27 
REMARK   17  A    between atoms: C13_31  and  O14_32 
REMARK   18  A    between atoms: O15_34  and  C14_35 
REMARK   19  A    between atoms: C14_35  and  C15_37 
REMARK   20  A    between atoms: C15_37  and  C16_38 
ROOT
HETATM    1  O6  UNL     1      14.771  16.635   7.462  1.00  0.00    -0.279 OA
ENDROOT
BRANCH   1   2
HETATM    2  P1  UNL     1      13.854  15.525   6.601  1.00  0.00     0.408 P 
HETATM    3  O4  UNL     1      14.524  14.323   7.249  1.00  0.00    -0.624 OA
HETATM    4  O5  UNL     1      14.462  15.022   5.101  1.00  0.00    -0.624 OA
BRANCH   2   5
HETATM    5  O3  UNL     1      12.359  15.165   7.006  1.00  0.00    -0.287 OA
BRANCH   5   6
HETATM    6  C7  UNL     1      11.320  15.983   6.843  1.00  0.00     0.216 C 
BRANCH   6   7
HETATM    7  C6  UNL     1      10.528  16.226   8.140  1.00  0.00     0.180 C 
BRANCH   7   8
HETATM    8  C5  UNL     1      10.272  17.693   8.219  1.00  0.00     0.213 C 
BRANCH   8   9
HETATM    9  O2  UNL     1      10.559  18.454   7.107  1.00  0.00    -0.319 OA
BRANCH   9  10
HETATM   10  C4  UNL     1       9.645  18.812   6.143  1.00  0.00     0.258 C 
HETATM   11  O1  UNL     1       8.485  18.379   6.310  1.00  0.00    -0.265 OA
BRANCH  10  12
HETATM   12  C3  UNL     1      10.013  19.664   4.965  1.00  0.00     0.111 C 
BRANCH  12  13
HETATM   13  C2  UNL     1      11.359  19.151   4.448  1.00  0.00     0.005 C 
HETATM   14  C1  UNL     1      11.551  19.488   2.998  1.00  0.00     0.005 C 
ENDBRANCH  12  13
ENDBRANCH  10  12
ENDBRANCH   9  10
ENDBRANCH   8   9
ENDBRANCH   7   8
BRANCH   7  15
HETATM   15  O15 UNL     1      11.269  15.695   9.185  1.00  0.00    -0.312 OA
BRANCH  15  16
HETATM   16  C14 UNL     1      10.767  14.639   9.935  1.00  0.00     0.259 C 
HETATM   17  O16 UNL     1       9.781  14.875  10.643  1.00  0.00    -0.265 OA
BRANCH  16  18
HETATM   18  C15 UNL     1      11.354  13.285   9.914  1.00  0.00     0.111 C 
BRANCH  18  19
HETATM   19  C16 UNL     1      10.628  12.440   8.898  1.00  0.00     0.005 C 
HETATM   20  C17 UNL     1      11.618  11.967   7.849  1.00  0.00     0.005 C 
ENDBRANCH  18  19
ENDBRANCH  16  18
ENDBRANCH  15  16
ENDBRANCH   7  15
ENDBRANCH   6   7
ENDBRANCH   5   6
ENDBRANCH   2   5
ENDBRANCH   1   2
BRANCH   1  21
HETATM   21  C8  UNL     1      14.032  17.546   8.156  1.00  0.00     0.197 C 
HETATM   22  C9  UNL     1      14.322  17.403   9.627  1.00  0.00     0.181 C 
HETATM   23  C10 UNL     1      15.404  18.348  10.087  1.00  0.00     0.180 C 
HETATM   24  C11 UNL     1      14.996  19.794   9.912  1.00  0.00     0.181 C 
HETATM   25  C12 UNL     1      13.952  19.926   8.819  1.00  0.00     0.198 C 
HETATM   26  C13 UNL     1      14.270  18.979   7.686  1.00  0.00     0.182 C 
BRANCH  22  27
HETATM   27  O7  UNL     1      13.170  17.679  10.327  1.00  0.00    -0.390 OA
ATOM     28  H7  UNL     1      12.824  16.863  10.670  1.00  0.00     0.210 HD
ENDBRANCH  22  27
BRANCH  23  29
HETATM   29  O8  UNL     1      16.600  18.063   9.471  1.00  0.00    -0.390 OA
ATOM     30  H8  UNL     1      17.167  18.825   9.460  1.00  0.00     0.210 HD
ENDBRANCH  23  29
BRANCH  24  31
HETATM   31  O9  UNL     1      14.492  20.313  11.091  1.00  0.00    -0.390 OA
ATOM     32  H9  UNL     1      13.583  20.067  11.210  1.00  0.00     0.210 HD
ENDBRANCH  24  31
BRANCH  25  33
HETATM   33  O10 UNL     1      13.994  21.201   8.335  1.00  0.00    -0.272 OA
BRANCH  33  34
HETATM   34  P2  UNL     1      12.791  21.659   7.326  1.00  0.00     0.422 P 
HETATM   35  O11 UNL     1      12.878  23.125   7.727  1.00  0.00    -0.617 OA
HETATM   36  O12 UNL     1      13.066  21.977   5.738  1.00  0.00    -0.617 OA
HETATM   37  O13 UNL     1      11.191  21.619   7.834  1.00  0.00    -0.617 OA
ENDBRANCH  33  34
ENDBRANCH  25  33
BRANCH  26  38
HETATM   38  O14 UNL     1      15.563  19.118   7.243  1.00  0.00    -0.390 OA
ATOM     39  H14 UNL     1      15.968  19.871   7.658  1.00  0.00     0.210 HD
ENDBRANCH  26  38
ENDBRANCH   1  21
TORSDOF 20
ENDMDL
