MODEL 2
REMARK VINA RESULT: -9.069530838      2.428      5.533
REMARK  15 active torsions:
REMARK  status: ('A' for Active; 'I' for Inactive)
REMARK    1  A    between atoms: O1_2  and  C2_3 
REMARK    2  A    between atoms: C2_3  and  C3_5 
REMARK    3  A    between atoms: C3_5  and  N1_6 
REMARK    4  A    between atoms: C3_5  and  C30_46 
REMARK       I    between atoms: N1_6  and  C4_8 
REMARK    5  A    between atoms: C4_8  and  C5_10 
REMARK    6  A    between atoms: C5_10  and  N2_11 
REMARK    7  A    between atoms: C5_10  and  C27_43 
REMARK       I    between atoms: N2_11  and  C6_13 
REMARK    8  A    between atoms: C6_13  and  C7_15 
REMARK    9  A    between atoms: C7_15  and  N3_17 
REMARK   10  A    between atoms: C11_20  and  C12_21 
REMARK   11  A    between atoms: C12_21  and  N4_23 
REMARK       I    between atoms: N4_23  and  C14_25 
REMARK   12  A    between atoms: C14_25  and  C15_27 
REMARK   13  A    between atoms: C15_27  and  N5_29 
REMARK   14  A    between atoms: C18_34  and  C19_35 
REMARK   15  A    between atoms: C19_35  and  C20_36 
ROOT
HETATM    1  N3  UNL     1      -6.423  17.123  27.306  1.00  0.00     0.102 N 
HETATM    2  C9  UNL     1      -7.375  17.217  26.231  1.00  0.00     0.278 C 
HETATM    3  C10 UNL     1      -8.262  15.982  26.236  1.00  0.00     0.066 C 
HETATM    4  C11 UNL     1      -9.465  16.267  27.063  1.00  0.00    -0.059 C 
HETATM    5  C17 UNL     1      -9.490  16.994  28.175  1.00  0.00    -0.015 C 
HETATM    6  C18 UNL     1      -8.303  17.678  28.826  1.00  0.00     0.041 C 
HETATM    7  C26 UNL     1      -7.109  16.839  28.557  1.00  0.00     0.282 C 
ENDROOT
BRANCH   1   8
HETATM    8  C7  UNL     1      -5.661  18.325  27.486  1.00  0.00     0.310 C 
HETATM    9  C8  UNL     1      -4.547  17.977  28.497  1.00  0.00     0.053 C 
BRANCH   8  10
HETATM   10  C6  UNL     1      -4.945  18.784  26.284  1.00  0.00     0.251 C 
HETATM   11  N2  UNL     1      -4.431  17.941  25.278  1.00  0.00    -0.346 N 
ATOM     12  H2  UNL     1      -4.570  16.938  25.394  1.00  0.00     0.163 HD
HETATM   13  O4  UNL     1      -4.778  20.027  26.155  1.00  0.00    -0.271 OA
BRANCH  11  14
HETATM   14  C5  UNL     1      -3.722  18.379  24.094  1.00  0.00     0.180 C 
BRANCH  14  15
HETATM   15  C4  UNL     1      -4.637  18.779  23.020  1.00  0.00     0.241 C 
HETATM   16  N1  UNL     1      -5.263  17.811  22.178  1.00  0.00    -0.345 N 
ATOM     17  H1  UNL     1      -5.078  16.816  22.312  1.00  0.00     0.163 HD
HETATM   18  O3  UNL     1      -4.855  20.021  22.866  1.00  0.00    -0.271 OA
BRANCH  16  19
HETATM   19  C3  UNL     1      -6.154  18.247  21.144  1.00  0.00     0.187 C 
BRANCH  19  20
HETATM   20  C2  UNL     1      -7.541  17.826  21.480  1.00  0.00     0.281 C 
HETATM   21  O2  UNL     1      -8.534  18.170  20.774  1.00  0.00    -0.263 OA
BRANCH  20  22
HETATM   22  O1  UNL     1      -7.820  17.030  22.591  1.00  0.00    -0.325 OA
HETATM   23  C1  UNL     1      -8.661  15.894  22.512  1.00  0.00     0.213 C 
ENDBRANCH  20  22
ENDBRANCH  19  20
BRANCH  19  24
HETATM   24  C30 UNL     1      -5.775  17.574  19.833  1.00  0.00     0.010 C 
HETATM   25  C31 UNL     1      -5.859  16.071  19.949  1.00  0.00     0.012 C 
HETATM   26  C32 UNL     1      -4.403  18.057  19.450  1.00  0.00     0.012 C 
ENDBRANCH  19  24
ENDBRANCH  16  19
ENDBRANCH  14  15
BRANCH  14  27
HETATM   27  C27 UNL     1      -2.712  17.327  23.657  1.00  0.00     0.009 C 
HETATM   28  C28 UNL     1      -1.342  17.974  23.705  1.00  0.00     0.012 C 
HETATM   29  C29 UNL     1      -2.648  16.161  24.621  1.00  0.00     0.012 C 
ENDBRANCH  14  27
ENDBRANCH  11  14
ENDBRANCH   8  10
ENDBRANCH   1   8
BRANCH   6  30
HETATM   30  C19 UNL     1      -8.594  17.988  30.246  1.00  0.00     0.048 C 
BRANCH  30  31
HETATM   31  C20 UNL     1      -8.352  16.944  31.234  1.00  0.00    -0.058 A 
HETATM   32  C21 UNL     1      -9.252  15.926  31.500  1.00  0.00     0.007 A 
HETATM   33  C22 UNL     1      -8.984  14.956  32.448  1.00  0.00     0.001 A 
HETATM   34  C23 UNL     1      -7.819  14.950  33.172  1.00  0.00     0.000 A 
HETATM   35  C24 UNL     1      -6.914  15.956  32.919  1.00  0.00     0.001 A 
HETATM   36  C25 UNL     1      -7.171  16.933  31.971  1.00  0.00     0.007 A 
ENDBRANCH  30  31
ENDBRANCH   6  30
BRANCH   4  37
HETATM   37  C12 UNL     1     -10.743  15.712  26.594  1.00  0.00     0.109 C 
HETATM   38  C13 UNL     1     -11.283  16.425  25.358  1.00  0.00     0.037 C 
BRANCH  37  39
HETATM   39  N4  UNL     1     -11.738  15.529  27.621  1.00  0.00    -0.351 N 
HETATM   40  C14 UNL     1     -11.715  14.415  28.519  1.00  0.00     0.248 C 
HETATM   41  O5  UNL     1     -10.771  13.581  28.361  1.00  0.00    -0.271 OA
ATOM     42  H4  UNL     1     -12.486  16.218  27.710  1.00  0.00     0.163 HD
BRANCH  40  43
HETATM   43  C15 UNL     1     -12.711  14.198  29.587  1.00  0.00     0.270 C 
HETATM   44  C16 UNL     1     -13.220  12.772  29.467  1.00  0.00     0.050 C 
BRANCH  43  45
HETATM   45  N5  UNL     1     -13.860  15.082  29.430  1.00  0.00    -0.067 N 
ATOM     46  H53 UNL     1     -14.195  15.423  30.331  1.00  0.00     0.275 HD
ATOM     47  H52 UNL     1     -13.591  15.974  29.015  1.00  0.00     0.275 HD
ATOM     48  H51 UNL     1     -14.605  14.631  28.900  1.00  0.00     0.275 HD
ENDBRANCH  43  45
ENDBRANCH  40  43
ENDBRANCH  37  39
ENDBRANCH   4  37
TORSDOF 15
ENDMDL
