MODEL 3
REMARK VINA RESULT: -9.059661598      1.432      3.396
REMARK  15 active torsions:
REMARK  status: ('A' for Active; 'I' for Inactive)
REMARK    1  A    between atoms: O1_2  and  C2_3 
REMARK    2  A    between atoms: C2_3  and  C3_5 
REMARK    3  A    between atoms: C3_5  and  N1_6 
REMARK    4  A    between atoms: C3_5  and  C30_46 
REMARK       I    between atoms: N1_6  and  C4_8 
REMARK    5  A    between atoms: C4_8  and  C5_10 
REMARK    6  A    between atoms: C5_10  and  N2_11 
REMARK    7  A    between atoms: C5_10  and  C27_43 
REMARK       I    between atoms: N2_11  and  C6_13 
REMARK    8  A    between atoms: C6_13  and  C7_15 
REMARK    9  A    between atoms: C7_15  and  N3_17 
REMARK   10  A    between atoms: C11_20  and  C12_21 
REMARK   11  A    between atoms: C12_21  and  N4_23 
REMARK       I    between atoms: N4_23  and  C14_25 
REMARK   12  A    between atoms: C14_25  and  C15_27 
REMARK   13  A    between atoms: C15_27  and  N5_29 
REMARK   14  A    between atoms: C18_34  and  C19_35 
REMARK   15  A    between atoms: C19_35  and  C20_36 
ROOT
HETATM    1  N3  UNL     1      -9.078  17.921  27.909  1.00  0.00     0.102 N 
HETATM    2  C9  UNL     1      -8.177  17.296  28.841  1.00  0.00     0.278 C 
HETATM    3  C10 UNL     1      -8.464  17.813  30.241  1.00  0.00     0.066 C 
HETATM    4  C11 UNL     1      -9.449  16.905  30.888  1.00  0.00    -0.059 C 
HETATM    5  C17 UNL     1     -10.465  16.301  30.282  1.00  0.00    -0.015 C 
HETATM    6  C18 UNL     1     -10.829  16.414  28.814  1.00  0.00     0.041 C 
HETATM    7  C26 UNL     1     -10.451  17.779  28.370  1.00  0.00     0.282 C 
ENDROOT
BRANCH   1   8
HETATM    8  C7  UNL     1      -8.997  17.363  26.590  1.00  0.00     0.310 C 
HETATM    9  C8  UNL     1     -10.062  18.100  25.748  1.00  0.00     0.053 C 
BRANCH   8  10
HETATM   10  C6  UNL     1      -7.727  17.617  25.892  1.00  0.00     0.251 C 
HETATM   11  N2  UNL     1      -7.036  18.846  25.893  1.00  0.00    -0.346 N 
ATOM     12  H2  UNL     1      -7.450  19.614  26.421  1.00  0.00     0.163 HD
HETATM   13  O4  UNL     1      -7.227  16.661  25.240  1.00  0.00    -0.271 OA
BRANCH  11  14
HETATM   14  C5  UNL     1      -5.788  19.111  25.208  1.00  0.00     0.180 C 
BRANCH  14  15
HETATM   15  C4  UNL     1      -5.964  19.198  23.755  1.00  0.00     0.241 C 
HETATM   16  N1  UNL     1      -6.141  18.027  22.956  1.00  0.00    -0.345 N 
ATOM     17  H1  UNL     1      -6.143  17.104  23.391  1.00  0.00     0.163 HD
HETATM   18  O3  UNL     1      -5.957  20.354  23.230  1.00  0.00    -0.271 OA
BRANCH  16  19
HETATM   19  C3  UNL     1      -6.315  18.160  21.540  1.00  0.00     0.187 C 
BRANCH  19  20
HETATM   20  C2  UNL     1      -7.636  17.597  21.152  1.00  0.00     0.281 C 
HETATM   21  O2  UNL     1      -8.502  18.285  20.538  1.00  0.00    -0.263 OA
BRANCH  20  22
HETATM   22  O1  UNL     1      -7.990  16.279  21.445  1.00  0.00    -0.325 OA
HETATM   23  C1  UNL     1      -9.116  15.961  22.241  1.00  0.00     0.213 C 
ENDBRANCH  20  22
ENDBRANCH  19  20
BRANCH  19  24
HETATM   24  C30 UNL     1      -5.243  17.353  20.822  1.00  0.00     0.010 C 
HETATM   25  C31 UNL     1      -3.901  17.507  21.498  1.00  0.00     0.012 C 
HETATM   26  C32 UNL     1      -5.228  17.789  19.383  1.00  0.00     0.012 C 
ENDBRANCH  19  24
ENDBRANCH  16  19
ENDBRANCH  14  15
BRANCH  14  27
HETATM   27  C27 UNL     1      -4.727  18.100  25.621  1.00  0.00     0.009 C 
HETATM   28  C28 UNL     1      -3.417  18.547  25.004  1.00  0.00     0.012 C 
HETATM   29  C29 UNL     1      -4.493  18.096  27.117  1.00  0.00     0.012 C 
ENDBRANCH  14  27
ENDBRANCH  11  14
ENDBRANCH   8  10
ENDBRANCH   1   8
BRANCH   6  30
HETATM   30  C19 UNL     1     -12.236  16.007  28.591  1.00  0.00     0.048 C 
BRANCH  30  31
HETATM   31  C20 UNL     1     -12.630  14.667  29.007  1.00  0.00    -0.058 A 
HETATM   32  C21 UNL     1     -12.006  13.515  28.555  1.00  0.00     0.007 A 
HETATM   33  C22 UNL     1     -12.414  12.262  28.972  1.00  0.00     0.001 A 
HETATM   34  C23 UNL     1     -13.452  12.092  29.851  1.00  0.00     0.000 A 
HETATM   35  C24 UNL     1     -14.083  13.226  30.310  1.00  0.00     0.001 A 
HETATM   36  C25 UNL     1     -13.683  14.488  29.899  1.00  0.00     0.007 A 
ENDBRANCH  30  31
ENDBRANCH   6  30
BRANCH   4  37
HETATM   37  C12 UNL     1      -9.265  16.635  32.322  1.00  0.00     0.109 C 
HETATM   38  C13 UNL     1      -7.798  16.571  32.732  1.00  0.00     0.037 C 
BRANCH  37  39
HETATM   39  N4  UNL     1     -10.044  15.537  32.837  1.00  0.00    -0.351 N 
HETATM   40  C14 UNL     1     -10.862  15.661  34.005  1.00  0.00     0.248 C 
HETATM   41  O5  UNL     1     -10.861  16.794  34.579  1.00  0.00    -0.271 OA
ATOM     42  H4  UNL     1     -10.011  14.640  32.351  1.00  0.00     0.163 HD
BRANCH  40  43
HETATM   43  C15 UNL     1     -11.680  14.562  34.557  1.00  0.00     0.270 C 
HETATM   44  C16 UNL     1     -12.683  14.150  33.494  1.00  0.00     0.050 C 
BRANCH  43  45
HETATM   45  N5  UNL     1     -12.440  15.001  35.722  1.00  0.00    -0.067 N 
ATOM     46  H53 UNL     1     -11.929  15.700  36.261  1.00  0.00     0.275 HD
ATOM     47  H52 UNL     1     -13.245  15.567  35.452  1.00  0.00     0.275 HD
ATOM     48  H51 UNL     1     -12.718  14.210  36.304  1.00  0.00     0.275 HD
ENDBRANCH  43  45
ENDBRANCH  40  43
ENDBRANCH  37  39
ENDBRANCH   4  37
TORSDOF 15
ENDMDL
