MODEL 1
REMARK VINA RESULT: -9.115821559      0.000      0.000
REMARK  15 active torsions:
REMARK  status: ('A' for Active; 'I' for Inactive)
REMARK    1  A    between atoms: O1_2  and  C2_3 
REMARK    2  A    between atoms: C2_3  and  C3_5 
REMARK    3  A    between atoms: C3_5  and  N1_6 
REMARK    4  A    between atoms: C3_5  and  C30_46 
REMARK       I    between atoms: N1_6  and  C4_8 
REMARK    5  A    between atoms: C4_8  and  C5_10 
REMARK    6  A    between atoms: C5_10  and  N2_11 
REMARK    7  A    between atoms: C5_10  and  C27_43 
REMARK       I    between atoms: N2_11  and  C6_13 
REMARK    8  A    between atoms: C6_13  and  C7_15 
REMARK    9  A    between atoms: C7_15  and  N3_17 
REMARK   10  A    between atoms: C11_20  and  C12_21 
REMARK   11  A    between atoms: C12_21  and  N4_23 
REMARK       I    between atoms: N4_23  and  C14_25 
REMARK   12  A    between atoms: C14_25  and  C15_27 
REMARK   13  A    between atoms: C15_27  and  N5_29 
REMARK   14  A    between atoms: C18_34  and  C19_35 
REMARK   15  A    between atoms: C19_35  and  C20_36 
ROOT
HETATM    1  N3  UNL     1      -9.732  16.988  27.165  1.00  0.00     0.102 N 
HETATM    2  C9  UNL     1      -8.765  16.484  28.105  1.00  0.00     0.278 C 
HETATM    3  C10 UNL     1      -8.851  17.286  29.393  1.00  0.00     0.066 C 
HETATM    4  C11 UNL     1      -9.804  16.606  30.311  1.00  0.00    -0.059 C 
HETATM    5  C17 UNL     1     -10.919  15.981  29.950  1.00  0.00    -0.015 C 
HETATM    6  C18 UNL     1     -11.448  15.835  28.536  1.00  0.00     0.041 C 
HETATM    7  C26 UNL     1     -11.045  17.052  27.787  1.00  0.00     0.282 C 
ENDROOT
BRANCH   1   8
HETATM    8  C7  UNL     1      -9.842  16.178  25.986  1.00  0.00     0.310 C 
HETATM    9  C8  UNL     1     -11.083  16.695  25.228  1.00  0.00     0.053 C 
BRANCH   8  10
HETATM   10  C6  UNL     1      -8.731  16.327  25.032  1.00  0.00     0.251 C 
HETATM   11  N2  UNL     1      -8.820  16.975  23.783  1.00  0.00    -0.346 N 
ATOM     12  H2  UNL     1      -9.724  17.372  23.526  1.00  0.00     0.163 HD
HETATM   13  O4  UNL     1      -7.620  15.830  25.360  1.00  0.00    -0.271 OA
BRANCH  11  14
HETATM   14  C5  UNL     1      -7.737  17.126  22.834  1.00  0.00     0.180 C 
BRANCH  14  15
HETATM   15  C4  UNL     1      -6.816  18.201  23.214  1.00  0.00     0.241 C 
HETATM   16  N1  UNL     1      -5.711  17.959  24.087  1.00  0.00    -0.345 N 
ATOM     17  H1  UNL     1      -5.549  17.025  24.464  1.00  0.00     0.163 HD
HETATM   18  O3  UNL     1      -7.033  19.358  22.738  1.00  0.00    -0.271 OA
BRANCH  16  19
HETATM   19  C3  UNL     1      -4.834  19.039  24.428  1.00  0.00     0.187 C 
BRANCH  19  20
HETATM   20  C2  UNL     1      -3.495  18.793  23.827  1.00  0.00     0.281 C 
HETATM   21  O2  UNL     1      -2.592  19.680  23.818  1.00  0.00    -0.263 OA
BRANCH  20  22
HETATM   22  O1  UNL     1      -3.164  17.570  23.241  1.00  0.00    -0.325 OA
HETATM   23  C1  UNL     1      -2.316  16.634  23.878  1.00  0.00     0.213 C 
ENDBRANCH  20  22
ENDBRANCH  19  20
BRANCH  19  24
HETATM   24  C30 UNL     1      -4.657  19.088  25.939  1.00  0.00     0.010 C 
HETATM   25  C31 UNL     1      -4.715  17.703  26.539  1.00  0.00     0.012 C 
HETATM   26  C32 UNL     1      -5.705  20.012  26.494  1.00  0.00     0.012 C 
ENDBRANCH  19  24
ENDBRANCH  16  19
ENDBRANCH  14  15
BRANCH  14  27
HETATM   27  C27 UNL     1      -8.284  17.281  21.421  1.00  0.00     0.009 C 
HETATM   28  C28 UNL     1      -7.381  16.484  20.501  1.00  0.00     0.012 C 
HETATM   29  C29 UNL     1      -9.662  16.671  21.270  1.00  0.00     0.012 C 
ENDBRANCH  14  27
ENDBRANCH  11  14
ENDBRANCH   8  10
ENDBRANCH   1   8
BRANCH   6  30
HETATM   30  C19 UNL     1     -12.894  15.510  28.550  1.00  0.00     0.048 C 
BRANCH  30  31
HETATM   31  C20 UNL     1     -13.305  14.267  29.191  1.00  0.00    -0.058 A 
HETATM   32  C21 UNL     1     -14.181  14.217  30.262  1.00  0.00     0.007 A 
HETATM   33  C22 UNL     1     -14.544  13.016  30.843  1.00  0.00     0.001 A 
HETATM   34  C23 UNL     1     -14.059  11.816  30.392  1.00  0.00     0.000 A 
HETATM   35  C24 UNL     1     -13.187  11.848  29.327  1.00  0.00     0.001 A 
HETATM   36  C25 UNL     1     -12.817  13.045  28.736  1.00  0.00     0.007 A 
ENDBRANCH  30  31
ENDBRANCH   6  30
BRANCH   4  37
HETATM   37  C12 UNL     1      -9.467  16.607  31.742  1.00  0.00     0.109 C 
HETATM   38  C13 UNL     1      -7.967  16.695  32.000  1.00  0.00     0.037 C 
BRANCH  37  39
HETATM   39  N4  UNL     1     -10.115  15.579  32.518  1.00  0.00    -0.351 N 
HETATM   40  C14 UNL     1     -10.723  15.846  33.786  1.00  0.00     0.248 C 
HETATM   41  O5  UNL     1     -10.656  17.044  34.204  1.00  0.00    -0.271 OA
ATOM     42  H4  UNL     1     -10.140  14.628  32.150  1.00  0.00     0.163 HD
BRANCH  40  43
HETATM   43  C15 UNL     1     -11.403  14.823  34.605  1.00  0.00     0.270 C 
HETATM   44  C16 UNL     1     -12.379  14.082  33.708  1.00  0.00     0.050 C 
BRANCH  43  45
HETATM   45  N5  UNL     1     -12.180  15.432  35.678  1.00  0.00    -0.067 N 
ATOM     46  H53 UNL     1     -12.109  16.450  35.661  1.00  0.00     0.275 HD
ATOM     47  H52 UNL     1     -13.182  15.342  35.512  1.00  0.00     0.275 HD
ATOM     48  H51 UNL     1     -11.916  15.055  36.588  1.00  0.00     0.275 HD
ENDBRANCH  43  45
ENDBRANCH  40  43
ENDBRANCH  37  39
ENDBRANCH   4  37
TORSDOF 15
ENDMDL
