MODEL 14
REMARK VINA RESULT: -8.602874380      2.132     10.460
REMARK  15 active torsions:
REMARK  status: ('A' for Active; 'I' for Inactive)
REMARK    1  A    between atoms: O1_2  and  C2_3 
REMARK    2  A    between atoms: C2_3  and  C3_5 
REMARK    3  A    between atoms: C3_5  and  N1_6 
REMARK    4  A    between atoms: C3_5  and  C30_46 
REMARK       I    between atoms: N1_6  and  C4_8 
REMARK    5  A    between atoms: C4_8  and  C5_10 
REMARK    6  A    between atoms: C5_10  and  N2_11 
REMARK    7  A    between atoms: C5_10  and  C27_43 
REMARK       I    between atoms: N2_11  and  C6_13 
REMARK    8  A    between atoms: C6_13  and  C7_15 
REMARK    9  A    between atoms: C7_15  and  N3_17 
REMARK   10  A    between atoms: C11_20  and  C12_21 
REMARK   11  A    between atoms: C12_21  and  N4_23 
REMARK       I    between atoms: N4_23  and  C14_25 
REMARK   12  A    between atoms: C14_25  and  C15_27 
REMARK   13  A    between atoms: C15_27  and  N5_29 
REMARK   14  A    between atoms: C18_34  and  C19_35 
REMARK   15  A    between atoms: C19_35  and  C20_36 
ROOT
HETATM    1  N3  UNL     1      -9.440  17.006  26.635  1.00  0.00     0.102 N 
HETATM    2  C9  UNL     1      -9.478  15.997  25.610  1.00  0.00     0.278 C 
HETATM    3  C10 UNL     1      -9.902  16.632  24.295  1.00  0.00     0.066 C 
HETATM    4  C11 UNL     1      -8.681  17.054  23.558  1.00  0.00    -0.059 C 
HETATM    5  C17 UNL     1      -7.576  17.551  24.103  1.00  0.00    -0.015 C 
HETATM    6  C18 UNL     1      -7.335  17.790  25.581  1.00  0.00     0.041 C 
HETATM    7  C26 UNL     1      -8.643  18.139  26.190  1.00  0.00     0.282 C 
ENDROOT
BRANCH   1   8
HETATM    8  C7  UNL     1      -8.880  16.531  27.868  1.00  0.00     0.310 C 
HETATM    9  C8  UNL     1      -8.486  17.791  28.670  1.00  0.00     0.053 C 
BRANCH   8  10
HETATM   10  C6  UNL     1      -9.828  15.816  28.738  1.00  0.00     0.251 C 
HETATM   11  N2  UNL     1     -11.154  16.218  28.992  1.00  0.00    -0.346 N 
ATOM     12  H2  UNL     1     -11.480  17.070  28.534  1.00  0.00     0.163 HD
HETATM   13  O4  UNL     1      -9.412  14.767  29.300  1.00  0.00    -0.271 OA
BRANCH  11  14
HETATM   14  C5  UNL     1     -12.095  15.526  29.847  1.00  0.00     0.180 C 
BRANCH  14  15
HETATM   15  C4  UNL     1     -11.481  15.096  31.107  1.00  0.00     0.241 C 
HETATM   16  N1  UNL     1     -10.693  15.990  31.893  1.00  0.00    -0.345 N 
ATOM     17  H1  UNL     1     -10.541  16.950  31.584  1.00  0.00     0.163 HD
HETATM   18  O3  UNL     1     -11.677  13.897  31.478  1.00  0.00    -0.271 OA
BRANCH  16  19
HETATM   19  C3  UNL     1     -10.116  15.527  33.121  1.00  0.00     0.187 C 
BRANCH  19  20
HETATM   20  C2  UNL     1     -10.971  15.959  34.260  1.00  0.00     0.281 C 
HETATM   21  O2  UNL     1     -10.770  17.048  34.872  1.00  0.00    -0.263 OA
BRANCH  20  22
HETATM   22  O1  UNL     1     -12.039  15.184  34.713  1.00  0.00    -0.325 OA
HETATM   23  C1  UNL     1     -11.936  13.782  34.879  1.00  0.00     0.213 C 
ENDBRANCH  20  22
ENDBRANCH  19  20
BRANCH  19  24
HETATM   24  C30 UNL     1      -8.747  16.165  33.308  1.00  0.00     0.010 C 
HETATM   25  C31 UNL     1      -8.506  17.248  32.283  1.00  0.00     0.012 C 
HETATM   26  C32 UNL     1      -7.719  15.069  33.255  1.00  0.00     0.012 C 
ENDBRANCH  19  24
ENDBRANCH  16  19
ENDBRANCH  14  15
BRANCH  14  27
HETATM   27  C27 UNL     1     -12.767  14.388  29.091  1.00  0.00     0.009 C 
HETATM   28  C28 UNL     1     -14.244  14.438  29.426  1.00  0.00     0.012 C 
HETATM   29  C29 UNL     1     -12.681  14.569  27.590  1.00  0.00     0.012 C 
ENDBRANCH  14  27
ENDBRANCH  11  14
ENDBRANCH   8  10
ENDBRANCH   1   8
BRANCH   6  30
HETATM   30  C19 UNL     1      -6.228  18.756  25.781  1.00  0.00     0.048 C 
BRANCH  30  31
HETATM   31  C20 UNL     1      -4.910  18.394  25.275  1.00  0.00    -0.058 A 
HETATM   32  C21 UNL     1      -4.102  19.266  24.564  1.00  0.00     0.007 A 
HETATM   33  C22 UNL     1      -2.859  18.880  24.099  1.00  0.00     0.001 A 
HETATM   34  C23 UNL     1      -2.360  17.622  24.316  1.00  0.00     0.000 A 
HETATM   35  C24 UNL     1      -3.151  16.744  25.022  1.00  0.00     0.001 A 
HETATM   36  C25 UNL     1      -4.399  17.118  25.493  1.00  0.00     0.007 A 
ENDBRANCH  30  31
ENDBRANCH   6  30
BRANCH   4  37
HETATM   37  C12 UNL     1      -8.691  16.883  22.098  1.00  0.00     0.109 C 
HETATM   38  C13 UNL     1      -9.713  15.853  21.626  1.00  0.00     0.037 C 
BRANCH  37  39
HETATM   39  N4  UNL     1      -7.392  16.706  21.498  1.00  0.00    -0.351 N 
HETATM   40  C14 UNL     1      -6.862  17.622  20.535  1.00  0.00     0.248 C 
HETATM   41  O5  UNL     1      -7.603  18.605  20.223  1.00  0.00    -0.271 OA
ATOM     42  H4  UNL     1      -6.831  15.898  21.771  1.00  0.00     0.163 HD
BRANCH  40  43
HETATM   43  C15 UNL     1      -5.534  17.479  19.907  1.00  0.00     0.270 C 
HETATM   44  C16 UNL     1      -4.487  17.602  21.000  1.00  0.00     0.050 C 
BRANCH  43  45
HETATM   45  N5  UNL     1      -5.283  18.547  18.946  1.00  0.00    -0.067 N 
ATOM     46  H53 UNL     1      -6.033  18.615  18.258  1.00  0.00     0.275 HD
ATOM     47  H52 UNL     1      -5.380  19.468  19.376  1.00  0.00     0.275 HD
ATOM     48  H51 UNL     1      -4.373  18.438  18.498  1.00  0.00     0.275 HD
ENDBRANCH  43  45
ENDBRANCH  40  43
ENDBRANCH  37  39
ENDBRANCH   4  37
TORSDOF 15
ENDMDL
