MODEL 6
REMARK VINA RESULT: -8.855838215      5.254     10.052
REMARK  6 active torsions:
REMARK  status: ('A' for Active; 'I' for Inactive)
REMARK    1  A    between atoms: C4_4  and  O1_5 
REMARK    2  A    between atoms: O1_5  and  C5_6 
REMARK    3  A    between atoms: C5_6  and  C6_8 
REMARK    4  A    between atoms: C6_8  and  C7_9 
REMARK    5  A    between atoms: C7_9  and  C8_10 
REMARK    6  A    between atoms: C24_29  and  C26_31 
ROOT
HETATM    1  C1  UNL     1      -1.661  -0.362 -18.636  1.00  0.00     0.018 C 
HETATM    2  C2  UNL     1      -1.430   0.944 -19.415  1.00  0.00    -0.017 C 
HETATM    3  C3  UNL     1      -0.916   1.934 -18.422  1.00  0.00     0.018 C 
HETATM    4  C4  UNL     1      -2.734   1.393 -19.965  1.00  0.00     0.140 C 
HETATM    5  C9  UNL     1      -2.733   1.416 -21.469  1.00  0.00     0.034 C 
HETATM    6  C10 UNL     1      -1.582   2.166 -22.050  1.00  0.00     0.013 C 
HETATM    7  C11 UNL     1      -0.225   1.706 -21.492  1.00  0.00    -0.028 C 
HETATM    8  C12 UNL     1       0.474   2.899 -20.973  1.00  0.00     0.016 C 
HETATM    9  C13 UNL     1      -0.513   0.601 -20.544  1.00  0.00     0.005 C 
HETATM   10  C14 UNL     1       0.722  -0.158 -20.106  1.00  0.00     0.007 C 
HETATM   11  C15 UNL     1       1.226  -0.866 -21.361  1.00  0.00     0.011 C 
HETATM   12  C16 UNL     1       1.644   0.222 -22.335  1.00  0.00    -0.021 C 
HETATM   13  C17 UNL     1       2.840   0.888 -21.756  1.00  0.00     0.017 C 
HETATM   14  C18 UNL     1       0.516   1.121 -22.671  1.00  0.00     0.077 C 
HETATM   15  C19 UNL     1       0.952   2.109 -23.665  1.00  0.00     0.155 C 
HETATM   16  O5  UNL     1       0.325   3.172 -23.839  1.00  0.00    -0.293 OA
HETATM   17  C20 UNL     1       2.140   1.830 -24.457  1.00  0.00     0.054 C 
HETATM   18  C21 UNL     1       2.715   0.628 -24.469  1.00  0.00    -0.062 C 
HETATM   19  C22 UNL     1       3.932   0.457 -25.319  1.00  0.00     0.025 C 
HETATM   20  C23 UNL     1       3.502   0.738 -26.717  1.00  0.00     0.030 C 
HETATM   21  C24 UNL     1       4.625   0.512 -27.678  1.00  0.00     0.045 C 
HETATM   22  C25 UNL     1       4.025   0.614 -29.094  1.00  0.00     0.027 C 
HETATM   23  C27 UNL     1       5.106  -0.892 -27.524  1.00  0.00     0.021 C 
HETATM   24  C28 UNL     1       5.536  -1.282 -26.165  1.00  0.00     0.011 C 
HETATM   25  C29 UNL     1       4.647  -0.800 -25.058  1.00  0.00    -0.036 C 
HETATM   26  C30 UNL     1       5.537  -0.641 -23.840  1.00  0.00     0.016 C 
HETATM   27  C31 UNL     1       3.669  -1.934 -24.726  1.00  0.00     0.011 C 
HETATM   28  C32 UNL     1       2.943  -1.626 -23.468  1.00  0.00     0.015 C 
HETATM   29  C33 UNL     1       2.090  -0.426 -23.654  1.00  0.00    -0.012 C 
HETATM   30  C34 UNL     1       0.849  -0.871 -24.442  1.00  0.00     0.021 C 
ENDROOT
BRANCH   4  31
HETATM   31  O1  UNL     1      -3.118   2.661 -19.405  1.00  0.00    -0.315 OA
BRANCH  31  32
HETATM   32  C5  UNL     1      -4.432   3.006 -19.165  1.00  0.00     0.259 C 
HETATM   33  O2  UNL     1      -4.919   2.769 -18.004  1.00  0.00    -0.265 OA
BRANCH  32  34
HETATM   34  C6  UNL     1      -5.337   3.641 -20.168  1.00  0.00     0.121 C 
BRANCH  34  35
HETATM   35  C7  UNL     1      -6.678   2.924 -20.031  1.00  0.00     0.123 C 
BRANCH  35  36
HETATM   36  C8  UNL     1      -6.780   1.854 -21.043  1.00  0.00     0.172 C 
HETATM   37  O3  UNL     1      -7.505   2.049 -22.059  1.00  0.00    -0.648 OA
HETATM   38  O4  UNL     1      -6.072   0.669 -20.840  1.00  0.00    -0.648 OA
ENDBRANCH  35  36
ENDBRANCH  34  35
ENDBRANCH  32  34
ENDBRANCH  31  32
ENDBRANCH   4  31
BRANCH  21  39
HETATM   39  C26 UNL     1       5.669   1.541 -27.550  1.00  0.00     0.181 C 
HETATM   40  O6  UNL     1       5.341   2.740 -27.436  1.00  0.00    -0.647 OA
HETATM   41  O7  UNL     1       7.027   1.255 -27.549  1.00  0.00    -0.647 OA
ENDBRANCH  21  39
TORSDOF 6
ENDMDL
