MODEL 4
REMARK VINA RESULT: -9.557259540      4.649      9.460
REMARK  6 active torsions:
REMARK  status: ('A' for Active; 'I' for Inactive)
REMARK    1  A    between atoms: C4_4  and  O1_5 
REMARK    2  A    between atoms: O1_5  and  C5_6 
REMARK    3  A    between atoms: C5_6  and  C6_8 
REMARK    4  A    between atoms: C6_8  and  C7_9 
REMARK    5  A    between atoms: C7_9  and  C8_10 
REMARK    6  A    between atoms: C24_29  and  C26_31 
ROOT
HETATM    1  C1  UNL     1      -2.563  -0.537 -18.278  1.00  0.00     0.018 C 
HETATM    2  C2  UNL     1      -2.186   0.755 -19.024  1.00  0.00    -0.017 C 
HETATM    3  C3  UNL     1      -1.638   1.686 -17.992  1.00  0.00     0.018 C 
HETATM    4  C4  UNL     1      -3.420   1.320 -19.626  1.00  0.00     0.140 C 
HETATM    5  C9  UNL     1      -3.345   1.362 -21.128  1.00  0.00     0.034 C 
HETATM    6  C10 UNL     1      -2.108   2.017 -21.644  1.00  0.00     0.013 C 
HETATM    7  C11 UNL     1      -0.823   1.437 -21.031  1.00  0.00    -0.028 C 
HETATM    8  C12 UNL     1      -0.051   2.560 -20.460  1.00  0.00     0.016 C 
HETATM    9  C13 UNL     1      -1.249   0.349 -20.115  1.00  0.00     0.005 C 
HETATM   10  C14 UNL     1      -0.104  -0.517 -19.633  1.00  0.00     0.007 C 
HETATM   11  C15 UNL     1       0.398  -1.251 -20.874  1.00  0.00     0.011 C 
HETATM   12  C16 UNL     1       0.951  -0.190 -21.810  1.00  0.00    -0.021 C 
HETATM   13  C17 UNL     1       2.171   0.365 -21.165  1.00  0.00     0.017 C 
HETATM   14  C18 UNL     1      -0.079   0.806 -22.183  1.00  0.00     0.077 C 
HETATM   15  C19 UNL     1       0.485   1.765 -23.140  1.00  0.00     0.155 C 
HETATM   16  O5  UNL     1      -0.040   2.879 -23.326  1.00  0.00    -0.293 OA
HETATM   17  C20 UNL     1       1.682   1.396 -23.880  1.00  0.00     0.054 C 
HETATM   18  C21 UNL     1       2.153   0.149 -23.885  1.00  0.00    -0.062 C 
HETATM   19  C22 UNL     1       3.391  -0.114 -24.680  1.00  0.00     0.025 C 
HETATM   20  C23 UNL     1       3.053   0.220 -26.092  1.00  0.00     0.030 C 
HETATM   21  C24 UNL     1       4.197  -0.089 -27.003  1.00  0.00     0.045 C 
HETATM   22  C25 UNL     1       3.677   0.081 -28.444  1.00  0.00     0.027 C 
HETATM   23  C27 UNL     1       4.550  -1.530 -26.850  1.00  0.00     0.021 C 
HETATM   24  C28 UNL     1       4.881  -1.972 -25.479  1.00  0.00     0.011 C 
HETATM   25  C29 UNL     1       3.984  -1.430 -24.407  1.00  0.00    -0.036 C 
HETATM   26  C30 UNL     1       4.825  -1.362 -23.147  1.00  0.00     0.016 C 
HETATM   27  C31 UNL     1       2.899  -2.481 -24.139  1.00  0.00     0.011 C 
HETATM   28  C32 UNL     1       2.143  -2.128 -22.911  1.00  0.00     0.015 C 
HETATM   29  C33 UNL     1       1.403  -0.857 -23.117  1.00  0.00    -0.012 C 
HETATM   30  C34 UNL     1       0.168  -1.185 -23.969  1.00  0.00     0.021 C 
ENDROOT
BRANCH   4  31
HETATM   31  O1  UNL     1      -3.721   2.609 -19.064  1.00  0.00    -0.315 OA
BRANCH  31  32
HETATM   32  C5  UNL     1      -5.002   2.998 -18.729  1.00  0.00     0.259 C 
HETATM   33  O2  UNL     1      -5.320   3.035 -17.489  1.00  0.00    -0.265 OA
BRANCH  32  34
HETATM   34  C6  UNL     1      -6.055   3.383 -19.716  1.00  0.00     0.121 C 
BRANCH  34  35
HETATM   35  C7  UNL     1      -5.752   4.828 -20.106  1.00  0.00     0.123 C 
BRANCH  35  36
HETATM   36  C8  UNL     1      -4.752   4.854 -21.193  1.00  0.00     0.172 C 
HETATM   37  O3  UNL     1      -3.647   5.427 -20.985  1.00  0.00    -0.648 OA
HETATM   38  O4  UNL     1      -5.066   4.244 -22.408  1.00  0.00    -0.648 OA
ENDBRANCH  35  36
ENDBRANCH  34  35
ENDBRANCH  32  34
ENDBRANCH  31  32
ENDBRANCH   4  31
BRANCH  21  39
HETATM   39  C26 UNL     1       5.317   0.846 -26.810  1.00  0.00     0.181 C 
HETATM   40  O6  UNL     1       5.124   2.072 -26.935  1.00  0.00    -0.647 OA
HETATM   41  O7  UNL     1       6.605   0.439 -26.492  1.00  0.00    -0.647 OA
ENDBRANCH  21  39
TORSDOF 6
ENDMDL
