MODEL 9
REMARK VINA RESULT: -8.330289660      5.101     10.934
REMARK  6 active torsions:
REMARK  status: ('A' for Active; 'I' for Inactive)
REMARK    1  A    between atoms: C4_4  and  O1_5 
REMARK    2  A    between atoms: O1_5  and  C5_6 
REMARK    3  A    between atoms: C5_6  and  C6_8 
REMARK    4  A    between atoms: C6_8  and  C7_9 
REMARK    5  A    between atoms: C7_9  and  C8_10 
REMARK    6  A    between atoms: C24_29  and  C26_31 
ROOT
HETATM    1  C1  UNL     1       5.405  -0.981 -21.364  1.00  0.00     0.018 C 
HETATM    2  C2  UNL     1       4.398  -1.156 -22.514  1.00  0.00    -0.017 C 
HETATM    3  C3  UNL     1       4.332  -2.622 -22.789  1.00  0.00     0.018 C 
HETATM    4  C4  UNL     1       4.917  -0.430 -23.701  1.00  0.00     0.140 C 
HETATM    5  C9  UNL     1       4.006   0.692 -24.119  1.00  0.00     0.034 C 
HETATM    6  C10 UNL     1       2.585   0.271 -24.287  1.00  0.00     0.013 C 
HETATM    7  C11 UNL     1       2.033  -0.477 -23.062  1.00  0.00    -0.028 C 
HETATM    8  C12 UNL     1       1.488  -1.767 -23.532  1.00  0.00     0.016 C 
HETATM    9  C13 UNL     1       3.129  -0.509 -22.061  1.00  0.00     0.005 C 
HETATM   10  C14 UNL     1       2.680  -0.964 -20.688  1.00  0.00     0.007 C 
HETATM   11  C15 UNL     1       1.747   0.135 -20.184  1.00  0.00     0.011 C 
HETATM   12  C16 UNL     1       0.544   0.141 -21.112  1.00  0.00    -0.021 C 
HETATM   13  C17 UNL     1      -0.190  -1.131 -20.880  1.00  0.00     0.017 C 
HETATM   14  C18 UNL     1       0.934   0.402 -22.516  1.00  0.00     0.077 C 
HETATM   15  C19 UNL     1      -0.266   0.468 -23.357  1.00  0.00     0.155 C 
HETATM   16  O5  UNL     1      -0.199   0.317 -24.593  1.00  0.00    -0.293 OA
HETATM   17  C20 UNL     1      -1.553   0.715 -22.725  1.00  0.00     0.054 C 
HETATM   18  C21 UNL     1      -1.653   1.099 -21.454  1.00  0.00    -0.062 C 
HETATM   19  C22 UNL     1      -3.027   1.323 -20.911  1.00  0.00     0.025 C 
HETATM   20  C23 UNL     1      -3.625   2.412 -21.733  1.00  0.00     0.030 C 
HETATM   21  C24 UNL     1      -4.979   2.786 -21.223  1.00  0.00     0.045 C 
HETATM   22  C25 UNL     1      -5.410   4.050 -21.993  1.00  0.00     0.027 C 
HETATM   23  C27 UNL     1      -4.853   3.187 -19.792  1.00  0.00     0.021 C 
HETATM   24  C28 UNL     1      -4.249   2.183 -18.891  1.00  0.00     0.011 C 
HETATM   25  C29 UNL     1      -3.053   1.471 -19.449  1.00  0.00    -0.036 C 
HETATM   26  C30 UNL     1      -3.033   0.103 -18.794  1.00  0.00     0.016 C 
HETATM   27  C31 UNL     1      -1.804   2.204 -18.945  1.00  0.00     0.011 C 
HETATM   28  C32 UNL     1      -0.591   1.400 -19.237  1.00  0.00     0.015 C 
HETATM   29  C33 UNL     1      -0.400   1.281 -20.704  1.00  0.00    -0.012 C 
HETATM   30  C34 UNL     1       0.179   2.616 -21.195  1.00  0.00     0.021 C 
ENDROOT
BRANCH   4  31
HETATM   31  O1  UNL     1       5.186  -1.340 -24.782  1.00  0.00    -0.315 OA
BRANCH  31  32
HETATM   32  C5  UNL     1       5.445  -0.917 -26.069  1.00  0.00     0.259 C 
HETATM   33  O2  UNL     1       6.542  -0.295 -26.294  1.00  0.00    -0.265 OA
BRANCH  32  34
HETATM   34  C6  UNL     1       4.531  -1.132 -27.231  1.00  0.00     0.121 C 
BRANCH  34  35
HETATM   35  C7  UNL     1       4.200   0.260 -27.763  1.00  0.00     0.123 C 
BRANCH  35  36
HETATM   36  C8  UNL     1       2.852   0.258 -28.366  1.00  0.00     0.172 C 
HETATM   37  O3  UNL     1       2.656  -0.428 -29.407  1.00  0.00    -0.648 OA
HETATM   38  O4  UNL     1       1.846   1.014 -27.763  1.00  0.00    -0.648 OA
ENDBRANCH  35  36
ENDBRANCH  34  35
ENDBRANCH  32  34
ENDBRANCH  31  32
ENDBRANCH   4  31
BRANCH  21  39
HETATM   39  C26 UNL     1      -5.972   1.732 -21.486  1.00  0.00     0.181 C 
HETATM   40  O6  UNL     1      -7.059   2.030 -22.019  1.00  0.00    -0.647 OA
HETATM   41  O7  UNL     1      -5.770   0.396 -21.167  1.00  0.00    -0.647 OA
ENDBRANCH  21  39
TORSDOF 6
ENDMDL
