MODEL 5
REMARK VINA RESULT: -9.334963280      4.842      9.415
REMARK  6 active torsions:
REMARK  status: ('A' for Active; 'I' for Inactive)
REMARK    1  A    between atoms: C4_4  and  O1_5 
REMARK    2  A    between atoms: O1_5  and  C5_6 
REMARK    3  A    between atoms: C5_6  and  C6_8 
REMARK    4  A    between atoms: C6_8  and  C7_9 
REMARK    5  A    between atoms: C7_9  and  C8_10 
REMARK    6  A    between atoms: C24_29  and  C26_31 
ROOT
HETATM    1  C1  UNL     1      -2.651  -0.254 -18.636  1.00  0.00     0.018 C 
HETATM    2  C2  UNL     1      -2.108   0.961 -19.408  1.00  0.00    -0.017 C 
HETATM    3  C3  UNL     1      -1.534   1.883 -18.383  1.00  0.00     0.018 C 
HETATM    4  C4  UNL     1      -3.244   1.610 -20.110  1.00  0.00     0.140 C 
HETATM    5  C9  UNL     1      -3.077   1.576 -21.605  1.00  0.00     0.034 C 
HETATM    6  C10 UNL     1      -1.755   2.088 -22.067  1.00  0.00     0.013 C 
HETATM    7  C11 UNL     1      -0.570   1.420 -21.351  1.00  0.00    -0.028 C 
HETATM    8  C12 UNL     1       0.271   2.491 -20.778  1.00  0.00     0.016 C 
HETATM    9  C13 UNL     1      -1.151   0.419 -20.421  1.00  0.00     0.005 C 
HETATM   10  C14 UNL     1      -0.126  -0.527 -19.833  1.00  0.00     0.007 C 
HETATM   11  C15 UNL     1       0.376  -1.361 -21.010  1.00  0.00     0.011 C 
HETATM   12  C16 UNL     1       1.083  -0.400 -21.950  1.00  0.00    -0.021 C 
HETATM   13  C17 UNL     1       2.310   0.067 -21.253  1.00  0.00     0.017 C 
HETATM   14  C18 UNL     1       0.177   0.669 -22.427  1.00  0.00     0.077 C 
HETATM   15  C19 UNL     1       0.886   1.526 -23.385  1.00  0.00     0.155 C 
HETATM   16  O5  UNL     1       0.482   2.675 -23.648  1.00  0.00    -0.293 OA
HETATM   17  C20 UNL     1       2.084   1.013 -24.032  1.00  0.00     0.054 C 
HETATM   18  C21 UNL     1       2.432  -0.271 -23.957  1.00  0.00    -0.062 C 
HETATM   19  C22 UNL     1       3.684  -0.685 -24.662  1.00  0.00     0.025 C 
HETATM   20  C23 UNL     1       3.464  -0.387 -26.105  1.00  0.00     0.030 C 
HETATM   21  C24 UNL     1       4.624  -0.843 -26.928  1.00  0.00     0.045 C 
HETATM   22  C25 UNL     1       4.209  -0.691 -28.405  1.00  0.00     0.027 C 
HETATM   23  C27 UNL     1       4.828  -2.303 -26.695  1.00  0.00     0.021 C 
HETATM   24  C28 UNL     1       5.033  -2.710 -25.290  1.00  0.00     0.011 C 
HETATM   25  C29 UNL     1       4.130  -2.037 -24.298  1.00  0.00    -0.036 C 
HETATM   26  C30 UNL     1       4.899  -1.990 -22.992  1.00  0.00     0.016 C 
HETATM   27  C31 UNL     1       2.936  -2.968 -24.058  1.00  0.00     0.011 C 
HETATM   28  C32 UNL     1       2.146  -2.490 -22.895  1.00  0.00     0.015 C 
HETATM   29  C33 UNL     1       1.545  -1.167 -23.198  1.00  0.00    -0.012 C 
HETATM   30  C34 UNL     1       0.337  -1.417 -24.113  1.00  0.00     0.021 C 
ENDROOT
BRANCH   4  31
HETATM   31  O1  UNL     1      -3.453   2.947 -19.620  1.00  0.00    -0.315 OA
BRANCH  31  32
HETATM   32  C5  UNL     1      -4.667   3.594 -19.709  1.00  0.00     0.259 C 
HETATM   33  O2  UNL     1      -5.516   3.426 -18.764  1.00  0.00    -0.265 OA
BRANCH  32  34
HETATM   34  C6  UNL     1      -5.071   4.486 -20.837  1.00  0.00     0.121 C 
BRANCH  34  35
HETATM   35  C7  UNL     1      -3.793   5.184 -21.294  1.00  0.00     0.123 C 
BRANCH  35  36
HETATM   36  C8  UNL     1      -4.132   6.438 -21.997  1.00  0.00     0.172 C 
HETATM   37  O3  UNL     1      -4.981   6.398 -22.931  1.00  0.00    -0.648 OA
HETATM   38  O4  UNL     1      -3.501   7.619 -21.604  1.00  0.00    -0.648 OA
ENDBRANCH  35  36
ENDBRANCH  34  35
ENDBRANCH  32  34
ENDBRANCH  31  32
ENDBRANCH   4  31
BRANCH  21  39
HETATM   39  C26 UNL     1       5.816  -0.009 -26.703  1.00  0.00     0.181 C 
HETATM   40  O6  UNL     1       5.714   1.234 -26.744  1.00  0.00    -0.647 OA
HETATM   41  O7  UNL     1       7.076  -0.531 -26.443  1.00  0.00    -0.647 OA
ENDBRANCH  21  39
TORSDOF 6
ENDMDL
