MODEL 7
REMARK VINA RESULT: -8.836333486      2.067      8.994
REMARK  6 active torsions:
REMARK  status: ('A' for Active; 'I' for Inactive)
REMARK    1  A    between atoms: C4_4  and  O1_5 
REMARK    2  A    between atoms: O1_5  and  C5_6 
REMARK    3  A    between atoms: C5_6  and  C6_8 
REMARK    4  A    between atoms: C6_8  and  C7_9 
REMARK    5  A    between atoms: C7_9  and  C8_10 
REMARK    6  A    between atoms: C24_29  and  C26_31 
ROOT
HETATM    1  C1  UNL     1      -2.729   0.193 -17.236  1.00  0.00     0.018 C 
HETATM    2  C2  UNL     1      -2.311   0.501 -18.684  1.00  0.00    -0.017 C 
HETATM    3  C3  UNL     1      -2.343  -0.803 -19.412  1.00  0.00     0.018 C 
HETATM    4  C4  UNL     1      -0.930   1.046 -18.662  1.00  0.00     0.140 C 
HETATM    5  C9  UNL     1      -0.874   2.459 -19.176  1.00  0.00     0.034 C 
HETATM    6  C10 UNL     1      -1.534   2.635 -20.502  1.00  0.00     0.013 C 
HETATM    7  C11 UNL     1      -2.967   2.079 -20.536  1.00  0.00    -0.028 C 
HETATM    8  C12 UNL     1      -3.056   1.136 -21.670  1.00  0.00     0.016 C 
HETATM    9  C13 UNL     1      -3.247   1.557 -19.175  1.00  0.00     0.005 C 
HETATM   10  C14 UNL     1      -4.706   1.221 -18.945  1.00  0.00     0.007 C 
HETATM   11  C15 UNL     1      -5.440   2.559 -18.989  1.00  0.00     0.011 C 
HETATM   12  C16 UNL     1      -5.281   3.093 -20.402  1.00  0.00    -0.021 C 
HETATM   13  C17 UNL     1      -6.055   2.194 -21.297  1.00  0.00     0.017 C 
HETATM   14  C18 UNL     1      -3.857   3.277 -20.764  1.00  0.00     0.077 C 
HETATM   15  C19 UNL     1      -3.760   3.860 -22.107  1.00  0.00     0.155 C 
HETATM   16  O5  UNL     1      -2.711   3.778 -22.773  1.00  0.00    -0.293 OA
HETATM   17  C20 UNL     1      -4.919   4.543 -22.660  1.00  0.00     0.054 C 
HETATM   18  C21 UNL     1      -5.981   4.850 -21.915  1.00  0.00    -0.062 C 
HETATM   19  C22 UNL     1      -7.114   5.552 -22.591  1.00  0.00     0.025 C 
HETATM   20  C23 UNL     1      -6.560   6.840 -23.095  1.00  0.00     0.030 C 
HETATM   21  C24 UNL     1      -7.631   7.675 -23.719  1.00  0.00     0.045 C 
HETATM   22  C25 UNL     1      -7.008   9.056 -24.004  1.00  0.00     0.027 C 
HETATM   23  C27 UNL     1      -8.707   7.899 -22.710  1.00  0.00     0.021 C 
HETATM   24  C28 UNL     1      -9.310   6.681 -22.129  1.00  0.00     0.011 C 
HETATM   25  C29 UNL     1      -8.334   5.600 -21.773  1.00  0.00    -0.036 C 
HETATM   26  C30 UNL     1      -9.088   4.290 -21.900  1.00  0.00     0.016 C 
HETATM   27  C31 UNL     1      -7.996   5.755 -20.285  1.00  0.00     0.011 C 
HETATM   28  C32 UNL     1      -7.249   4.565 -19.807  1.00  0.00     0.015 C 
HETATM   29  C33 UNL     1      -5.934   4.480 -20.492  1.00  0.00    -0.012 C 
HETATM   30  C34 UNL     1      -5.012   5.516 -19.831  1.00  0.00     0.021 C 
ENDROOT
BRANCH   4  31
HETATM   31  O1  UNL     1      -0.024   0.179 -19.366  1.00  0.00    -0.315 OA
BRANCH  31  32
HETATM   32  C5  UNL     1       0.577   0.532 -20.556  1.00  0.00     0.259 C 
HETATM   33  O2  UNL     1       1.482   1.437 -20.534  1.00  0.00    -0.265 OA
BRANCH  32  34
HETATM   34  C6  UNL     1       0.246  -0.069 -21.883  1.00  0.00     0.121 C 
BRANCH  34  35
HETATM   35  C7  UNL     1       0.715   0.941 -22.927  1.00  0.00     0.123 C 
BRANCH  35  36
HETATM   36  C8  UNL     1       0.347   0.473 -24.278  1.00  0.00     0.172 C 
HETATM   37  O3  UNL     1      -0.685  -0.243 -24.410  1.00  0.00    -0.648 OA
HETATM   38  O4  UNL     1       1.151   0.840 -25.357  1.00  0.00    -0.648 OA
ENDBRANCH  35  36
ENDBRANCH  34  35
ENDBRANCH  32  34
ENDBRANCH  31  32
ENDBRANCH   4  31
BRANCH  21  39
HETATM   39  C26 UNL     1      -8.090   7.109 -24.998  1.00  0.00     0.181 C 
HETATM   40  O6  UNL     1      -7.365   7.205 -26.008  1.00  0.00    -0.647 OA
HETATM   41  O7  UNL     1      -9.308   6.462 -25.153  1.00  0.00    -0.647 OA
ENDBRANCH  21  39
TORSDOF 6
ENDMDL
