MODEL 1
REMARK VINA RESULT: -10.679150790      0.000      0.000
REMARK  6 active torsions:
REMARK  status: ('A' for Active; 'I' for Inactive)
REMARK    1  A    between atoms: C4_4  and  O1_5 
REMARK    2  A    between atoms: O1_5  and  C5_6 
REMARK    3  A    between atoms: C5_6  and  C6_8 
REMARK    4  A    between atoms: C6_8  and  C7_9 
REMARK    5  A    between atoms: C7_9  and  C8_10 
REMARK    6  A    between atoms: C24_29  and  C26_31 
ROOT
HETATM    1  C1  UNL     1     -10.389   7.395 -23.225  1.00  0.00     0.018 C 
HETATM    2  C2  UNL     1      -8.928   7.874 -23.192  1.00  0.00    -0.017 C 
HETATM    3  C3  UNL     1      -8.914   9.108 -22.351  1.00  0.00     0.018 C 
HETATM    4  C4  UNL     1      -8.512   8.191 -24.581  1.00  0.00     0.140 C 
HETATM    5  C9  UNL     1      -7.388   7.306 -25.049  1.00  0.00     0.034 C 
HETATM    6  C10 UNL     1      -6.234   7.263 -24.105  1.00  0.00     0.013 C 
HETATM    7  C11 UNL     1      -6.652   6.931 -22.663  1.00  0.00    -0.028 C 
HETATM    8  C12 UNL     1      -6.120   7.993 -21.785  1.00  0.00     0.016 C 
HETATM    9  C13 UNL     1      -8.121   6.721 -22.689  1.00  0.00     0.005 C 
HETATM   10  C14 UNL     1      -8.668   6.116 -21.414  1.00  0.00     0.007 C 
HETATM   11  C15 UNL     1      -8.091   4.703 -21.357  1.00  0.00     0.011 C 
HETATM   12  C16 UNL     1      -6.586   4.855 -21.218  1.00  0.00    -0.021 C 
HETATM   13  C17 UNL     1      -6.331   5.434 -19.872  1.00  0.00     0.017 C 
HETATM   14  C18 UNL     1      -6.001   5.604 -22.353  1.00  0.00     0.077 C 
HETATM   15  C19 UNL     1      -4.542   5.662 -22.207  1.00  0.00     0.155 C 
HETATM   16  O5  UNL     1      -3.865   6.517 -22.810  1.00  0.00    -0.293 OA
HETATM   17  C20 UNL     1      -3.886   4.697 -21.338  1.00  0.00     0.054 C 
HETATM   18  C21 UNL     1      -4.526   3.636 -20.849  1.00  0.00    -0.062 C 
HETATM   19  C22 UNL     1      -3.751   2.712 -19.967  1.00  0.00     0.025 C 
HETATM   20  C23 UNL     1      -2.631   2.188 -20.799  1.00  0.00     0.030 C 
HETATM   21  C24 UNL     1      -1.830   1.178 -20.043  1.00  0.00     0.045 C 
HETATM   22  C25 UNL     1      -0.849   0.546 -21.049  1.00  0.00     0.027 C 
HETATM   23  C27 UNL     1      -2.742   0.084 -19.600  1.00  0.00     0.021 C 
HETATM   24  C28 UNL     1      -3.902   0.501 -18.784  1.00  0.00     0.011 C 
HETATM   25  C29 UNL     1      -4.598   1.740 -19.262  1.00  0.00    -0.036 C 
HETATM   26  C30 UNL     1      -5.203   2.386 -18.030  1.00  0.00     0.016 C 
HETATM   27  C31 UNL     1      -5.778   1.299 -20.135  1.00  0.00     0.011 C 
HETATM   28  C32 UNL     1      -6.662   2.458 -20.418  1.00  0.00     0.015 C 
HETATM   29  C33 UNL     1      -5.936   3.464 -21.234  1.00  0.00    -0.012 C 
HETATM   30  C34 UNL     1      -5.904   2.939 -22.677  1.00  0.00     0.021 C 
ENDROOT
BRANCH   4  31
HETATM   31  O1  UNL     1      -8.192   9.587 -24.715  1.00  0.00    -0.315 OA
BRANCH  31  32
HETATM   32  C5  UNL     1      -8.629  10.356 -25.774  1.00  0.00     0.259 C 
HETATM   33  O2  UNL     1      -9.815  10.838 -25.725  1.00  0.00    -0.265 OA
BRANCH  32  34
HETATM   34  C6  UNL     1      -7.813  10.672 -26.985  1.00  0.00     0.121 C 
BRANCH  34  35
HETATM   35  C7  UNL     1      -6.380  10.841 -26.489  1.00  0.00     0.123 C 
BRANCH  35  36
HETATM   36  C8  UNL     1      -5.536   9.748 -27.012  1.00  0.00     0.172 C 
HETATM   37  O3  UNL     1      -4.389   9.577 -26.513  1.00  0.00    -0.648 OA
HETATM   38  O4  UNL     1      -6.038   8.945 -28.037  1.00  0.00    -0.648 OA
ENDBRANCH  35  36
ENDBRANCH  34  35
ENDBRANCH  32  34
ENDBRANCH  31  32
ENDBRANCH   4  31
BRANCH  21  39
HETATM   39  C26 UNL     1      -1.042   1.800 -18.967  1.00  0.00     0.181 C 
HETATM   40  O6  UNL     1      -0.078   2.536 -19.258  1.00  0.00    -0.647 OA
HETATM   41  O7  UNL     1      -1.310   1.613 -17.618  1.00  0.00    -0.647 OA
ENDBRANCH  21  39
TORSDOF 6
ENDMDL
