MODEL 2
REMARK VINA RESULT: -9.738317934      4.979      9.652
REMARK  6 active torsions:
REMARK  status: ('A' for Active; 'I' for Inactive)
REMARK    1  A    between atoms: C4_4  and  O1_5 
REMARK    2  A    between atoms: O1_5  and  C5_6 
REMARK    3  A    between atoms: C5_6  and  C6_8 
REMARK    4  A    between atoms: C6_8  and  C7_9 
REMARK    5  A    between atoms: C7_9  and  C8_10 
REMARK    6  A    between atoms: C24_29  and  C26_31 
ROOT
HETATM    1  C1  UNL     1      -2.681  -0.358 -18.463  1.00  0.00     0.018 C 
HETATM    2  C2  UNL     1      -2.206   0.891 -19.226  1.00  0.00    -0.017 C 
HETATM    3  C3  UNL     1      -1.673   1.830 -18.195  1.00  0.00     0.018 C 
HETATM    4  C4  UNL     1      -3.380   1.489 -19.913  1.00  0.00     0.140 C 
HETATM    5  C9  UNL     1      -3.223   1.478 -21.409  1.00  0.00     0.034 C 
HETATM    6  C10 UNL     1      -1.932   2.063 -21.875  1.00  0.00     0.013 C 
HETATM    7  C11 UNL     1      -0.709   1.448 -21.175  1.00  0.00    -0.028 C 
HETATM    8  C12 UNL     1       0.081   2.554 -20.597  1.00  0.00     0.016 C 
HETATM    9  C13 UNL     1      -1.232   0.410 -20.252  1.00  0.00     0.005 C 
HETATM   10  C14 UNL     1      -0.155  -0.489 -19.681  1.00  0.00     0.007 C 
HETATM   11  C15 UNL     1       0.380  -1.284 -20.871  1.00  0.00     0.011 C 
HETATM   12  C16 UNL     1       1.029  -0.279 -21.806  1.00  0.00    -0.021 C 
HETATM   13  C17 UNL     1       2.236   0.243 -21.113  1.00  0.00     0.017 C 
HETATM   14  C18 UNL     1       0.067   0.748 -22.265  1.00  0.00     0.077 C 
HETATM   15  C19 UNL     1       0.723   1.649 -23.218  1.00  0.00     0.155 C 
HETATM   16  O5  UNL     1       0.259   2.779 -23.466  1.00  0.00    -0.293 OA
HETATM   17  C20 UNL     1       1.941   1.205 -23.880  1.00  0.00     0.054 C 
HETATM   18  C21 UNL     1       2.355  -0.060 -23.821  1.00  0.00    -0.062 C 
HETATM   19  C22 UNL     1       3.620  -0.403 -24.539  1.00  0.00     0.025 C 
HETATM   20  C23 UNL     1       3.374  -0.101 -25.977  1.00  0.00     0.030 C 
HETATM   21  C24 UNL     1       4.549  -0.489 -26.814  1.00  0.00     0.045 C 
HETATM   22  C25 UNL     1       4.115  -0.343 -28.286  1.00  0.00     0.027 C 
HETATM   23  C27 UNL     1       4.829  -1.938 -26.599  1.00  0.00     0.021 C 
HETATM   24  C28 UNL     1       5.065  -2.349 -25.199  1.00  0.00     0.011 C 
HETATM   25  C29 UNL     1       4.138  -1.734 -24.194  1.00  0.00    -0.036 C 
HETATM   26  C30 UNL     1       4.913  -1.661 -22.893  1.00  0.00     0.016 C 
HETATM   27  C31 UNL     1       2.994  -2.727 -23.955  1.00  0.00     0.011 C 
HETATM   28  C32 UNL     1       2.190  -2.302 -22.781  1.00  0.00     0.015 C 
HETATM   29  C33 UNL     1       1.520  -1.008 -23.066  1.00  0.00    -0.012 C 
HETATM   30  C34 UNL     1       0.319  -1.309 -23.974  1.00  0.00     0.021 C 
ENDROOT
BRANCH   4  31
HETATM   31  O1  UNL     1      -3.653   2.808 -19.407  1.00  0.00    -0.315 OA
BRANCH  31  32
HETATM   32  C5  UNL     1      -4.897   3.192 -18.954  1.00  0.00     0.259 C 
HETATM   33  O2  UNL     1      -5.242   2.856 -17.767  1.00  0.00    -0.265 OA
BRANCH  32  34
HETATM   34  C6  UNL     1      -5.883   3.980 -19.753  1.00  0.00     0.121 C 
BRANCH  34  35
HETATM   35  C7  UNL     1      -6.931   4.469 -18.756  1.00  0.00     0.123 C 
BRANCH  35  36
HETATM   36  C8  UNL     1      -6.786   5.924 -18.551  1.00  0.00     0.172 C 
HETATM   37  O3  UNL     1      -7.664   6.693 -19.033  1.00  0.00    -0.648 OA
HETATM   38  O4  UNL     1      -5.686   6.394 -17.834  1.00  0.00    -0.648 OA
ENDBRANCH  35  36
ENDBRANCH  34  35
ENDBRANCH  32  34
ENDBRANCH  31  32
ENDBRANCH   4  31
BRANCH  21  39
HETATM   39  C26 UNL     1       5.699   0.403 -26.588  1.00  0.00     0.181 C 
HETATM   40  O6  UNL     1       5.630   1.597 -26.944  1.00  0.00    -0.647 OA
HETATM   41  O7  UNL     1       6.881  -0.012 -25.992  1.00  0.00    -0.647 OA
ENDBRANCH  21  39
TORSDOF 6
ENDMDL
