MODEL 3
REMARK VINA RESULT: -9.681777179      5.100      9.627
REMARK  6 active torsions:
REMARK  status: ('A' for Active; 'I' for Inactive)
REMARK    1  A    between atoms: C4_4  and  O1_5 
REMARK    2  A    between atoms: O1_5  and  C5_6 
REMARK    3  A    between atoms: C5_6  and  C6_8 
REMARK    4  A    between atoms: C6_8  and  C7_9 
REMARK    5  A    between atoms: C7_9  and  C8_10 
REMARK    6  A    between atoms: C24_29  and  C26_31 
ROOT
HETATM    1  C1  UNL     1      -2.676  -0.375 -18.443  1.00  0.00     0.018 C 
HETATM    2  C2  UNL     1      -2.208   0.879 -19.201  1.00  0.00    -0.017 C 
HETATM    3  C3  UNL     1      -1.662   1.810 -18.168  1.00  0.00     0.018 C 
HETATM    4  C4  UNL     1      -3.388   1.484 -19.870  1.00  0.00     0.140 C 
HETATM    5  C9  UNL     1      -3.248   1.485 -21.367  1.00  0.00     0.034 C 
HETATM    6  C10 UNL     1      -1.961   2.071 -21.843  1.00  0.00     0.013 C 
HETATM    7  C11 UNL     1      -0.731   1.449 -21.162  1.00  0.00    -0.028 C 
HETATM    8  C12 UNL     1       0.066   2.550 -20.583  1.00  0.00     0.016 C 
HETATM    9  C13 UNL     1      -1.245   0.404 -20.241  1.00  0.00     0.005 C 
HETATM   10  C14 UNL     1      -0.164  -0.500 -19.689  1.00  0.00     0.007 C 
HETATM   11  C15 UNL     1       0.357  -1.286 -20.891  1.00  0.00     0.011 C 
HETATM   12  C16 UNL     1       0.998  -0.275 -21.825  1.00  0.00    -0.021 C 
HETATM   13  C17 UNL     1       2.213   0.240 -21.141  1.00  0.00     0.017 C 
HETATM   14  C18 UNL     1       0.031   0.757 -22.265  1.00  0.00     0.077 C 
HETATM   15  C19 UNL     1       0.679   1.665 -23.219  1.00  0.00     0.155 C 
HETATM   16  O5  UNL     1       0.214   2.797 -23.453  1.00  0.00    -0.293 OA
HETATM   17  C20 UNL     1       1.888   1.224 -23.897  1.00  0.00     0.054 C 
HETATM   18  C21 UNL     1       2.301  -0.042 -23.853  1.00  0.00    -0.062 C 
HETATM   19  C22 UNL     1       3.558  -0.380 -24.587  1.00  0.00     0.025 C 
HETATM   20  C23 UNL     1       3.296  -0.067 -26.020  1.00  0.00     0.030 C 
HETATM   21  C24 UNL     1       4.462  -0.450 -26.873  1.00  0.00     0.045 C 
HETATM   22  C25 UNL     1       4.012  -0.292 -28.339  1.00  0.00     0.027 C 
HETATM   23  C27 UNL     1       4.742  -1.901 -26.672  1.00  0.00     0.021 C 
HETATM   24  C28 UNL     1       4.993  -2.324 -25.278  1.00  0.00     0.011 C 
HETATM   25  C29 UNL     1       4.077  -1.715 -24.258  1.00  0.00    -0.036 C 
HETATM   26  C30 UNL     1       4.867  -1.653 -22.965  1.00  0.00     0.016 C 
HETATM   27  C31 UNL     1       2.935  -2.709 -24.014  1.00  0.00     0.011 C 
HETATM   28  C32 UNL     1       2.144  -2.292 -22.829  1.00  0.00     0.015 C 
HETATM   29  C33 UNL     1       1.474  -0.995 -23.096  1.00  0.00    -0.012 C 
HETATM   30  C34 UNL     1       0.262  -1.287 -23.993  1.00  0.00     0.021 C 
ENDROOT
BRANCH   4  31
HETATM   31  O1  UNL     1      -3.653   2.799 -19.351  1.00  0.00    -0.315 OA
BRANCH  31  32
HETATM   32  C5  UNL     1      -4.918   3.223 -18.998  1.00  0.00     0.259 C 
HETATM   33  O2  UNL     1      -5.252   3.175 -17.763  1.00  0.00    -0.265 OA
BRANCH  32  34
HETATM   34  C6  UNL     1      -5.937   3.739 -19.961  1.00  0.00     0.121 C 
BRANCH  34  35
HETATM   35  C7  UNL     1      -7.060   2.705 -19.971  1.00  0.00     0.123 C 
BRANCH  35  36
HETATM   36  C8  UNL     1      -7.407   2.356 -21.364  1.00  0.00     0.172 C 
HETATM   37  O3  UNL     1      -6.735   1.461 -21.948  1.00  0.00    -0.648 OA
HETATM   38  O4  UNL     1      -8.462   3.028 -21.981  1.00  0.00    -0.648 OA
ENDBRANCH  35  36
ENDBRANCH  34  35
ENDBRANCH  32  34
ENDBRANCH  31  32
ENDBRANCH   4  31
BRANCH  21  39
HETATM   39  C26 UNL     1       5.615   0.439 -26.653  1.00  0.00     0.181 C 
HETATM   40  O6  UNL     1       5.537   1.640 -26.978  1.00  0.00    -0.647 OA
HETATM   41  O7  UNL     1       6.812   0.011 -26.094  1.00  0.00    -0.647 OA
ENDBRANCH  21  39
TORSDOF 6
ENDMDL
