MODEL 5
REMARK VINA RESULT: -6.510491133      1.126      1.616
REMARK  5 active torsions:
REMARK  status: ('A' for Active; 'I' for Inactive)
REMARK       I    between atoms: C1_2  and  N1_3 
REMARK       I    between atoms: C1_2  and  N2_7 
REMARK    1  A    between atoms: N1_3  and  O2_5 
REMARK    2  A    between atoms: N2_7  and  C2_9 
REMARK    3  A    between atoms: C2_9  and  C3_10 
REMARK    4  A    between atoms: C2_9  and  C10_17 
REMARK    5  A    between atoms: C3_10  and  C4_11 
ROOT
HETATM    1  C2  UNL     1      -1.140  30.471  -7.435  1.00  0.00     0.191 C 
ENDROOT
BRANCH   1   2
HETATM    2  N2  UNL     1      -1.474  29.606  -6.326  1.00  0.00    -0.327 N 
HETATM    3  C1  UNL     1      -2.377  29.945  -5.289  1.00  0.00     0.340 C 
HETATM    4  O1  UNL     1      -2.923  31.076  -5.338  1.00  0.00    -0.245 OA
HETATM    5  N1  UNL     1      -2.620  29.002  -4.251  1.00  0.00    -0.219 N 
ATOM      6  H1  UNL     1      -2.154  28.095  -4.250  1.00  0.00     0.199 HD
ATOM      7  H2  UNL     1      -1.028  28.690  -6.287  1.00  0.00     0.165 HD
BRANCH   5   8
HETATM    8  O2  UNL     1      -3.490  29.338  -3.260  1.00  0.00    -0.286 OA
ATOM      9  H2  UNL     1      -3.304  29.044  -2.376  1.00  0.00     0.244 HD
ENDBRANCH   5   8
ENDBRANCH   1   2
BRANCH   1  10
HETATM   10  C3  UNL     1      -1.063  29.574  -8.653  1.00  0.00     0.074 C 
BRANCH  10  11
HETATM   11  C4  UNL     1      -1.829  30.047  -9.804  1.00  0.00    -0.056 A 
HETATM   12  C5  UNL     1      -3.213  30.067  -9.685  1.00  0.00     0.007 A 
HETATM   13  C6  UNL     1      -3.975  30.501 -10.738  1.00  0.00     0.001 A 
HETATM   14  C7  UNL     1      -3.416  30.925 -11.926  1.00  0.00     0.000 A 
HETATM   15  C8  UNL     1      -2.042  30.900 -12.028  1.00  0.00     0.001 A 
HETATM   16  C9  UNL     1      -1.251  30.470 -10.991  1.00  0.00     0.007 A 
ENDBRANCH  10  11
ENDBRANCH   1  10
BRANCH   1  17
HETATM   17  C10 UNL     1       0.136  31.150  -7.131  1.00  0.00     0.197 C 
HETATM   18  O3  UNL     1       0.984  30.573  -6.414  1.00  0.00    -0.646 OA
HETATM   19  O4  UNL     1       0.422  32.407  -7.615  1.00  0.00    -0.646 OA
ENDBRANCH   1  17
TORSDOF 5
ENDMDL
