MODEL 13
REMARK VINA RESULT: -6.353182367      1.487      1.775
REMARK  5 active torsions:
REMARK  status: ('A' for Active; 'I' for Inactive)
REMARK       I    between atoms: C1_2  and  N1_3 
REMARK       I    between atoms: C1_2  and  N2_7 
REMARK    1  A    between atoms: N1_3  and  O2_5 
REMARK    2  A    between atoms: N2_7  and  C2_9 
REMARK    3  A    between atoms: C2_9  and  C3_10 
REMARK    4  A    between atoms: C2_9  and  C10_17 
REMARK    5  A    between atoms: C3_10  and  C4_11 
ROOT
HETATM    1  C2  UNL     1      -1.748  31.366  -7.111  1.00  0.00     0.191 C 
ENDROOT
BRANCH   1   2
HETATM    2  N2  UNL     1      -3.044  31.228  -6.485  1.00  0.00    -0.327 N 
HETATM    3  C1  UNL     1      -3.264  31.244  -5.087  1.00  0.00     0.340 C 
HETATM    4  O1  UNL     1      -2.263  31.387  -4.340  1.00  0.00    -0.245 OA
HETATM    5  N1  UNL     1      -4.592  31.098  -4.596  1.00  0.00    -0.219 N 
ATOM      6  H1  UNL     1      -5.376  30.983  -5.238  1.00  0.00     0.199 HD
ATOM      7  H2  UNL     1      -3.855  31.110  -7.092  1.00  0.00     0.165 HD
BRANCH   5   8
HETATM    8  O2  UNL     1      -4.792  31.114  -3.250  1.00  0.00    -0.286 OA
ATOM      9  H2  UNL     1      -5.644  30.860  -2.916  1.00  0.00     0.244 HD
ENDBRANCH   5   8
ENDBRANCH   1   2
BRANCH   1  10
HETATM   10  C3  UNL     1      -1.946  32.322  -8.269  1.00  0.00     0.074 C 
BRANCH  10  11
HETATM   11  C4  UNL     1      -2.301  31.678  -9.532  1.00  0.00    -0.056 A 
HETATM   12  C5  UNL     1      -1.295  31.531 -10.479  1.00  0.00     0.007 A 
HETATM   13  C6  UNL     1      -1.579  30.935 -11.679  1.00  0.00     0.001 A 
HETATM   14  C7  UNL     1      -2.839  30.468 -11.990  1.00  0.00     0.000 A 
HETATM   15  C8  UNL     1      -3.827  30.621 -11.040  1.00  0.00     0.001 A 
HETATM   16  C9  UNL     1      -3.574  31.214  -9.829  1.00  0.00     0.007 A 
ENDBRANCH  10  11
ENDBRANCH   1  10
BRANCH   1  17
HETATM   17  C10 UNL     1      -1.289  30.027  -7.534  1.00  0.00     0.197 C 
HETATM   18  O3  UNL     1      -2.113  29.089  -7.606  1.00  0.00    -0.646 OA
HETATM   19  O4  UNL     1       0.028  29.780  -7.854  1.00  0.00    -0.646 OA
ENDBRANCH   1  17
TORSDOF 5
ENDMDL
