MODEL 2
REMARK VINA RESULT: -6.711242662      0.092      1.189
REMARK  5 active torsions:
REMARK  status: ('A' for Active; 'I' for Inactive)
REMARK       I    between atoms: C1_2  and  N1_3 
REMARK       I    between atoms: C1_2  and  N2_7 
REMARK    1  A    between atoms: N1_3  and  O2_5 
REMARK    2  A    between atoms: N2_7  and  C2_9 
REMARK    3  A    between atoms: C2_9  and  C3_10 
REMARK    4  A    between atoms: C2_9  and  C10_17 
REMARK    5  A    between atoms: C3_10  and  C4_11 
ROOT
HETATM    1  C2  UNL     1      -1.258  30.764  -7.204  1.00  0.00     0.191 C 
ENDROOT
BRANCH   1   2
HETATM    2  N2  UNL     1      -2.161  30.190  -6.232  1.00  0.00    -0.327 N 
HETATM    3  C1  UNL     1      -3.186  30.908  -5.568  1.00  0.00     0.340 C 
HETATM    4  O1  UNL     1      -3.316  32.127  -5.843  1.00  0.00    -0.245 OA
HETATM    5  N1  UNL     1      -4.010  30.225  -4.630  1.00  0.00    -0.219 N 
ATOM      6  H1  UNL     1      -3.868  29.234  -4.435  1.00  0.00     0.199 HD
ATOM      7  H2  UNL     1      -2.053  29.201  -6.008  1.00  0.00     0.165 HD
BRANCH   5   8
HETATM    8  O2  UNL     1      -4.991  30.925  -3.997  1.00  0.00    -0.286 OA
ATOM      9  H2  UNL     1      -5.550  30.465  -3.383  1.00  0.00     0.244 HD
ENDBRANCH   5   8
ENDBRANCH   1   2
BRANCH   1  10
HETATM   10  C3  UNL     1      -1.067  29.705  -8.269  1.00  0.00     0.074 C 
BRANCH  10  11
HETATM   11  C4  UNL     1      -1.616  30.055  -9.578  1.00  0.00    -0.056 A 
HETATM   12  C5  UNL     1      -2.973  29.832  -9.780  1.00  0.00     0.007 A 
HETATM   13  C6  UNL     1      -3.534  30.142 -10.991  1.00  0.00     0.001 A 
HETATM   14  C7  UNL     1      -2.798  30.674 -12.029  1.00  0.00     0.000 A 
HETATM   15  C8  UNL     1      -1.454  30.889 -11.812  1.00  0.00     0.001 A 
HETATM   16  C9  UNL     1      -0.862  30.589 -10.611  1.00  0.00     0.007 A 
ENDBRANCH  10  11
ENDBRANCH   1  10
BRANCH   1  17
HETATM   17  C10 UNL     1      -0.004  31.132  -6.516  1.00  0.00     0.197 C 
HETATM   18  O3  UNL     1       0.980  30.360  -6.576  1.00  0.00    -0.646 OA
HETATM   19  O4  UNL     1       0.117  32.306  -5.807  1.00  0.00    -0.646 OA
ENDBRANCH   1  17
TORSDOF 5
ENDMDL
