MODEL 1
REMARK VINA RESULT: -6.725263998      0.000      0.000
REMARK  5 active torsions:
REMARK  status: ('A' for Active; 'I' for Inactive)
REMARK       I    between atoms: C1_2  and  N1_3 
REMARK       I    between atoms: C1_2  and  N2_7 
REMARK    1  A    between atoms: N1_3  and  O2_5 
REMARK    2  A    between atoms: N2_7  and  C2_9 
REMARK    3  A    between atoms: C2_9  and  C3_10 
REMARK    4  A    between atoms: C2_9  and  C10_17 
REMARK    5  A    between atoms: C3_10  and  C4_11 
ROOT
HETATM    1  C2  UNL     1      -1.232  30.806  -7.144  1.00  0.00     0.191 C 
ENDROOT
BRANCH   1   2
HETATM    2  N2  UNL     1      -2.151  30.227  -6.189  1.00  0.00    -0.327 N 
HETATM    3  C1  UNL     1      -3.182  30.943  -5.534  1.00  0.00     0.340 C 
HETATM    4  O1  UNL     1      -3.305  32.165  -5.802  1.00  0.00    -0.245 OA
HETATM    5  N1  UNL     1      -4.021  30.256  -4.612  1.00  0.00    -0.219 N 
ATOM      6  H1  UNL     1      -3.885  29.263  -4.423  1.00  0.00     0.199 HD
ATOM      7  H2  UNL     1      -2.048  29.236  -5.971  1.00  0.00     0.165 HD
BRANCH   5   8
HETATM    8  O2  UNL     1      -5.009  30.954  -3.989  1.00  0.00    -0.286 OA
ATOM      9  H2  UNL     1      -4.999  31.001  -3.040  1.00  0.00     0.244 HD
ENDBRANCH   5   8
ENDBRANCH   1   2
BRANCH   1  10
HETATM   10  C3  UNL     1      -1.031  29.754  -8.215  1.00  0.00     0.074 C 
BRANCH  10  11
HETATM   11  C4  UNL     1      -1.648  30.074  -9.501  1.00  0.00    -0.056 A 
HETATM   12  C5  UNL     1      -0.836  30.639 -10.476  1.00  0.00     0.007 A 
HETATM   13  C6  UNL     1      -1.369  30.958 -11.697  1.00  0.00     0.001 A 
HETATM   14  C7  UNL     1      -2.696  30.737 -12.002  1.00  0.00     0.000 A 
HETATM   15  C8  UNL     1      -3.489  30.176 -11.024  1.00  0.00     0.001 A 
HETATM   16  C9  UNL     1      -2.984  29.846  -9.791  1.00  0.00     0.007 A 
ENDBRANCH  10  11
ENDBRANCH   1  10
BRANCH   1  17
HETATM   17  C10 UNL     1       0.015  31.162  -6.436  1.00  0.00     0.197 C 
HETATM   18  O3  UNL     1       1.016  30.420  -6.543  1.00  0.00    -0.646 OA
HETATM   19  O4  UNL     1       0.108  32.294  -5.658  1.00  0.00    -0.646 OA
ENDBRANCH   1  17
TORSDOF 5
ENDMDL
