MODEL 6
REMARK VINA RESULT: -6.505076912      1.343      1.377
REMARK  5 active torsions:
REMARK  status: ('A' for Active; 'I' for Inactive)
REMARK       I    between atoms: C1_2  and  N1_3 
REMARK       I    between atoms: C1_2  and  N2_7 
REMARK    1  A    between atoms: N1_3  and  O2_5 
REMARK    2  A    between atoms: N2_7  and  C2_9 
REMARK    3  A    between atoms: C2_9  and  C3_10 
REMARK    4  A    between atoms: C2_9  and  C10_17 
REMARK    5  A    between atoms: C3_10  and  C4_11 
ROOT
HETATM    1  C2  UNL     1      -0.635  31.407  -7.175  1.00  0.00     0.191 C 
ENDROOT
BRANCH   1   2
HETATM    2  N2  UNL     1      -1.387  30.191  -6.959  1.00  0.00    -0.327 N 
HETATM    3  C1  UNL     1      -2.491  30.076  -6.081  1.00  0.00     0.340 C 
HETATM    4  O1  UNL     1      -2.839  31.102  -5.444  1.00  0.00    -0.245 OA
HETATM    5  N1  UNL     1      -3.147  28.819  -5.958  1.00  0.00    -0.219 N 
ATOM      6  H1  UNL     1      -2.830  28.010  -6.493  1.00  0.00     0.199 HD
ATOM      7  H2  UNL     1      -1.102  29.358  -7.475  1.00  0.00     0.165 HD
BRANCH   5   8
HETATM    8  O2  UNL     1      -4.207  28.720  -5.111  1.00  0.00    -0.286 OA
ATOM      9  H2  UNL     1      -4.333  27.906  -4.636  1.00  0.00     0.244 HD
ENDBRANCH   5   8
ENDBRANCH   1   2
BRANCH   1  10
HETATM   10  C3  UNL     1      -0.073  31.305  -8.577  1.00  0.00     0.074 C 
BRANCH  10  11
HETATM   11  C4  UNL     1      -1.084  31.216  -9.629  1.00  0.00    -0.056 A 
HETATM   12  C5  UNL     1      -0.761  30.483 -10.765  1.00  0.00     0.007 A 
HETATM   13  C6  UNL     1      -1.674  30.372 -11.779  1.00  0.00     0.001 A 
HETATM   14  C7  UNL     1      -2.918  30.965 -11.719  1.00  0.00     0.000 A 
HETATM   15  C8  UNL     1      -3.224  31.689 -10.586  1.00  0.00     0.001 A 
HETATM   16  C9  UNL     1      -2.330  31.819  -9.553  1.00  0.00     0.007 A 
ENDBRANCH  10  11
ENDBRANCH   1  10
BRANCH   1  17
HETATM   17  C10 UNL     1       0.409  31.501  -6.134  1.00  0.00     0.197 C 
HETATM   18  O3  UNL     1       1.410  30.753  -6.199  1.00  0.00    -0.646 OA
HETATM   19  O4  UNL     1       0.314  32.393  -5.089  1.00  0.00    -0.646 OA
ENDBRANCH   1  17
TORSDOF 5
ENDMDL
