MODEL 9
REMARK VINA RESULT: -6.463257131      4.541      6.527
REMARK  5 active torsions:
REMARK  status: ('A' for Active; 'I' for Inactive)
REMARK       I    between atoms: C1_2  and  N1_3 
REMARK       I    between atoms: C1_2  and  N2_7 
REMARK    1  A    between atoms: N1_3  and  O2_5 
REMARK    2  A    between atoms: N2_7  and  C2_9 
REMARK    3  A    between atoms: C2_9  and  C3_10 
REMARK    4  A    between atoms: C2_9  and  C10_17 
REMARK    5  A    between atoms: C3_10  and  C4_11 
ROOT
HETATM    1  C2  UNL     1      -2.531  30.390 -12.329  1.00  0.00     0.191 C 
ENDROOT
BRANCH   1   2
HETATM    2  N2  UNL     1      -1.186  30.150 -11.855  1.00  0.00    -0.327 N 
HETATM    3  C1  UNL     1      -0.073  29.900 -12.694  1.00  0.00     0.340 C 
HETATM    4  O1  UNL     1      -0.270  29.884 -13.935  1.00  0.00    -0.245 OA
HETATM    5  N1  UNL     1       1.202  29.679 -12.100  1.00  0.00    -0.219 N 
ATOM      6  H1  UNL     1       1.317  29.699 -11.087  1.00  0.00     0.199 HD
ATOM      7  H2  UNL     1      -1.028  30.161 -10.847  1.00  0.00     0.165 HD
BRANCH   5   8
HETATM    8  O2  UNL     1       2.264  29.439 -12.916  1.00  0.00    -0.286 OA
ATOM      9  H2  UNL     1       2.818  28.690 -12.730  1.00  0.00     0.244 HD
ENDBRANCH   5   8
ENDBRANCH   1   2
BRANCH   1  10
HETATM   10  C3  UNL     1      -3.155  31.351 -11.339  1.00  0.00     0.074 C 
BRANCH  10  11
HETATM   11  C4  UNL     1      -2.338  31.616 -10.156  1.00  0.00    -0.056 A 
HETATM   12  C5  UNL     1      -1.509  32.731 -10.189  1.00  0.00     0.007 A 
HETATM   13  C6  UNL     1      -0.723  33.021  -9.105  1.00  0.00     0.001 A 
HETATM   14  C7  UNL     1      -0.722  32.241  -7.967  1.00  0.00     0.000 A 
HETATM   15  C8  UNL     1      -1.549  31.139  -7.949  1.00  0.00     0.001 A 
HETATM   16  C9  UNL     1      -2.349  30.822  -9.020  1.00  0.00     0.007 A 
ENDBRANCH  10  11
ENDBRANCH   1  10
BRANCH   1  17
HETATM   17  C10 UNL     1      -3.236  29.094 -12.406  1.00  0.00     0.197 C 
HETATM   18  O3  UNL     1      -3.596  28.655 -13.522  1.00  0.00    -0.646 OA
HETATM   19  O4  UNL     1      -3.510  28.350 -11.281  1.00  0.00    -0.646 OA
ENDBRANCH   1  17
TORSDOF 5
ENDMDL
