MODEL 9
REMARK VINA RESULT: -9.560743801      3.652     11.610
REMARK  15 active torsions:
REMARK  status: ('A' for Active; 'I' for Inactive)
REMARK    1  A    between atoms: C1_2  and  C2_4 
REMARK    2  A    between atoms: N2_8  and  C6_9 
REMARK    3  A    between atoms: C7_11  and  C8_12 
REMARK    4  A    between atoms: C8_12  and  O3_13 
REMARK    5  A    between atoms: O3_13  and  P1_14 
REMARK    6  A    between atoms: P1_14  and  O6_17 
REMARK    7  A    between atoms: O6_17  and  P2_18 
REMARK    8  A    between atoms: P2_18  and  O9_21 
REMARK    9  A    between atoms: O9_21  and  C9_22 
REMARK   10  A    between atoms: C9_22  and  C10_23 
REMARK   11  A    between atoms: C11_25  and  N3_26 
REMARK   12  A    between atoms: C17_39  and  O11_40 
REMARK   13  A    between atoms: C18_42  and  O12_43 
REMARK   14  A    between atoms: C19_45  and  O13_46 
REMARK   15  A    between atoms: C20_48  and  O14_49 
ROOT
HETATM    1  P2  UNL     1      30.208  51.826  30.686  1.00  0.00     0.417 P 
HETATM    2  O7  UNL     1      29.831  50.746  29.717  1.00  0.00    -0.624 OA
HETATM    3  O8  UNL     1      29.969  53.328  29.822  1.00  0.00    -0.624 OA
ENDROOT
BRANCH   1   4
HETATM    4  O6  UNL     1      29.337  51.833  32.044  1.00  0.00    -0.180 OA
BRANCH   4   5
HETATM    5  P1  UNL     1      27.707  51.581  31.927  1.00  0.00     0.417 P 
HETATM    6  O4  UNL     1      27.064  52.221  30.772  1.00  0.00    -0.624 OA
HETATM    7  O5  UNL     1      26.964  52.415  33.331  1.00  0.00    -0.624 OA
BRANCH   5   8
HETATM    8  O3  UNL     1      27.335  50.004  32.168  1.00  0.00    -0.287 OA
BRANCH   8   9
HETATM    9  C8  UNL     1      27.285  49.631  33.529  1.00  0.00     0.216 C 
BRANCH   9  10
HETATM   10  C7  UNL     1      28.628  48.847  33.652  1.00  0.00     0.180 C 
HETATM   11  O2  UNL     1      28.661  48.211  34.868  1.00  0.00    -0.353 OA
HETATM   12  C6  UNL     1      29.054  46.900  34.732  1.00  0.00     0.259 C 
HETATM   13  C20 UNL     1      29.766  46.871  33.376  1.00  0.00     0.198 C 
HETATM   14  C19 UNL     1      28.843  47.852  32.593  1.00  0.00     0.182 C 
BRANCH  12  15
HETATM   15  N2  UNL     1      27.796  46.145  34.550  1.00  0.00    -0.336 N 
HETATM   16  C5  UNL     1      26.672  46.492  35.180  1.00  0.00     0.093 A 
HETATM   17  C4  UNL     1      25.540  45.685  35.073  1.00  0.00     0.018 A 
HETATM   18  C3  UNL     1      25.589  44.542  34.327  1.00  0.00     0.019 A 
HETATM   19  C2  UNL     1      26.760  44.216  33.697  1.00  0.00     0.044 A 
HETATM   20  C21 UNL     1      27.867  45.029  33.815  1.00  0.00     0.110 A 
BRANCH  19  21
HETATM   21  C1  UNL     1      26.877  42.989  32.932  1.00  0.00     0.266 C 
HETATM   22  N1  UNL     1      25.954  42.708  31.899  1.00  0.00    -0.057 NA
HETATM   23  O1  UNL     1      27.789  42.121  33.147  1.00  0.00    -0.271 OA
ENDBRANCH  19  21
ENDBRANCH  12  15
BRANCH  13  24
HETATM   24  O14 UNL     1      30.994  47.523  33.475  1.00  0.00    -0.388 OA
ATOM     25  H14 UNL     1      31.700  46.893  33.393  1.00  0.00     0.210 HD
ENDBRANCH  13  24
BRANCH  14  26
HETATM   26  O13 UNL     1      29.501  48.328  31.453  1.00  0.00    -0.390 OA
ATOM     27  H13 UNL     1      29.080  48.121  30.628  1.00  0.00     0.210 HD
ENDBRANCH  14  26
ENDBRANCH   9  10
ENDBRANCH   8   9
ENDBRANCH   5   8
ENDBRANCH   4   5
ENDBRANCH   1   4
BRANCH   1  28
HETATM   28  O9  UNL     1      31.931  51.759  30.816  1.00  0.00    -0.287 OA
BRANCH  28  29
HETATM   29  C9  UNL     1      32.148  50.442  31.341  1.00  0.00     0.216 C 
BRANCH  29  30
HETATM   30  C10 UNL     1      33.590  50.236  31.529  1.00  0.00     0.180 C 
HETATM   31  O10 UNL     1      34.298  51.112  30.660  1.00  0.00    -0.353 OA
HETATM   32  C11 UNL     1      35.617  50.803  31.053  1.00  0.00     0.262 C 
HETATM   33  C17 UNL     1      35.455  51.236  32.536  1.00  0.00     0.198 C 
HETATM   34  C18 UNL     1      34.137  50.480  32.870  1.00  0.00     0.182 C 
BRANCH  32  35
HETATM   35  N3  UNL     1      36.524  51.607  30.331  1.00  0.00    -0.297 N 
HETATM   36  C12 UNL     1      37.898  51.529  30.290  1.00  0.00     0.188 A 
HETATM   37  N4  UNL     1      38.397  52.465  29.481  1.00  0.00    -0.346 N 
HETATM   38  C13 UNL     1      37.330  53.155  28.981  1.00  0.00     0.119 A 
ATOM     39  H4  UNL     1      39.381  52.632  29.277  1.00  0.00     0.167 HD
HETATM   40  C14 UNL     1      37.268  54.213  28.121  1.00  0.00     0.148 A 
HETATM   41  C16 UNL     1      36.178  52.607  29.526  1.00  0.00     0.142 A 
HETATM   42  N5  UNL     1      38.447  54.752  27.533  1.00  0.00    -0.080 NA
HETATM   43  N6  UNL     1      36.077  54.746  27.803  1.00  0.00    -0.339 N 
HETATM   44  C15 UNL     1      34.953  54.246  28.323  1.00  0.00     0.183 A 
ATOM     45  H6  UNL     1      36.031  55.538  27.162  1.00  0.00     0.167 HD
HETATM   46  N7  UNL     1      35.019  53.179  29.177  1.00  0.00    -0.336 N 
ATOM     47  H7  UNL     1      34.152  52.806  29.564  1.00  0.00     0.168 HD
ENDBRANCH  32  35
BRANCH  33  48
HETATM   48  O11 UNL     1      36.505  50.919  33.325  1.00  0.00    -0.388 OA
ATOM     49  H11 UNL     1      36.448  50.057  33.722  1.00  0.00     0.210 HD
ENDBRANCH  33  48
BRANCH  34  50
HETATM   50  O12 UNL     1      34.563  49.241  33.441  1.00  0.00    -0.390 OA
ATOM     51  H12 UNL     1      34.992  48.717  32.775  1.00  0.00     0.210 HD
ENDBRANCH  34  50
ENDBRANCH  29  30
ENDBRANCH  28  29
ENDBRANCH   1  28
TORSDOF 15
ENDMDL
