MODEL 6
REMARK VINA RESULT: -9.716681040      3.572      5.529
REMARK  15 active torsions:
REMARK  status: ('A' for Active; 'I' for Inactive)
REMARK    1  A    between atoms: C1_2  and  C2_4 
REMARK    2  A    between atoms: N2_8  and  C6_9 
REMARK    3  A    between atoms: C7_11  and  C8_12 
REMARK    4  A    between atoms: C8_12  and  O3_13 
REMARK    5  A    between atoms: O3_13  and  P1_14 
REMARK    6  A    between atoms: P1_14  and  O6_17 
REMARK    7  A    between atoms: O6_17  and  P2_18 
REMARK    8  A    between atoms: P2_18  and  O9_21 
REMARK    9  A    between atoms: O9_21  and  C9_22 
REMARK   10  A    between atoms: C9_22  and  C10_23 
REMARK   11  A    between atoms: C11_25  and  N3_26 
REMARK   12  A    between atoms: C17_39  and  O11_40 
REMARK   13  A    between atoms: C18_42  and  O12_43 
REMARK   14  A    between atoms: C19_45  and  O13_46 
REMARK   15  A    between atoms: C20_48  and  O14_49 
ROOT
HETATM    1  P2  UNL     1      32.088  47.600  34.772  1.00  0.00     0.417 P 
HETATM    2  O7  UNL     1      32.286  46.866  33.479  1.00  0.00    -0.624 OA
HETATM    3  O8  UNL     1      32.445  46.433  36.026  1.00  0.00    -0.624 OA
ENDROOT
BRANCH   1   4
HETATM    4  O6  UNL     1      33.030  48.897  34.950  1.00  0.00    -0.180 OA
BRANCH   4   5
HETATM    5  P1  UNL     1      33.231  49.901  33.651  1.00  0.00     0.417 P 
HETATM    6  O4  UNL     1      34.338  49.539  32.756  1.00  0.00    -0.624 OA
HETATM    7  O5  UNL     1      33.734  51.490  34.313  1.00  0.00    -0.624 OA
BRANCH   5   8
HETATM    8  O3  UNL     1      31.798  50.216  32.923  1.00  0.00    -0.287 OA
BRANCH   8   9
HETATM    9  C8  UNL     1      31.743  49.812  31.571  1.00  0.00     0.216 C 
BRANCH   9  10
HETATM   10  C7  UNL     1      31.469  51.183  30.882  1.00  0.00     0.180 C 
HETATM   11  O2  UNL     1      30.536  51.003  29.890  1.00  0.00    -0.353 OA
HETATM   12  C6  UNL     1      29.551  51.961  29.956  1.00  0.00     0.259 C 
HETATM   13  C20 UNL     1      30.192  53.090  30.768  1.00  0.00     0.198 C 
HETATM   14  C19 UNL     1      30.991  52.231  31.793  1.00  0.00     0.182 C 
BRANCH  12  15
HETATM   15  N2  UNL     1      28.509  51.373  30.824  1.00  0.00    -0.336 N 
HETATM   16  C5  UNL     1      28.174  50.083  30.745  1.00  0.00     0.093 A 
HETATM   17  C4  UNL     1      27.106  49.597  31.498  1.00  0.00     0.018 A 
HETATM   18  C3  UNL     1      26.407  50.443  32.309  1.00  0.00     0.019 A 
HETATM   19  C2  UNL     1      26.776  51.761  32.363  1.00  0.00     0.044 A 
HETATM   20  C21 UNL     1      27.836  52.220  31.612  1.00  0.00     0.110 A 
BRANCH  19  21
HETATM   21  C1  UNL     1      26.034  52.708  33.173  1.00  0.00     0.266 C 
HETATM   22  N1  UNL     1      24.676  52.973  32.889  1.00  0.00    -0.057 NA
HETATM   23  O1  UNL     1      26.554  53.338  34.156  1.00  0.00    -0.271 OA
ENDBRANCH  19  21
ENDBRANCH  12  15
BRANCH  13  24
HETATM   24  O14 UNL     1      31.159  53.734  29.997  1.00  0.00    -0.388 OA
ATOM     25  H14 UNL     1      31.984  53.266  30.060  1.00  0.00     0.210 HD
ENDBRANCH  13  24
BRANCH  14  26
HETATM   26  O13 UNL     1      31.995  53.003  32.391  1.00  0.00    -0.390 OA
ATOM     27  H13 UNL     1      31.692  53.790  32.828  1.00  0.00     0.210 HD
ENDBRANCH  14  26
ENDBRANCH   9  10
ENDBRANCH   8   9
ENDBRANCH   5   8
ENDBRANCH   4   5
ENDBRANCH   1   4
BRANCH   1  28
HETATM   28  O9  UNL     1      30.379  47.797  34.942  1.00  0.00    -0.287 OA
BRANCH  28  29
HETATM   29  C9  UNL     1      29.905  47.519  33.618  1.00  0.00     0.216 C 
BRANCH  29  30
HETATM   30  C10 UNL     1      28.525  47.023  33.701  1.00  0.00     0.180 C 
HETATM   31  O10 UNL     1      28.533  45.608  33.550  1.00  0.00    -0.353 OA
HETATM   32  C11 UNL     1      27.157  45.353  33.731  1.00  0.00     0.262 C 
HETATM   33  C17 UNL     1      27.072  45.923  35.174  1.00  0.00     0.198 C 
HETATM   34  C18 UNL     1      27.786  47.285  34.943  1.00  0.00     0.182 C 
BRANCH  32  35
HETATM   35  N3  UNL     1      26.923  43.964  33.664  1.00  0.00    -0.297 N 
HETATM   36  C12 UNL     1      25.720  43.296  33.626  1.00  0.00     0.188 A 
HETATM   37  N4  UNL     1      25.917  41.979  33.555  1.00  0.00    -0.346 N 
HETATM   38  C13 UNL     1      27.270  41.788  33.536  1.00  0.00     0.119 A 
ATOM     39  H4  UNL     1      25.199  41.256  33.521  1.00  0.00     0.167 HD
HETATM   40  C14 UNL     1      28.016  40.647  33.481  1.00  0.00     0.148 A 
HETATM   41  C16 UNL     1      27.873  43.035  33.608  1.00  0.00     0.142 A 
HETATM   42  N5  UNL     1      27.397  39.370  33.369  1.00  0.00    -0.080 NA
HETATM   43  N6  UNL     1      29.356  40.723  33.510  1.00  0.00    -0.339 N 
HETATM   44  C15 UNL     1      29.963  41.910  33.591  1.00  0.00     0.183 A 
ATOM     45  H6  UNL     1      29.913  39.870  33.470  1.00  0.00     0.167 HD
HETATM   46  N7  UNL     1      29.212  43.053  33.637  1.00  0.00    -0.336 N 
ATOM     47  H7  UNL     1      29.690  43.952  33.696  1.00  0.00     0.168 HD
ENDBRANCH  32  35
BRANCH  33  48
HETATM   48  O11 UNL     1      25.814  46.020  35.659  1.00  0.00    -0.388 OA
ATOM     49  H11 UNL     1      25.689  46.727  36.281  1.00  0.00     0.210 HD
ENDBRANCH  33  48
BRANCH  34  50
HETATM   50  O12 UNL     1      26.730  48.212  34.682  1.00  0.00    -0.390 OA
ATOM     51  H12 UNL     1      25.913  47.862  35.017  1.00  0.00     0.210 HD
ENDBRANCH  34  50
ENDBRANCH  29  30
ENDBRANCH  28  29
ENDBRANCH   1  28
TORSDOF 15
ENDMDL
