MODEL 2
REMARK VINA RESULT: -10.174644309      1.361      3.426
REMARK  15 active torsions:
REMARK  status: ('A' for Active; 'I' for Inactive)
REMARK    1  A    between atoms: C1_2  and  C2_4 
REMARK    2  A    between atoms: N2_8  and  C6_9 
REMARK    3  A    between atoms: C7_11  and  C8_12 
REMARK    4  A    between atoms: C8_12  and  O3_13 
REMARK    5  A    between atoms: O3_13  and  P1_14 
REMARK    6  A    between atoms: P1_14  and  O6_17 
REMARK    7  A    between atoms: O6_17  and  P2_18 
REMARK    8  A    between atoms: P2_18  and  O9_21 
REMARK    9  A    between atoms: O9_21  and  C9_22 
REMARK   10  A    between atoms: C9_22  and  C10_23 
REMARK   11  A    between atoms: C11_25  and  N3_26 
REMARK   12  A    between atoms: C17_39  and  O11_40 
REMARK   13  A    between atoms: C18_42  and  O12_43 
REMARK   14  A    between atoms: C19_45  and  O13_46 
REMARK   15  A    between atoms: C20_48  and  O14_49 
ROOT
HETATM    1  P2  UNL     1      28.012  45.470  34.725  1.00  0.00     0.417 P 
HETATM    2  O7  UNL     1      29.180  44.809  35.393  1.00  0.00    -0.624 OA
HETATM    3  O8  UNL     1      27.369  46.582  35.912  1.00  0.00    -0.624 OA
ENDROOT
BRANCH   1   4
HETATM    4  O6  UNL     1      28.383  46.268  33.374  1.00  0.00    -0.180 OA
BRANCH   4   5
HETATM    5  P1  UNL     1      29.618  47.366  33.430  1.00  0.00     0.417 P 
HETATM    6  O4  UNL     1      30.961  46.794  33.275  1.00  0.00    -0.624 OA
HETATM    7  O5  UNL     1      29.636  48.021  35.100  1.00  0.00    -0.624 OA
BRANCH   5   8
HETATM    8  O3  UNL     1      29.287  48.674  32.501  1.00  0.00    -0.287 OA
BRANCH   8   9
HETATM    9  C8  UNL     1      28.223  49.466  32.988  1.00  0.00     0.216 C 
BRANCH   9  10
HETATM   10  C7  UNL     1      28.018  50.428  31.778  1.00  0.00     0.180 C 
HETATM   11  O2  UNL     1      28.726  51.582  32.003  1.00  0.00    -0.353 OA
HETATM   12  C6  UNL     1      29.455  51.942  30.894  1.00  0.00     0.259 C 
HETATM   13  C20 UNL     1      28.766  51.197  29.746  1.00  0.00     0.198 C 
HETATM   14  C19 UNL     1      28.431  49.867  30.484  1.00  0.00     0.182 C 
BRANCH  12  15
HETATM   15  N2  UNL     1      30.769  51.289  31.076  1.00  0.00    -0.336 N 
HETATM   16  C5  UNL     1      31.338  50.575  30.103  1.00  0.00     0.093 A 
HETATM   17  C4  UNL     1      32.519  49.878  30.354  1.00  0.00     0.018 A 
HETATM   18  C3  UNL     1      33.085  49.927  31.595  1.00  0.00     0.019 A 
HETATM   19  C2  UNL     1      32.471  50.668  32.571  1.00  0.00     0.044 A 
HETATM   20  C21 UNL     1      31.305  51.350  32.300  1.00  0.00     0.110 A 
BRANCH  19  21
HETATM   21  C1  UNL     1      33.008  50.713  33.918  1.00  0.00     0.266 C 
HETATM   22  N1  UNL     1      32.683  49.697  34.845  1.00  0.00    -0.057 NA
HETATM   23  O1  UNL     1      33.777  51.648  34.328  1.00  0.00    -0.271 OA
ENDBRANCH  19  21
ENDBRANCH  12  15
BRANCH  13  24
HETATM   24  O14 UNL     1      27.533  51.786  29.475  1.00  0.00    -0.388 OA
ATOM     25  H14 UNL     1      27.599  52.325  28.695  1.00  0.00     0.210 HD
ENDBRANCH  13  24
BRANCH  14  26
HETATM   26  O13 UNL     1      27.434  49.169  29.793  1.00  0.00    -0.390 OA
ATOM     27  H13 UNL     1      26.721  48.843  30.331  1.00  0.00     0.210 HD
ENDBRANCH  14  26
ENDBRANCH   9  10
ENDBRANCH   8   9
ENDBRANCH   5   8
ENDBRANCH   4   5
ENDBRANCH   1   4
BRANCH   1  28
HETATM   28  O9  UNL     1      26.771  44.267  34.654  1.00  0.00    -0.287 OA
BRANCH  28  29
HETATM   29  C9  UNL     1      26.652  44.032  33.245  1.00  0.00     0.216 C 
BRANCH  29  30
HETATM   30  C10 UNL     1      26.209  42.648  33.028  1.00  0.00     0.180 C 
HETATM   31  O10 UNL     1      25.958  42.456  31.641  1.00  0.00    -0.353 OA
HETATM   32  C11 UNL     1      25.628  41.084  31.659  1.00  0.00     0.262 C 
HETATM   33  C17 UNL     1      26.991  40.593  32.219  1.00  0.00     0.198 C 
HETATM   34  C18 UNL     1      27.133  41.575  33.417  1.00  0.00     0.182 C 
BRANCH  32  35
HETATM   35  N3  UNL     1      25.373  40.644  30.343  1.00  0.00    -0.297 N 
HETATM   36  C12 UNL     1      26.203  40.688  29.246  1.00  0.00     0.188 A 
HETATM   37  N4  UNL     1      25.598  40.164  28.179  1.00  0.00    -0.346 N 
HETATM   38  C13 UNL     1      24.359  39.764  28.593  1.00  0.00     0.119 A 
ATOM     39  H4  UNL     1      25.984  40.079  27.240  1.00  0.00     0.167 HD
HETATM   40  C14 UNL     1      23.331  39.178  27.913  1.00  0.00     0.148 A 
HETATM   41  C16 UNL     1      24.241  40.075  29.938  1.00  0.00     0.142 A 
HETATM   42  N5  UNL     1      23.465  38.824  26.540  1.00  0.00    -0.080 NA
HETATM   43  N6  UNL     1      22.179  38.908  28.547  1.00  0.00    -0.339 N 
HETATM   44  C15 UNL     1      22.034  39.208  29.841  1.00  0.00     0.183 A 
ATOM     45  H6  UNL     1      21.410  38.471  28.038  1.00  0.00     0.167 HD
HETATM   46  N7  UNL     1      23.070  39.788  30.520  1.00  0.00    -0.336 N 
ATOM     47  H7  UNL     1      22.945  40.008  31.509  1.00  0.00     0.168 HD
ENDBRANCH  32  35
BRANCH  33  48
HETATM   48  O11 UNL     1      27.013  39.284  32.556  1.00  0.00    -0.388 OA
ATOM     49  H11 UNL     1      27.881  38.942  32.738  1.00  0.00     0.210 HD
ENDBRANCH  33  48
BRANCH  34  50
HETATM   50  O12 UNL     1      26.595  40.867  34.536  1.00  0.00    -0.390 OA
ATOM     51  H12 UNL     1      26.968  41.214  35.337  1.00  0.00     0.210 HD
ENDBRANCH  34  50
ENDBRANCH  29  30
ENDBRANCH  28  29
ENDBRANCH   1  28
TORSDOF 15
ENDMDL
