MODEL 5
REMARK VINA RESULT: -9.789211970      5.019     10.617
REMARK  15 active torsions:
REMARK  status: ('A' for Active; 'I' for Inactive)
REMARK    1  A    between atoms: C1_2  and  C2_4 
REMARK    2  A    between atoms: N2_8  and  C6_9 
REMARK    3  A    between atoms: C7_11  and  C8_12 
REMARK    4  A    between atoms: C8_12  and  O3_13 
REMARK    5  A    between atoms: O3_13  and  P1_14 
REMARK    6  A    between atoms: P1_14  and  O6_17 
REMARK    7  A    between atoms: O6_17  and  P2_18 
REMARK    8  A    between atoms: P2_18  and  O9_21 
REMARK    9  A    between atoms: O9_21  and  C9_22 
REMARK   10  A    between atoms: C9_22  and  C10_23 
REMARK   11  A    between atoms: C11_25  and  N3_26 
REMARK   12  A    between atoms: C17_39  and  O11_40 
REMARK   13  A    between atoms: C18_42  and  O12_43 
REMARK   14  A    between atoms: C19_45  and  O13_46 
REMARK   15  A    between atoms: C20_48  and  O14_49 
ROOT
HETATM    1  P2  UNL     1      31.482  52.472  31.420  1.00  0.00     0.417 P 
HETATM    2  O7  UNL     1      31.771  53.403  30.281  1.00  0.00    -0.624 OA
HETATM    3  O8  UNL     1      31.826  53.391  32.867  1.00  0.00    -0.624 OA
ENDROOT
BRANCH   1   4
HETATM    4  O6  UNL     1      29.964  51.929  31.465  1.00  0.00    -0.180 OA
BRANCH   4   5
HETATM    5  P1  UNL     1      29.614  50.521  30.672  1.00  0.00     0.417 P 
HETATM    6  O4  UNL     1      29.957  50.515  29.244  1.00  0.00    -0.624 OA
HETATM    7  O5  UNL     1      27.826  50.373  30.670  1.00  0.00    -0.624 OA
BRANCH   5   8
HETATM    8  O3  UNL     1      30.113  49.219  31.531  1.00  0.00    -0.287 OA
BRANCH   8   9
HETATM    9  C8  UNL     1      29.700  49.234  32.882  1.00  0.00     0.216 C 
BRANCH   9  10
HETATM   10  C7  UNL     1      31.072  49.027  33.594  1.00  0.00     0.180 C 
HETATM   11  O2  UNL     1      30.844  48.648  34.893  1.00  0.00    -0.353 OA
HETATM   12  C6  UNL     1      31.623  47.568  35.239  1.00  0.00     0.259 C 
HETATM   13  C20 UNL     1      32.756  47.590  34.207  1.00  0.00     0.198 C 
HETATM   14  C19 UNL     1      31.938  48.027  32.955  1.00  0.00     0.182 C 
BRANCH  12  15
HETATM   15  N2  UNL     1      30.797  46.386  34.916  1.00  0.00    -0.336 N 
HETATM   16  C5  UNL     1      31.317  45.306  34.329  1.00  0.00     0.093 A 
HETATM   17  C4  UNL     1      30.482  44.261  33.934  1.00  0.00     0.018 A 
HETATM   18  C3  UNL     1      29.137  44.351  34.148  1.00  0.00     0.019 A 
HETATM   19  C2  UNL     1      28.638  45.475  34.750  1.00  0.00     0.044 A 
HETATM   20  C21 UNL     1      29.481  46.495  35.134  1.00  0.00     0.110 A 
BRANCH  19  21
HETATM   21  C1  UNL     1      27.211  45.638  34.956  1.00  0.00     0.266 C 
HETATM   22  N1  UNL     1      26.293  45.012  34.082  1.00  0.00    -0.057 NA
HETATM   23  O1  UNL     1      26.722  46.338  35.907  1.00  0.00    -0.271 OA
ENDBRANCH  19  21
ENDBRANCH  12  15
BRANCH  13  24
HETATM   24  O14 UNL     1      33.616  48.654  34.473  1.00  0.00    -0.388 OA
ATOM     25  H14 UNL     1      34.315  48.365  35.048  1.00  0.00     0.210 HD
ENDBRANCH  13  24
BRANCH  14  26
HETATM   26  O13 UNL     1      32.796  48.526  31.968  1.00  0.00    -0.390 OA
ATOM     27  H13 UNL     1      33.220  47.867  31.431  1.00  0.00     0.210 HD
ENDBRANCH  14  26
ENDBRANCH   9  10
ENDBRANCH   8   9
ENDBRANCH   5   8
ENDBRANCH   4   5
ENDBRANCH   1   4
BRANCH   1  28
HETATM   28  O9  UNL     1      32.768  51.315  31.417  1.00  0.00    -0.287 OA
BRANCH  28  29
HETATM   29  C9  UNL     1      33.451  51.614  32.642  1.00  0.00     0.216 C 
BRANCH  29  30
HETATM   30  C10 UNL     1      34.897  51.643  32.386  1.00  0.00     0.180 C 
HETATM   31  O10 UNL     1      35.394  50.309  32.399  1.00  0.00    -0.353 OA
HETATM   32  C11 UNL     1      36.741  50.567  32.069  1.00  0.00     0.262 C 
HETATM   33  C17 UNL     1      36.453  51.215  30.687  1.00  0.00     0.198 C 
HETATM   34  C18 UNL     1      35.346  52.221  31.114  1.00  0.00     0.182 C 
BRANCH  32  35
HETATM   35  N3  UNL     1      37.445  49.348  31.979  1.00  0.00    -0.297 N 
HETATM   36  C12 UNL     1      38.799  49.146  31.837  1.00  0.00     0.188 A 
HETATM   37  N4  UNL     1      39.077  47.842  31.799  1.00  0.00    -0.346 N 
HETATM   38  C13 UNL     1      37.886  47.186  31.928  1.00  0.00     0.119 A 
ATOM     39  H4  UNL     1      39.998  47.418  31.694  1.00  0.00     0.167 HD
HETATM   40  C14 UNL     1      37.591  45.854  31.943  1.00  0.00     0.148 A 
HETATM   41  C16 UNL     1      36.887  48.142  32.035  1.00  0.00     0.142 A 
HETATM   42  N5  UNL     1      38.620  44.873  31.871  1.00  0.00    -0.080 NA
HETATM   43  N6  UNL     1      36.313  45.454  32.050  1.00  0.00    -0.339 N 
HETATM   44  C15 UNL     1      35.330  46.354  32.142  1.00  0.00     0.183 A 
ATOM     45  H6  UNL     1      36.092  44.459  32.060  1.00  0.00     0.167 HD
HETATM   46  N7  UNL     1      35.631  47.688  32.135  1.00  0.00    -0.336 N 
ATOM     47  H7  UNL     1      34.870  48.363  32.209  1.00  0.00     0.168 HD
ENDBRANCH  32  35
BRANCH  33  48
HETATM   48  O11 UNL     1      37.533  51.778  30.102  1.00  0.00    -0.388 OA
ATOM     49  H11 UNL     1      37.373  52.638  29.730  1.00  0.00     0.210 HD
ENDBRANCH  33  48
BRANCH  34  50
HETATM   50  O12 UNL     1      36.042  53.443  31.367  1.00  0.00    -0.390 OA
ATOM     51  H12 UNL     1      36.617  53.637  30.635  1.00  0.00     0.210 HD
ENDBRANCH  34  50
ENDBRANCH  29  30
ENDBRANCH  28  29
ENDBRANCH   1  28
TORSDOF 15
ENDMDL
