MODEL 3
REMARK VINA RESULT: -7.560185492      3.747      5.733
REMARK  5 active torsions:
REMARK  status: ('A' for Active; 'I' for Inactive)
REMARK       I    between atoms: C1_2  and  N1_3 
REMARK       I    between atoms: C1_2  and  N2_7 
REMARK    1  A    between atoms: N1_3  and  O2_5 
REMARK    2  A    between atoms: N2_7  and  C2_9 
REMARK    3  A    between atoms: C2_9  and  C3_10 
REMARK    4  A    between atoms: C2_9  and  C10_17 
REMARK    5  A    between atoms: C3_10  and  C4_11 
ROOT
HETATM    1  C2  UNL     1       4.699   9.525  -2.884  1.00  0.00     0.191 C 
ENDROOT
BRANCH   1   2
HETATM    2  N2  UNL     1       5.319   9.755  -1.600  1.00  0.00    -0.327 N 
HETATM    3  C1  UNL     1       6.113   8.760  -0.955  1.00  0.00     0.340 C 
HETATM    4  O1  UNL     1       6.197   7.671  -1.444  1.00  0.00    -0.245 OA
HETATM    5  N1  UNL     1       6.752   9.169   0.261  1.00  0.00    -0.219 N 
ATOM      6  H1  UNL     1       6.620  10.101   0.652  1.00  0.00     0.199 HD
ATOM      7  H2  UNL     1       5.185  10.656  -1.141  1.00  0.00     0.165 HD
BRANCH   5   8
HETATM    8  O2  UNL     1       7.538   8.250   0.856  1.00  0.00    -0.286 OA
ATOM      9  H2  UNL     1       7.408   8.130   1.789  1.00  0.00     0.244 HD
ENDBRANCH   5   8
ENDBRANCH   1   2
BRANCH   1  10
HETATM   10  C3  UNL     1       3.536  10.327  -3.291  1.00  0.00     0.074 C 
BRANCH  10  11
HETATM   11  C4  UNL     1       3.000   9.624  -4.535  1.00  0.00    -0.056 A 
HETATM   12  C5  UNL     1       3.395  10.127  -5.799  1.00  0.00     0.007 A 
HETATM   13  C6  UNL     1       2.881   9.603  -6.959  1.00  0.00     0.001 A 
HETATM   14  C7  UNL     1       1.954   8.566  -6.927  1.00  0.00     0.000 A 
HETATM   15  C8  UNL     1       1.605   8.118  -5.692  1.00  0.00     0.001 A 
HETATM   16  C9  UNL     1       2.107   8.616  -4.530  1.00  0.00     0.007 A 
ENDBRANCH  10  11
ENDBRANCH   1  10
BRANCH   1  17
HETATM   17  C10 UNL     1       5.816   9.665  -3.847  1.00  0.00     0.197 C 
HETATM   18  O3  UNL     1       6.253   8.637  -4.459  1.00  0.00    -0.646 OA
HETATM   19  O4  UNL     1       6.407  10.887  -4.074  1.00  0.00    -0.646 OA
ENDBRANCH   1  17
TORSDOF 5
ENDMDL
