MODEL 8
REMARK VINA RESULT: -7.128953618      4.442      6.436
REMARK  5 active torsions:
REMARK  status: ('A' for Active; 'I' for Inactive)
REMARK       I    between atoms: C1_2  and  N1_3 
REMARK       I    between atoms: C1_2  and  N2_7 
REMARK    1  A    between atoms: N1_3  and  O2_5 
REMARK    2  A    between atoms: N2_7  and  C2_9 
REMARK    3  A    between atoms: C2_9  and  C3_10 
REMARK    4  A    between atoms: C2_9  and  C10_17 
REMARK    5  A    between atoms: C3_10  and  C4_11 
ROOT
HETATM    1  C2  UNL     1       6.301  10.232  -2.677  1.00  0.00     0.191 C 
ENDROOT
BRANCH   1   2
HETATM    2  N2  UNL     1       6.634  10.820  -1.400  1.00  0.00    -0.327 N 
HETATM    3  C1  UNL     1       6.777  10.030  -0.220  1.00  0.00     0.340 C 
HETATM    4  O1  UNL     1       6.526   8.861  -0.265  1.00  0.00    -0.245 OA
HETATM    5  N1  UNL     1       7.216  10.735   0.948  1.00  0.00    -0.219 N 
ATOM      6  H1  UNL     1       7.383  11.741   0.939  1.00  0.00     0.199 HD
ATOM      7  H2  UNL     1       6.771  11.828  -1.341  1.00  0.00     0.165 HD
BRANCH   5   8
HETATM    8  O2  UNL     1       7.394   9.992   2.058  1.00  0.00    -0.286 OA
ATOM      9  H2  UNL     1       7.996  10.342   2.704  1.00  0.00     0.244 HD
ENDBRANCH   5   8
ENDBRANCH   1   2
BRANCH   1  10
HETATM   10  C3  UNL     1       5.765  11.076  -3.755  1.00  0.00     0.074 C 
BRANCH  10  11
HETATM   11  C4  UNL     1       4.474  10.383  -4.181  1.00  0.00    -0.056 A 
HETATM   12  C5  UNL     1       4.259  10.182  -5.567  1.00  0.00     0.007 A 
HETATM   13  C6  UNL     1       3.081   9.649  -6.028  1.00  0.00     0.001 A 
HETATM   14  C7  UNL     1       2.063   9.293  -5.149  1.00  0.00     0.000 A 
HETATM   15  C8  UNL     1       2.316   9.505  -3.829  1.00  0.00     0.001 A 
HETATM   16  C9  UNL     1       3.478  10.025  -3.349  1.00  0.00     0.007 A 
ENDBRANCH  10  11
ENDBRANCH   1  10
BRANCH   1  17
HETATM   17  C10 UNL     1       7.551   9.554  -3.093  1.00  0.00     0.197 C 
HETATM   18  O3  UNL     1       7.494   8.401  -3.631  1.00  0.00    -0.646 OA
HETATM   19  O4  UNL     1       8.778  10.141  -2.885  1.00  0.00    -0.646 OA
ENDBRANCH   1  17
TORSDOF 5
ENDMDL
