MODEL 7
REMARK VINA RESULT: -7.246664762      4.019      6.053
REMARK  5 active torsions:
REMARK  status: ('A' for Active; 'I' for Inactive)
REMARK       I    between atoms: C1_2  and  N1_3 
REMARK       I    between atoms: C1_2  and  N2_7 
REMARK    1  A    between atoms: N1_3  and  O2_5 
REMARK    2  A    between atoms: N2_7  and  C2_9 
REMARK    3  A    between atoms: C2_9  and  C3_10 
REMARK    4  A    between atoms: C2_9  and  C10_17 
REMARK    5  A    between atoms: C3_10  and  C4_11 
ROOT
HETATM    1  C2  UNL     1       5.587   9.747  -2.910  1.00  0.00     0.191 C 
ENDROOT
BRANCH   1   2
HETATM    2  N2  UNL     1       6.117  10.107  -1.615  1.00  0.00    -0.327 N 
HETATM    3  C1  UNL     1       6.461   9.123  -0.641  1.00  0.00     0.340 C 
HETATM    4  O1  UNL     1       6.222   7.971  -0.861  1.00  0.00    -0.245 OA
HETATM    5  N1  UNL     1       7.077   9.623   0.554  1.00  0.00    -0.219 N 
ATOM      6  H1  UNL     1       7.228  10.620   0.706  1.00  0.00     0.199 HD
ATOM      7  H2  UNL     1       6.249  11.093  -1.391  1.00  0.00     0.165 HD
BRANCH   5   8
HETATM    8  O2  UNL     1       7.444   8.699   1.463  1.00  0.00    -0.286 OA
ATOM      9  H2  UNL     1       6.993   8.731   2.298  1.00  0.00     0.244 HD
ENDBRANCH   5   8
ENDBRANCH   1   2
BRANCH   1  10
HETATM   10  C3  UNL     1       5.126  10.796  -3.831  1.00  0.00     0.074 C 
BRANCH  10  11
HETATM   11  C4  UNL     1       4.001  10.142  -4.628  1.00  0.00    -0.056 A 
HETATM   12  C5  UNL     1       2.903   9.611  -3.907  1.00  0.00     0.007 A 
HETATM   13  C6  UNL     1       1.901   8.928  -4.549  1.00  0.00     0.001 A 
HETATM   14  C7  UNL     1       1.936   8.734  -5.926  1.00  0.00     0.000 A 
HETATM   15  C8  UNL     1       3.009   9.260  -6.575  1.00  0.00     0.001 A 
HETATM   16  C9  UNL     1       4.010   9.946  -5.960  1.00  0.00     0.007 A 
ENDBRANCH  10  11
ENDBRANCH   1  10
BRANCH   1  17
HETATM   17  C10 UNL     1       6.661   8.927  -3.518  1.00  0.00     0.197 C 
HETATM   18  O3  UNL     1       6.362   7.851  -4.129  1.00  0.00    -0.646 OA
HETATM   19  O4  UNL     1       7.981   9.298  -3.412  1.00  0.00    -0.646 OA
ENDBRANCH   1  17
TORSDOF 5
ENDMDL
