MODEL 1
REMARK VINA RESULT: -7.608331909      0.000      0.000
REMARK  5 active torsions:
REMARK  status: ('A' for Active; 'I' for Inactive)
REMARK       I    between atoms: C1_2  and  N1_3 
REMARK       I    between atoms: C1_2  and  N2_7 
REMARK    1  A    between atoms: N1_3  and  O2_5 
REMARK    2  A    between atoms: N2_7  and  C2_9 
REMARK    3  A    between atoms: C2_9  and  C3_10 
REMARK    4  A    between atoms: C2_9  and  C10_17 
REMARK    5  A    between atoms: C3_10  and  C4_11 
ROOT
HETATM    1  C2  UNL     1       2.451   8.684  -5.652  1.00  0.00     0.191 C 
ENDROOT
BRANCH   1   2
HETATM    2  N2  UNL     1       2.905   9.123  -6.951  1.00  0.00    -0.327 N 
HETATM    3  C1  UNL     1       4.271   9.015  -7.349  1.00  0.00     0.340 C 
HETATM    4  O1  UNL     1       5.083   8.635  -6.556  1.00  0.00    -0.245 OA
HETATM    5  N1  UNL     1       4.553   9.390  -8.703  1.00  0.00    -0.219 N 
ATOM      6  H1  UNL     1       3.827   9.740  -9.328  1.00  0.00     0.199 HD
ATOM      7  H2  UNL     1       2.229   9.522  -7.602  1.00  0.00     0.165 HD
BRANCH   5   8
HETATM    8  O2  UNL     1       5.833   9.252  -9.103  1.00  0.00    -0.286 OA
ATOM      9  H2  UNL     1       5.991   9.331 -10.036  1.00  0.00     0.244 HD
ENDBRANCH   5   8
ENDBRANCH   1   2
BRANCH   1  10
HETATM   10  C3  UNL     1       2.137   9.675  -4.612  1.00  0.00     0.074 C 
BRANCH  10  11
HETATM   11  C4  UNL     1       3.312   9.598  -3.640  1.00  0.00    -0.056 A 
HETATM   12  C5  UNL     1       4.395  10.489  -3.842  1.00  0.00     0.007 A 
HETATM   13  C6  UNL     1       5.524  10.415  -3.065  1.00  0.00     0.001 A 
HETATM   14  C7  UNL     1       5.639   9.460  -2.059  1.00  0.00     0.000 A 
HETATM   15  C8  UNL     1       4.576   8.626  -1.905  1.00  0.00     0.001 A 
HETATM   16  C9  UNL     1       3.445   8.686  -2.658  1.00  0.00     0.007 A 
ENDBRANCH  10  11
ENDBRANCH   1  10
BRANCH   1  17
HETATM   17  C10 UNL     1       1.278   7.831  -5.955  1.00  0.00     0.197 C 
HETATM   18  O3  UNL     1       0.105   8.265  -5.716  1.00  0.00    -0.646 OA
HETATM   19  O4  UNL     1       1.437   6.565  -6.470  1.00  0.00    -0.646 OA
ENDBRANCH   1  17
TORSDOF 5
ENDMDL
