MODEL 2
REMARK VINA RESULT: -7.586298700      3.649      5.767
REMARK  5 active torsions:
REMARK  status: ('A' for Active; 'I' for Inactive)
REMARK       I    between atoms: C1_2  and  N1_3 
REMARK       I    between atoms: C1_2  and  N2_7 
REMARK    1  A    between atoms: N1_3  and  O2_5 
REMARK    2  A    between atoms: N2_7  and  C2_9 
REMARK    3  A    between atoms: C2_9  and  C3_10 
REMARK    4  A    between atoms: C2_9  and  C10_17 
REMARK    5  A    between atoms: C3_10  and  C4_11 
ROOT
HETATM    1  C2  UNL     1       4.597   9.618  -3.015  1.00  0.00     0.191 C 
ENDROOT
BRANCH   1   2
HETATM    2  N2  UNL     1       5.225   9.807  -1.728  1.00  0.00    -0.327 N 
HETATM    3  C1  UNL     1       5.985   8.775  -1.101  1.00  0.00     0.340 C 
HETATM    4  O1  UNL     1       6.030   7.692  -1.606  1.00  0.00    -0.245 OA
HETATM    5  N1  UNL     1       6.640   9.143   0.120  1.00  0.00    -0.219 N 
ATOM      6  H1  UNL     1       6.540  10.073   0.526  1.00  0.00     0.199 HD
ATOM      7  H2  UNL     1       5.124  10.705  -1.255  1.00  0.00     0.165 HD
BRANCH   5   8
HETATM    8  O2  UNL     1       7.393   8.188   0.700  1.00  0.00    -0.286 OA
ATOM      9  H2  UNL     1       7.952   8.472   1.414  1.00  0.00     0.244 HD
ENDBRANCH   5   8
ENDBRANCH   1   2
BRANCH   1  10
HETATM   10  C3  UNL     1       3.454  10.459  -3.403  1.00  0.00     0.074 C 
BRANCH  10  11
HETATM   11  C4  UNL     1       2.917   9.813  -4.677  1.00  0.00    -0.056 A 
HETATM   12  C5  UNL     1       2.046   8.704  -4.539  1.00  0.00     0.007 A 
HETATM   13  C6  UNL     1       1.598   8.017  -5.640  1.00  0.00     0.001 A 
HETATM   14  C7  UNL     1       1.989   8.387  -6.923  1.00  0.00     0.000 A 
HETATM   15  C8  UNL     1       2.826   9.456  -7.005  1.00  0.00     0.001 A 
HETATM   16  C9  UNL     1       3.277  10.156  -5.929  1.00  0.00     0.007 A 
ENDBRANCH  10  11
ENDBRANCH   1  10
BRANCH   1  17
HETATM   17  C10 UNL     1       5.714   9.748  -3.979  1.00  0.00     0.197 C 
HETATM   18  O3  UNL     1       6.118   8.722  -4.617  1.00  0.00    -0.646 OA
HETATM   19  O4  UNL     1       6.342  10.956  -4.178  1.00  0.00    -0.646 OA
ENDBRANCH   1  17
TORSDOF 5
ENDMDL
