MODEL 5
REMARK VINA RESULT: -7.356086689      0.961      1.027
REMARK  5 active torsions:
REMARK  status: ('A' for Active; 'I' for Inactive)
REMARK       I    between atoms: C1_2  and  N1_3 
REMARK       I    between atoms: C1_2  and  N2_7 
REMARK    1  A    between atoms: N1_3  and  O2_5 
REMARK    2  A    between atoms: N2_7  and  C2_9 
REMARK    3  A    between atoms: C2_9  and  C3_10 
REMARK    4  A    between atoms: C2_9  and  C10_17 
REMARK    5  A    between atoms: C3_10  and  C4_11 
ROOT
HETATM    1  C2  UNL     1       2.895   9.168  -4.971  1.00  0.00     0.191 C 
ENDROOT
BRANCH   1   2
HETATM    2  N2  UNL     1       2.915   9.660  -6.330  1.00  0.00    -0.327 N 
HETATM    3  C1  UNL     1       3.968   9.332  -7.235  1.00  0.00     0.340 C 
HETATM    4  O1  UNL     1       4.909   8.709  -6.838  1.00  0.00    -0.245 OA
HETATM    5  N1  UNL     1       3.798   9.801  -8.579  1.00  0.00    -0.219 N 
ATOM      6  H1  UNL     1       2.990  10.359  -8.857  1.00  0.00     0.199 HD
ATOM      7  H2  UNL     1       2.154  10.258  -6.650  1.00  0.00     0.165 HD
BRANCH   5   8
HETATM    8  O2  UNL     1       4.766   9.463  -9.453  1.00  0.00    -0.286 OA
ATOM      9  H2  UNL     1       5.606   9.228  -9.076  1.00  0.00     0.244 HD
ENDBRANCH   5   8
ENDBRANCH   1   2
BRANCH   1  10
HETATM   10  C3  UNL     1       2.825  10.117  -3.850  1.00  0.00     0.074 C 
BRANCH  10  11
HETATM   11  C4  UNL     1       4.056   9.803  -3.004  1.00  0.00    -0.056 A 
HETATM   12  C5  UNL     1       5.261  10.481  -3.313  1.00  0.00     0.007 A 
HETATM   13  C6  UNL     1       6.428  10.182  -2.656  1.00  0.00     0.001 A 
HETATM   14  C7  UNL     1       6.463   9.202  -1.669  1.00  0.00     0.000 A 
HETATM   15  C8  UNL     1       5.283   8.578  -1.408  1.00  0.00     0.001 A 
HETATM   16  C9  UNL     1       4.114   8.862  -2.041  1.00  0.00     0.007 A 
ENDBRANCH  10  11
ENDBRANCH   1  10
BRANCH   1  17
HETATM   17  C10 UNL     1       1.753   8.225  -4.952  1.00  0.00     0.197 C 
HETATM   18  O3  UNL     1       0.603   8.621  -5.328  1.00  0.00    -0.646 OA
HETATM   19  O4  UNL     1       1.910   6.931  -4.510  1.00  0.00    -0.646 OA
ENDBRANCH   1  17
TORSDOF 5
ENDMDL
