MODEL 9
REMARK VINA RESULT: -7.046614919      4.304      6.150
REMARK  5 active torsions:
REMARK  status: ('A' for Active; 'I' for Inactive)
REMARK       I    between atoms: C1_2  and  N1_3 
REMARK       I    between atoms: C1_2  and  N2_7 
REMARK    1  A    between atoms: N1_3  and  O2_5 
REMARK    2  A    between atoms: N2_7  and  C2_9 
REMARK    3  A    between atoms: C2_9  and  C3_10 
REMARK    4  A    between atoms: C2_9  and  C10_17 
REMARK    5  A    between atoms: C3_10  and  C4_11 
ROOT
HETATM    1  C2  UNL     1       5.912   9.809  -2.350  1.00  0.00     0.191 C 
ENDROOT
BRANCH   1   2
HETATM    2  N2  UNL     1       6.882  10.048  -1.306  1.00  0.00    -0.327 N 
HETATM    3  C1  UNL     1       7.118   9.101  -0.265  1.00  0.00     0.340 C 
HETATM    4  O1  UNL     1       6.434   8.121  -0.198  1.00  0.00    -0.245 OA
HETATM    5  N1  UNL     1       8.184   9.425   0.637  1.00  0.00    -0.219 N 
ATOM      6  H1  UNL     1       8.715  10.292   0.554  1.00  0.00     0.199 HD
ATOM      7  H2  UNL     1       7.412  10.918  -1.314  1.00  0.00     0.165 HD
BRANCH   5   8
HETATM    8  O2  UNL     1       8.444   8.517   1.599  1.00  0.00    -0.286 OA
ATOM      9  H2  UNL     1       9.312   8.132   1.587  1.00  0.00     0.244 HD
ENDBRANCH   5   8
ENDBRANCH   1   2
BRANCH   1  10
HETATM   10  C3  UNL     1       5.567  10.886  -3.290  1.00  0.00     0.074 C 
BRANCH  10  11
HETATM   11  C4  UNL     1       4.291  10.405  -3.974  1.00  0.00    -0.056 A 
HETATM   12  C5  UNL     1       3.172  10.115  -3.155  1.00  0.00     0.007 A 
HETATM   13  C6  UNL     1       2.021   9.591  -3.690  1.00  0.00     0.001 A 
HETATM   14  C7  UNL     1       1.922   9.326  -5.053  1.00  0.00     0.000 A 
HETATM   15  C8  UNL     1       3.021   9.620  -5.798  1.00  0.00     0.001 A 
HETATM   16  C9  UNL     1       4.169  10.145  -5.290  1.00  0.00     0.007 A 
ENDBRANCH  10  11
ENDBRANCH   1  10
BRANCH   1  17
HETATM   17  C10 UNL     1       6.440   8.621  -3.060  1.00  0.00     0.197 C 
HETATM   18  O3  UNL     1       7.589   8.674  -3.608  1.00  0.00    -0.646 OA
HETATM   19  O4  UNL     1       5.699   7.466  -3.158  1.00  0.00    -0.646 OA
ENDBRANCH   1  17
TORSDOF 5
ENDMDL
