MODEL 4
REMARK VINA RESULT: -7.477307899      0.137      1.180
REMARK  5 active torsions:
REMARK  status: ('A' for Active; 'I' for Inactive)
REMARK       I    between atoms: C1_2  and  N1_3 
REMARK       I    between atoms: C1_2  and  N2_7 
REMARK    1  A    between atoms: N1_3  and  O2_5 
REMARK    2  A    between atoms: N2_7  and  C2_9 
REMARK    3  A    between atoms: C2_9  and  C3_10 
REMARK    4  A    between atoms: C2_9  and  C10_17 
REMARK    5  A    between atoms: C3_10  and  C4_11 
ROOT
HETATM    1  C2  UNL     1       2.456   8.657  -5.654  1.00  0.00     0.191 C 
ENDROOT
BRANCH   1   2
HETATM    2  N2  UNL     1       2.843   9.156  -6.954  1.00  0.00    -0.327 N 
HETATM    3  C1  UNL     1       4.176   9.023  -7.447  1.00  0.00     0.340 C 
HETATM    4  O1  UNL     1       5.021   8.568  -6.733  1.00  0.00    -0.245 OA
HETATM    5  N1  UNL     1       4.385   9.467  -8.793  1.00  0.00    -0.219 N 
ATOM      6  H1  UNL     1       3.635   9.880  -9.348  1.00  0.00     0.199 HD
ATOM      7  H2  UNL     1       2.144   9.617  -7.535  1.00  0.00     0.165 HD
BRANCH   5   8
HETATM    8  O2  UNL     1       5.630   9.308  -9.284  1.00  0.00    -0.286 OA
ATOM      9  H2  UNL     1       5.985   8.428  -9.246  1.00  0.00     0.244 HD
ENDBRANCH   5   8
ENDBRANCH   1   2
BRANCH   1  10
HETATM   10  C3  UNL     1       2.194   9.599  -4.556  1.00  0.00     0.074 C 
BRANCH  10  11
HETATM   11  C4  UNL     1       3.473   9.584  -3.723  1.00  0.00    -0.056 A 
HETATM   12  C5  UNL     1       3.578   8.615  -2.694  1.00  0.00     0.007 A 
HETATM   13  C6  UNL     1       4.658   8.601  -1.846  1.00  0.00     0.001 A 
HETATM   14  C7  UNL     1       5.678   9.539  -1.971  1.00  0.00     0.000 A 
HETATM   15  C8  UNL     1       5.532  10.448  -2.972  1.00  0.00     0.001 A 
HETATM   16  C9  UNL     1       4.475  10.477  -3.827  1.00  0.00     0.007 A 
ENDBRANCH  10  11
ENDBRANCH   1  10
BRANCH   1  17
HETATM   17  C10 UNL     1       1.271   7.814  -5.937  1.00  0.00     0.197 C 
HETATM   18  O3  UNL     1       0.105   8.271  -5.710  1.00  0.00    -0.646 OA
HETATM   19  O4  UNL     1       1.412   6.533  -6.419  1.00  0.00    -0.646 OA
ENDBRANCH   1  17
TORSDOF 5
ENDMDL
