MODEL 2
REMARK VINA RESULT: -5.351533133      2.061      5.085
REMARK  11 active torsions:
REMARK  status: ('A' for Active; 'I' for Inactive)
REMARK    1  A    between atoms: O1_2  and  C2_3 
REMARK    2  A    between atoms: C2_3  and  C3_4 
REMARK    3  A    between atoms: C5_8  and  O4_9 
REMARK    4  A    between atoms: O4_9  and  C6_10 
REMARK    5  A    between atoms: C8_13  and  N1_14 
REMARK       I    between atoms: N1_14  and  C9_16 
REMARK    6  A    between atoms: C11_19  and  C12_20 
REMARK    7  A    between atoms: C12_20  and  O7_21 
REMARK    8  A    between atoms: C12_20  and  C13_23 
REMARK    9  A    between atoms: C13_23  and  O8_24 
REMARK   10  A    between atoms: C13_23  and  C14_26 
REMARK   11  A    between atoms: C14_26  and  O9_27 
ROOT
HETATM    1  C2  UNL     1     -12.680  68.228  20.023  1.00  0.00     0.258 C 
HETATM    2  C4  UNL     1     -11.503  68.128  20.909  1.00  0.00     0.115 C 
HETATM    3  C5  UNL     1     -11.497  69.144  22.030  1.00  0.00     0.163 C 
HETATM    4  C8  UNL     1     -11.696  70.550  21.473  1.00  0.00     0.145 C 
HETATM    5  C11 UNL     1     -11.913  70.373  19.991  1.00  0.00     0.182 C 
HETATM    6  O10 UNL     1     -13.041  69.597  19.813  1.00  0.00    -0.336 OA
ENDROOT
BRANCH   5   7
HETATM    7  C12 UNL     1     -12.188  71.689  19.294  1.00  0.00     0.180 C 
BRANCH   7   8
HETATM    8  O7  UNL     1     -11.085  72.502  19.187  1.00  0.00    -0.390 OA
ATOM      9  H7  UNL     1     -11.077  73.221  19.807  1.00  0.00     0.210 HD
ENDBRANCH   7   8
BRANCH   7  10
HETATM   10  C13 UNL     1     -13.331  72.456  19.858  1.00  0.00     0.173 C 
BRANCH  10  11
HETATM   11  O8  UNL     1     -14.524  72.246  19.152  1.00  0.00    -0.391 OA
ATOM     12  H8  UNL     1     -15.218  71.897  19.699  1.00  0.00     0.210 HD
ENDBRANCH  10  11
BRANCH  10  13
HETATM   13  C14 UNL     1     -12.995  73.943  19.690  1.00  0.00     0.198 C 
BRANCH  13  14
HETATM   14  O9  UNL     1     -13.247  74.353  18.379  1.00  0.00    -0.398 OA
ATOM     15  H9  UNL     1     -14.126  74.703  18.306  1.00  0.00     0.209 HD
ENDBRANCH  13  14
ENDBRANCH  10  13
ENDBRANCH   7  10
ENDBRANCH   5   7
BRANCH   4  16
HETATM   16  N1  UNL     1     -10.639  71.432  21.825  1.00  0.00    -0.352 N 
HETATM   17  C9  UNL     1     -10.843  72.512  22.709  1.00  0.00     0.214 C 
HETATM   18  C10 UNL     1      -9.754  73.459  23.099  1.00  0.00     0.117 C 
HETATM   19  O6  UNL     1     -11.971  72.706  23.203  1.00  0.00    -0.274 OA
ATOM     20  H1  UNL     1      -9.711  71.281  21.429  1.00  0.00     0.163 HD
ENDBRANCH   4  16
BRANCH   3  21
HETATM   21  O4  UNL     1     -12.428  68.815  23.015  1.00  0.00    -0.314 OA
BRANCH  21  22
HETATM   22  C6  UNL     1     -12.257  69.167  24.342  1.00  0.00     0.255 C 
HETATM   23  C7  UNL     1     -13.371  68.932  25.325  1.00  0.00     0.126 C 
HETATM   24  O5  UNL     1     -11.169  69.684  24.724  1.00  0.00    -0.266 OA
ENDBRANCH  21  22
ENDBRANCH   3  21
BRANCH   1  25
HETATM   25  O1  UNL     1     -13.825  67.574  20.424  1.00  0.00    -0.351 OA
HETATM   26  C1  UNL     1     -14.885  68.399  20.644  1.00  0.00     0.206 C 
ENDBRANCH   1  25
BRANCH   1  27
HETATM   27  C3  UNL     1     -12.367  67.769  18.617  1.00  0.00     0.239 C 
HETATM   28  O2  UNL     1     -13.269  67.378  17.854  1.00  0.00    -0.644 OA
HETATM   29  O3  UNL     1     -11.080  67.757  18.107  1.00  0.00    -0.644 OA
ENDBRANCH   1  27
TORSDOF 11
ENDMDL
