MODEL 3
REMARK VINA RESULT: -5.342823783      4.509      8.069
REMARK  11 active torsions:
REMARK  status: ('A' for Active; 'I' for Inactive)
REMARK    1  A    between atoms: O1_2  and  C2_3 
REMARK    2  A    between atoms: C2_3  and  C3_4 
REMARK    3  A    between atoms: C5_8  and  O4_9 
REMARK    4  A    between atoms: O4_9  and  C6_10 
REMARK    5  A    between atoms: C8_13  and  N1_14 
REMARK       I    between atoms: N1_14  and  C9_16 
REMARK    6  A    between atoms: C11_19  and  C12_20 
REMARK    7  A    between atoms: C12_20  and  O7_21 
REMARK    8  A    between atoms: C12_20  and  C13_23 
REMARK    9  A    between atoms: C13_23  and  O8_24 
REMARK   10  A    between atoms: C13_23  and  C14_26 
REMARK   11  A    between atoms: C14_26  and  O9_27 
ROOT
HETATM    1  C2  UNL     1     -10.629  71.424  23.516  1.00  0.00     0.258 C 
HETATM    2  C4  UNL     1     -10.021  72.770  23.557  1.00  0.00     0.115 C 
HETATM    3  C5  UNL     1      -8.649  72.797  24.193  1.00  0.00     0.163 C 
HETATM    4  C8  UNL     1      -8.684  72.127  25.563  1.00  0.00     0.145 C 
HETATM    5  C11 UNL     1     -10.090  71.605  25.722  1.00  0.00     0.182 C 
HETATM    6  O10 UNL     1     -10.327  70.696  24.711  1.00  0.00    -0.336 OA
ENDROOT
BRANCH   5   7
HETATM    7  C12 UNL     1     -10.273  70.851  27.023  1.00  0.00     0.180 C 
BRANCH   7   8
HETATM    8  O7  UNL     1     -10.202  71.646  28.141  1.00  0.00    -0.390 OA
ATOM      9  H7  UNL     1     -10.678  71.303  28.887  1.00  0.00     0.210 HD
ENDBRANCH   7   8
BRANCH   7  10
HETATM   10  C13 UNL     1      -9.380  69.671  27.181  1.00  0.00     0.173 C 
BRANCH  10  11
HETATM   11  O8  UNL     1     -10.022  68.462  26.878  1.00  0.00    -0.391 OA
ATOM     12  H8  UNL     1      -9.411  67.750  26.730  1.00  0.00     0.210 HD
ENDBRANCH  10  11
BRANCH  10  13
HETATM   13  C14 UNL     1      -9.007  69.592  28.667  1.00  0.00     0.198 C 
BRANCH  13  14
HETATM   14  O9  UNL     1      -7.681  69.985  28.856  1.00  0.00    -0.398 OA
ATOM     15  H9  UNL     1      -7.550  70.290  29.745  1.00  0.00     0.209 HD
ENDBRANCH  13  14
ENDBRANCH  10  13
ENDBRANCH   7  10
ENDBRANCH   5   7
BRANCH   4  16
HETATM   16  N1  UNL     1      -8.240  72.985  26.604  1.00  0.00    -0.352 N 
HETATM   17  C9  UNL     1      -6.997  72.789  27.242  1.00  0.00     0.214 C 
HETATM   18  C10 UNL     1      -6.500  73.672  28.341  1.00  0.00     0.117 C 
HETATM   19  O6  UNL     1      -6.261  71.845  26.892  1.00  0.00    -0.274 OA
ATOM     20  H1  UNL     1      -8.833  73.762  26.897  1.00  0.00     0.163 HD
ENDBRANCH   4  16
BRANCH   3  21
HETATM   21  O4  UNL     1      -7.688  72.247  23.346  1.00  0.00    -0.314 OA
BRANCH  21  22
HETATM   22  C6  UNL     1      -6.417  72.780  23.224  1.00  0.00     0.255 C 
HETATM   23  C7  UNL     1      -6.115  74.131  23.814  1.00  0.00     0.126 C 
HETATM   24  O5  UNL     1      -5.515  72.134  22.620  1.00  0.00    -0.266 OA
ENDBRANCH  21  22
ENDBRANCH   3  21
BRANCH   1  25
HETATM   25  O1  UNL     1     -10.284  70.611  22.459  1.00  0.00    -0.351 OA
HETATM   26  C1  UNL     1     -10.142  69.299  22.794  1.00  0.00     0.206 C 
ENDBRANCH   1  25
BRANCH   1  27
HETATM   27  C3  UNL     1     -12.139  71.487  23.563  1.00  0.00     0.239 C 
HETATM   28  O2  UNL     1     -12.760  72.412  23.008  1.00  0.00    -0.644 OA
HETATM   29  O3  UNL     1     -12.904  70.537  24.217  1.00  0.00    -0.644 OA
ENDBRANCH   1  27
TORSDOF 11
ENDMDL
