MODEL 1
REMARK VINA RESULT: -5.417791336      0.000      0.000
REMARK  11 active torsions:
REMARK  status: ('A' for Active; 'I' for Inactive)
REMARK    1  A    between atoms: O1_2  and  C2_3 
REMARK    2  A    between atoms: C2_3  and  C3_4 
REMARK    3  A    between atoms: C5_8  and  O4_9 
REMARK    4  A    between atoms: O4_9  and  C6_10 
REMARK    5  A    between atoms: C8_13  and  N1_14 
REMARK       I    between atoms: N1_14  and  C9_16 
REMARK    6  A    between atoms: C11_19  and  C12_20 
REMARK    7  A    between atoms: C12_20  and  O7_21 
REMARK    8  A    between atoms: C12_20  and  C13_23 
REMARK    9  A    between atoms: C13_23  and  O8_24 
REMARK   10  A    between atoms: C13_23  and  C14_26 
REMARK   11  A    between atoms: C14_26  and  O9_27 
ROOT
HETATM    1  C2  UNL     1     -11.220  69.701  21.656  1.00  0.00     0.258 C 
HETATM    2  C4  UNL     1     -10.956  70.835  20.746  1.00  0.00     0.115 C 
HETATM    3  C5  UNL     1     -12.189  71.644  20.411  1.00  0.00     0.163 C 
HETATM    4  C8  UNL     1     -13.303  70.732  19.906  1.00  0.00     0.145 C 
HETATM    5  C11 UNL     1     -12.761  69.330  20.020  1.00  0.00     0.182 C 
HETATM    6  O10 UNL     1     -12.476  69.086  21.348  1.00  0.00    -0.336 OA
ENDROOT
BRANCH   5   7
HETATM    7  C12 UNL     1     -13.782  68.290  19.607  1.00  0.00     0.180 C 
BRANCH   7   8
HETATM    8  O7  UNL     1     -14.502  67.771  20.656  1.00  0.00    -0.390 OA
ATOM      9  H7  UNL     1     -14.759  68.418  21.301  1.00  0.00     0.210 HD
ENDBRANCH   7   8
BRANCH   7  10
HETATM   10  C13 UNL     1     -13.234  67.187  18.772  1.00  0.00     0.173 C 
BRANCH  10  11
HETATM   11  O8  UNL     1     -12.703  66.140  19.539  1.00  0.00    -0.391 OA
ATOM     12  H8  UNL     1     -12.070  65.619  19.059  1.00  0.00     0.210 HD
ENDBRANCH  10  11
BRANCH  10  13
HETATM   13  C14 UNL     1     -12.057  67.773  17.981  1.00  0.00     0.198 C 
BRANCH  13  14
HETATM   14  O9  UNL     1     -11.480  66.792  17.172  1.00  0.00    -0.398 OA
ATOM     15  H9  UNL     1     -11.280  67.147  16.315  1.00  0.00     0.209 HD
ENDBRANCH  13  14
ENDBRANCH  10  13
ENDBRANCH   7  10
ENDBRANCH   5   7
BRANCH   4  16
HETATM   16  N1  UNL     1     -13.764  71.096  18.612  1.00  0.00    -0.352 N 
HETATM   17  C9  UNL     1     -14.836  71.997  18.437  1.00  0.00     0.214 C 
HETATM   18  C10 UNL     1     -15.346  72.400  17.091  1.00  0.00     0.117 C 
HETATM   19  O6  UNL     1     -15.399  72.493  19.433  1.00  0.00    -0.274 OA
ATOM     20  H1  UNL     1     -13.309  70.698  17.791  1.00  0.00     0.163 HD
ENDBRANCH   4  16
BRANCH   3  21
HETATM   21  O4  UNL     1     -12.584  72.434  21.491  1.00  0.00    -0.314 OA
BRANCH  21  22
HETATM   22  C6  UNL     1     -12.695  73.810  21.400  1.00  0.00     0.255 C 
HETATM   23  C7  UNL     1     -12.324  74.504  20.116  1.00  0.00     0.126 C 
HETATM   24  O5  UNL     1     -13.104  74.479  22.390  1.00  0.00    -0.266 OA
ENDBRANCH  21  22
ENDBRANCH   3  21
BRANCH   1  25
HETATM   25  O1  UNL     1     -11.230  69.969  23.007  1.00  0.00    -0.351 OA
HETATM   26  C1  UNL     1     -10.223  70.790  23.416  1.00  0.00     0.206 C 
ENDBRANCH   1  25
BRANCH   1  27
HETATM   27  C3  UNL     1     -10.252  68.562  21.430  1.00  0.00     0.239 C 
HETATM   28  O2  UNL     1     -10.618  67.377  21.542  1.00  0.00    -0.644 OA
HETATM   29  O3  UNL     1      -8.925  68.767  21.092  1.00  0.00    -0.644 OA
ENDBRANCH   1  27
TORSDOF 11
ENDMDL
