MODEL 14
REMARK VINA RESULT: -4.745825340      7.917     10.254
REMARK  10 active torsions:
REMARK  status: ('A' for Active; 'I' for Inactive)
REMARK    1  A    between atoms: O1_2  and  C2_3 
REMARK    2  A    between atoms: C2_3  and  C3_4 
REMARK    3  A    between atoms: C5_8  and  O4_9 
REMARK    4  A    between atoms: C6_11  and  N1_12 
REMARK       I    between atoms: N1_12  and  C7_14 
REMARK    5  A    between atoms: C9_17  and  C10_18 
REMARK    6  A    between atoms: C10_18  and  O6_19 
REMARK    7  A    between atoms: C10_18  and  C11_21 
REMARK    8  A    between atoms: C11_21  and  O7_22 
REMARK    9  A    between atoms: C11_21  and  C12_24 
REMARK   10  A    between atoms: C12_24  and  N2_25 
ROOT
HETATM    1  C2  UNL     1      -8.201  72.919  28.178  1.00  0.00     0.258 C 
HETATM    2  C4  UNL     1      -8.350  74.335  28.618  1.00  0.00     0.114 C 
HETATM    3  C5  UNL     1      -6.968  74.919  28.730  1.00  0.00     0.149 C 
HETATM    4  C6  UNL     1      -6.418  75.040  27.317  1.00  0.00     0.145 C 
HETATM    5  C9  UNL     1      -6.655  73.759  26.621  1.00  0.00     0.182 C 
HETATM    6  O8  UNL     1      -7.031  72.695  27.453  1.00  0.00    -0.336 OA
ENDROOT
BRANCH   5   7
HETATM    7  C10 UNL     1      -7.544  73.757  25.449  1.00  0.00     0.179 C 
BRANCH   7   8
HETATM    8  O6  UNL     1      -7.865  72.460  25.041  1.00  0.00    -0.390 OA
ATOM      9  H6  UNL     1      -7.504  72.258  24.186  1.00  0.00     0.210 HD
ENDBRANCH   7   8
BRANCH   7  10
HETATM   10  C11 UNL     1      -7.122  74.472  24.209  1.00  0.00     0.174 C 
BRANCH  10  11
HETATM   11  O7  UNL     1      -7.897  73.883  23.159  1.00  0.00    -0.391 OA
ATOM     12  H7  UNL     1      -7.880  74.519  22.454  1.00  0.00     0.210 HD
ENDBRANCH  10  11
BRANCH  10  13
HETATM   13  C12 UNL     1      -5.711  74.127  23.750  1.00  0.00     0.263 C 
BRANCH  13  14
HETATM   14  N2  UNL     1      -5.512  72.824  23.258  1.00  0.00    -0.077 N 
ATOM     15  H23 UNL     1      -4.514  72.615  23.234  1.00  0.00     0.274 HD
ATOM     16  H22 UNL     1      -5.828  72.144  23.949  1.00  0.00     0.274 HD
ATOM     17  H21 UNL     1      -5.928  72.612  22.351  1.00  0.00     0.274 HD
ENDBRANCH  13  14
ENDBRANCH  10  13
ENDBRANCH   7  10
ENDBRANCH   5   7
BRANCH   4  18
HETATM   18  N1  UNL     1      -4.988  75.305  27.563  1.00  0.00    -0.352 N 
HETATM   19  C7  UNL     1      -4.445  76.586  27.397  1.00  0.00     0.214 C 
HETATM   20  C8  UNL     1      -3.022  76.930  27.624  1.00  0.00     0.117 C 
HETATM   21  O5  UNL     1      -5.210  77.507  27.031  1.00  0.00    -0.274 OA
ATOM     22  H1  UNL     1      -4.382  74.541  27.860  1.00  0.00     0.163 HD
ENDBRANCH   4  18
BRANCH   3  23
HETATM   23  O4  UNL     1      -6.966  76.147  29.382  1.00  0.00    -0.393 OA
ATOM     24  H4  UNL     1      -6.097  76.399  29.671  1.00  0.00     0.210 HD
ENDBRANCH   3  23
BRANCH   1  25
HETATM   25  O1  UNL     1      -9.325  72.496  27.539  1.00  0.00    -0.351 OA
HETATM   26  C1  UNL     1     -10.441  73.203  27.860  1.00  0.00     0.206 C 
ENDBRANCH   1  25
BRANCH   1  27
HETATM   27  C3  UNL     1      -8.004  72.072  29.396  1.00  0.00     0.239 C 
HETATM   28  O2  UNL     1      -7.591  70.904  29.265  1.00  0.00    -0.644 OA
HETATM   29  O3  UNL     1      -8.256  72.507  30.678  1.00  0.00    -0.644 OA
ENDBRANCH   1  27
TORSDOF 10
ENDMDL
