MODEL 1
REMARK VINA RESULT: -5.446130646      0.000      0.000
REMARK  10 active torsions:
REMARK  status: ('A' for Active; 'I' for Inactive)
REMARK    1  A    between atoms: O1_2  and  C2_3 
REMARK    2  A    between atoms: C2_3  and  C3_4 
REMARK    3  A    between atoms: C5_8  and  O4_9 
REMARK    4  A    between atoms: C6_11  and  N1_12 
REMARK       I    between atoms: N1_12  and  C7_14 
REMARK    5  A    between atoms: C9_17  and  C10_18 
REMARK    6  A    between atoms: C10_18  and  O6_19 
REMARK    7  A    between atoms: C10_18  and  C11_21 
REMARK    8  A    between atoms: C11_21  and  O7_22 
REMARK    9  A    between atoms: C11_21  and  C12_24 
REMARK   10  A    between atoms: C12_24  and  N2_25 
ROOT
HETATM    1  C2  UNL     1     -13.267  68.387  19.384  1.00  0.00     0.258 C 
HETATM    2  C4  UNL     1     -13.248  69.555  18.460  1.00  0.00     0.114 C 
HETATM    3  C5  UNL     1     -13.569  70.778  19.276  1.00  0.00     0.149 C 
HETATM    4  C6  UNL     1     -12.382  71.028  20.193  1.00  0.00     0.145 C 
HETATM    5  C9  UNL     1     -12.023  69.749  20.838  1.00  0.00     0.182 C 
HETATM    6  O8  UNL     1     -12.978  68.731  20.704  1.00  0.00    -0.336 OA
ENDROOT
BRANCH   5   7
HETATM    7  C10 UNL     1     -10.700  69.172  20.555  1.00  0.00     0.179 C 
BRANCH   7   8
HETATM    8  O6  UNL     1     -10.515  67.949  21.205  1.00  0.00    -0.390 OA
ATOM      9  H6  UNL     1     -10.071  67.317  20.652  1.00  0.00     0.210 HD
ENDBRANCH   7   8
BRANCH   7  10
HETATM   10  C11 UNL     1      -9.475  69.971  20.852  1.00  0.00     0.174 C 
BRANCH  10  11
HETATM   11  O7  UNL     1      -8.427  69.005  20.991  1.00  0.00    -0.391 OA
ATOM     12  H7  UNL     1      -8.047  69.176  21.844  1.00  0.00     0.210 HD
ENDBRANCH  10  11
BRANCH  10  13
HETATM   13  C12 UNL     1      -9.472  70.598  22.240  1.00  0.00     0.263 C 
BRANCH  13  14
HETATM   14  N2  UNL     1      -8.962  71.906  22.336  1.00  0.00    -0.077 N 
ATOM     15  H23 UNL     1      -8.664  72.227  21.415  1.00  0.00     0.274 HD
ATOM     16  H22 UNL     1      -9.724  72.558  22.524  1.00  0.00     0.274 HD
ATOM     17  H21 UNL     1      -8.211  72.053  23.010  1.00  0.00     0.274 HD
ENDBRANCH  13  14
ENDBRANCH  10  13
ENDBRANCH   7  10
ENDBRANCH   5   7
BRANCH   4  18
HETATM   18  N1  UNL     1     -12.926  72.018  21.141  1.00  0.00    -0.352 N 
HETATM   19  C7  UNL     1     -12.253  73.217  21.410  1.00  0.00     0.214 C 
HETATM   20  C8  UNL     1     -12.736  74.258  22.348  1.00  0.00     0.117 C 
HETATM   21  O5  UNL     1     -11.168  73.428  20.821  1.00  0.00    -0.274 OA
ATOM     22  H1  UNL     1     -13.811  71.827  21.610  1.00  0.00     0.163 HD
ENDBRANCH   4  18
BRANCH   3  23
HETATM   23  O4  UNL     1     -13.836  71.887  18.480  1.00  0.00    -0.393 OA
ATOM     24  H4  UNL     1     -13.607  72.702  18.910  1.00  0.00     0.210 HD
ENDBRANCH   3  23
BRANCH   1  25
HETATM   25  O1  UNL     1     -12.486  67.382  18.901  1.00  0.00    -0.351 OA
HETATM   26  C1  UNL     1     -11.945  67.642  17.681  1.00  0.00     0.206 C 
ENDBRANCH   1  25
BRANCH   1  27
HETATM   27  C3  UNL     1     -14.676  67.888  19.471  1.00  0.00     0.239 C 
HETATM   28  O2  UNL     1     -15.301  68.014  20.542  1.00  0.00    -0.644 OA
HETATM   29  O3  UNL     1     -15.340  67.285  18.426  1.00  0.00    -0.644 OA
ENDBRANCH   1  27
TORSDOF 10
ENDMDL
