MODEL 2
REMARK VINA RESULT: -5.184009075      2.457      3.171
REMARK  10 active torsions:
REMARK  status: ('A' for Active; 'I' for Inactive)
REMARK    1  A    between atoms: O1_2  and  C2_3 
REMARK    2  A    between atoms: C2_3  and  C3_4 
REMARK    3  A    between atoms: C5_8  and  O4_9 
REMARK    4  A    between atoms: C6_11  and  N1_12 
REMARK       I    between atoms: N1_12  and  C7_14 
REMARK    5  A    between atoms: C9_17  and  C10_18 
REMARK    6  A    between atoms: C10_18  and  O6_19 
REMARK    7  A    between atoms: C10_18  and  C11_21 
REMARK    8  A    between atoms: C11_21  and  O7_22 
REMARK    9  A    between atoms: C11_21  and  C12_24 
REMARK   10  A    between atoms: C12_24  and  N2_25 
ROOT
HETATM    1  C2  UNL     1     -12.244  68.390  19.843  1.00  0.00     0.258 C 
HETATM    2  C4  UNL     1     -13.136  69.416  20.452  1.00  0.00     0.114 C 
HETATM    3  C5  UNL     1     -13.259  69.092  21.916  1.00  0.00     0.149 C 
HETATM    4  C6  UNL     1     -11.907  69.372  22.551  1.00  0.00     0.145 C 
HETATM    5  C9  UNL     1     -10.866  68.744  21.713  1.00  0.00     0.182 C 
HETATM    6  O8  UNL     1     -11.346  67.838  20.756  1.00  0.00    -0.336 OA
ENDROOT
BRANCH   5   7
HETATM    7  C10 UNL     1      -9.877  69.614  21.058  1.00  0.00     0.179 C 
BRANCH   7   8
HETATM    8  O6  UNL     1      -8.680  68.943  20.803  1.00  0.00    -0.390 OA
ATOM      9  H6  UNL     1      -8.825  68.116  20.356  1.00  0.00     0.210 HD
ENDBRANCH   7   8
BRANCH   7  10
HETATM   10  C11 UNL     1      -9.483  70.895  21.716  1.00  0.00     0.174 C 
BRANCH  10  11
HETATM   11  O7  UNL     1      -9.727  70.686  23.111  1.00  0.00    -0.391 OA
ATOM     12  H7  UNL     1      -9.979  71.538  23.447  1.00  0.00     0.210 HD
ENDBRANCH  10  11
BRANCH  10  13
HETATM   13  C12 UNL     1     -10.433  72.051  21.430  1.00  0.00     0.263 C 
BRANCH  13  14
HETATM   14  N2  UNL     1     -10.674  72.346  20.076  1.00  0.00    -0.077 N 
ATOM     15  H23 UNL     1     -10.426  73.317  19.886  1.00  0.00     0.274 HD
ATOM     16  H22 UNL     1      -9.991  71.862  19.493  1.00  0.00     0.274 HD
ATOM     17  H21 UNL     1     -11.615  72.158  19.730  1.00  0.00     0.274 HD
ENDBRANCH  13  14
ENDBRANCH  10  13
ENDBRANCH   7  10
ENDBRANCH   5   7
BRANCH   4  18
HETATM   18  N1  UNL     1     -12.046  68.731  23.873  1.00  0.00    -0.352 N 
HETATM   19  C7  UNL     1     -12.249  69.488  25.033  1.00  0.00     0.214 C 
HETATM   20  C8  UNL     1     -12.398  68.917  26.393  1.00  0.00     0.117 C 
HETATM   21  O5  UNL     1     -12.310  70.734  24.920  1.00  0.00    -0.274 OA
ATOM     22  H1  UNL     1     -11.993  67.715  23.943  1.00  0.00     0.163 HD
ENDBRANCH   4  18
BRANCH   3  23
HETATM   23  O4  UNL     1     -14.270  69.821  22.534  1.00  0.00    -0.393 OA
ATOM     24  H4  UNL     1     -14.705  69.325  23.217  1.00  0.00     0.210 HD
ENDBRANCH   3  23
BRANCH   1  25
HETATM   25  O1  UNL     1     -11.647  68.880  18.723  1.00  0.00    -0.351 OA
HETATM   26  C1  UNL     1     -12.365  69.847  18.093  1.00  0.00     0.206 C 
ENDBRANCH   1  25
BRANCH   1  27
HETATM   27  C3  UNL     1     -13.086  67.216  19.453  1.00  0.00     0.239 C 
HETATM   28  O2  UNL     1     -12.545  66.105  19.292  1.00  0.00    -0.644 OA
HETATM   29  O3  UNL     1     -14.447  67.283  19.254  1.00  0.00    -0.644 OA
ENDBRANCH   1  27
TORSDOF 10
ENDMDL
