MODEL 3
REMARK VINA RESULT: -5.177419215      2.341      3.184
REMARK  10 active torsions:
REMARK  status: ('A' for Active; 'I' for Inactive)
REMARK    1  A    between atoms: O1_2  and  C2_3 
REMARK    2  A    between atoms: C2_3  and  C3_4 
REMARK    3  A    between atoms: C5_8  and  O4_9 
REMARK    4  A    between atoms: C6_11  and  N1_12 
REMARK       I    between atoms: N1_12  and  C7_14 
REMARK    5  A    between atoms: C9_17  and  C10_18 
REMARK    6  A    between atoms: C10_18  and  O6_19 
REMARK    7  A    between atoms: C10_18  and  C11_21 
REMARK    8  A    between atoms: C11_21  and  O7_22 
REMARK    9  A    between atoms: C11_21  and  C12_24 
REMARK   10  A    between atoms: C12_24  and  N2_25 
ROOT
HETATM    1  C2  UNL     1     -12.594  68.619  19.762  1.00  0.00     0.258 C 
HETATM    2  C4  UNL     1     -13.614  69.425  20.490  1.00  0.00     0.114 C 
HETATM    3  C5  UNL     1     -13.530  69.046  21.944  1.00  0.00     0.149 C 
HETATM    4  C6  UNL     1     -12.208  69.582  22.470  1.00  0.00     0.145 C 
HETATM    5  C9  UNL     1     -11.146  69.200  21.518  1.00  0.00     0.182 C 
HETATM    6  O8  UNL     1     -11.522  68.239  20.568  1.00  0.00    -0.336 OA
ENDROOT
BRANCH   5   7
HETATM    7  C10 UNL     1     -10.419  70.271  20.818  1.00  0.00     0.179 C 
BRANCH   7   8
HETATM    8  O6  UNL     1      -9.037  70.067  20.846  1.00  0.00    -0.390 OA
ATOM      9  H6  UNL     1      -8.619  70.364  20.046  1.00  0.00     0.210 HD
ENDBRANCH   7   8
BRANCH   7  10
HETATM   10  C11 UNL     1     -10.621  71.688  21.241  1.00  0.00     0.174 C 
BRANCH  10  11
HETATM   11  O7  UNL     1     -10.387  72.464  20.060  1.00  0.00    -0.391 OA
ATOM     12  H7  UNL     1     -11.149  73.024  19.979  1.00  0.00     0.210 HD
ENDBRANCH  10  11
BRANCH  10  13
HETATM   13  C12 UNL     1      -9.526  72.220  22.155  1.00  0.00     0.263 C 
BRANCH  13  14
HETATM   14  N2  UNL     1      -9.479  71.686  23.456  1.00  0.00    -0.077 N 
ATOM     15  H23 UNL     1      -9.076  70.750  23.428  1.00  0.00     0.274 HD
ATOM     16  H22 UNL     1      -8.772  72.177  24.003  1.00  0.00     0.274 HD
ATOM     17  H21 UNL     1     -10.359  71.666  23.971  1.00  0.00     0.274 HD
ENDBRANCH  13  14
ENDBRANCH  10  13
ENDBRANCH   7  10
ENDBRANCH   5   7
BRANCH   4  18
HETATM   18  N1  UNL     1     -12.090  68.892  23.769  1.00  0.00    -0.352 N 
HETATM   19  C7  UNL     1     -12.051  69.607  24.973  1.00  0.00     0.214 C 
HETATM   20  C8  UNL     1     -11.934  68.987  26.314  1.00  0.00     0.117 C 
HETATM   21  O5  UNL     1     -12.119  70.856  24.919  1.00  0.00    -0.274 OA
ATOM     22  H1  UNL     1     -12.036  67.874  23.792  1.00  0.00     0.163 HD
ENDBRANCH   4  18
BRANCH   3  23
HETATM   23  O4  UNL     1     -14.604  69.537  22.679  1.00  0.00    -0.393 OA
ATOM     24  H4  UNL     1     -14.336  70.184  23.320  1.00  0.00     0.210 HD
ENDBRANCH   3  23
BRANCH   1  25
HETATM   25  O1  UNL     1     -12.216  69.248  18.616  1.00  0.00    -0.351 OA
HETATM   26  C1  UNL     1     -13.063  70.237  18.225  1.00  0.00     0.206 C 
ENDBRANCH   1  25
BRANCH   1  27
HETATM   27  C3  UNL     1     -13.215  67.307  19.396  1.00  0.00     0.239 C 
HETATM   28  O2  UNL     1     -12.493  66.294  19.310  1.00  0.00    -0.644 OA
HETATM   29  O3  UNL     1     -14.558  67.141  19.140  1.00  0.00    -0.644 OA
ENDBRANCH   1  27
TORSDOF 10
ENDMDL
