MODEL 11
REMARK VINA RESULT: -4.761250289      8.054     10.770
REMARK  10 active torsions:
REMARK  status: ('A' for Active; 'I' for Inactive)
REMARK    1  A    between atoms: O1_2  and  C2_3 
REMARK    2  A    between atoms: C2_3  and  C3_4 
REMARK    3  A    between atoms: C5_8  and  O4_9 
REMARK    4  A    between atoms: C6_11  and  N1_12 
REMARK       I    between atoms: N1_12  and  C7_14 
REMARK    5  A    between atoms: C9_17  and  C10_18 
REMARK    6  A    between atoms: C10_18  and  O6_19 
REMARK    7  A    between atoms: C10_18  and  C11_21 
REMARK    8  A    between atoms: C11_21  and  O7_22 
REMARK    9  A    between atoms: C11_21  and  C12_24 
REMARK   10  A    between atoms: C12_24  and  N2_25 
ROOT
HETATM    1  C2  UNL     1      -8.280  73.181  29.471  1.00  0.00     0.258 C 
HETATM    2  C4  UNL     1      -8.687  74.528  28.982  1.00  0.00     0.114 C 
HETATM    3  C5  UNL     1      -7.468  75.409  29.026  1.00  0.00     0.149 C 
HETATM    4  C6  UNL     1      -6.518  74.911  27.949  1.00  0.00     0.145 C 
HETATM    5  C9  UNL     1      -6.407  73.444  28.077  1.00  0.00     0.182 C 
HETATM    6  O8  UNL     1      -6.926  72.914  29.267  1.00  0.00    -0.336 OA
ENDROOT
BRANCH   5   7
HETATM    7  C10 UNL     1      -6.881  72.608  26.962  1.00  0.00     0.179 C 
BRANCH   7   8
HETATM    8  O6  UNL     1      -6.009  71.549  26.697  1.00  0.00    -0.390 OA
ATOM      9  H6  UNL     1      -6.286  71.043  25.942  1.00  0.00     0.210 HD
ENDBRANCH   7   8
BRANCH   7  10
HETATM   10  C11 UNL     1      -7.153  73.242  25.638  1.00  0.00     0.174 C 
BRANCH  10  11
HETATM   11  O7  UNL     1      -8.135  72.403  25.021  1.00  0.00    -0.391 OA
ATOM     12  H7  UNL     1      -7.642  71.686  24.641  1.00  0.00     0.210 HD
ENDBRANCH  10  11
BRANCH  10  13
HETATM   13  C12 UNL     1      -6.003  73.113  24.647  1.00  0.00     0.263 C 
BRANCH  13  14
HETATM   14  N2  UNL     1      -6.260  72.370  23.481  1.00  0.00    -0.077 N 
ATOM     15  H23 UNL     1      -5.388  72.210  22.977  1.00  0.00     0.274 HD
ATOM     16  H22 UNL     1      -6.508  71.413  23.731  1.00  0.00     0.274 HD
ATOM     17  H21 UNL     1      -6.960  72.751  22.844  1.00  0.00     0.274 HD
ENDBRANCH  13  14
ENDBRANCH  10  13
ENDBRANCH   7  10
ENDBRANCH   5   7
BRANCH   4  18
HETATM   18  N1  UNL     1      -5.267  75.614  28.290  1.00  0.00    -0.352 N 
HETATM   19  C7  UNL     1      -4.485  76.231  27.306  1.00  0.00     0.214 C 
HETATM   20  C8  UNL     1      -3.219  76.955  27.570  1.00  0.00     0.117 C 
HETATM   21  O5  UNL     1      -4.878  76.171  26.118  1.00  0.00    -0.274 OA
ATOM     22  H1  UNL     1      -4.964  75.651  29.263  1.00  0.00     0.163 HD
ENDBRANCH   4  18
BRANCH   3  23
HETATM   23  O4  UNL     1      -7.782  76.752  28.843  1.00  0.00    -0.393 OA
ATOM     24  H4  UNL     1      -7.955  76.960  27.933  1.00  0.00     0.210 HD
ENDBRANCH   3  23
BRANCH   1  25
HETATM   25  O1  UNL     1      -9.104  72.221  28.971  1.00  0.00    -0.351 OA
HETATM   26  C1  UNL     1     -10.166  72.712  28.279  1.00  0.00     0.206 C 
ENDBRANCH   1  25
BRANCH   1  27
HETATM   27  C3  UNL     1      -8.398  73.173  30.963  1.00  0.00     0.239 C 
HETATM   28  O2  UNL     1      -7.363  73.140  31.656  1.00  0.00    -0.644 OA
HETATM   29  O3  UNL     1      -9.600  73.198  31.634  1.00  0.00    -0.644 OA
ENDBRANCH   1  27
TORSDOF 10
ENDMDL
