MODEL 2
REMARK VINA RESULT: -7.124540480      3.358      4.501
REMARK  7 active torsions:
REMARK  status: ('A' for Active; 'I' for Inactive)
REMARK    1  A    between atoms: N5_13  and  C6_14 
REMARK    2  A    between atoms: C7_16  and  C8_17 
REMARK    3  A    between atoms: C8_17  and  O2_18 
REMARK    4  A    between atoms: O2_18  and  P1_19 
REMARK    5  A    between atoms: C9_23  and  O6_24 
REMARK    6  A    between atoms: C10_26  and  O7_27 
REMARK    7  A    between atoms: O7_27  and  P2_28 
ROOT
HETATM    1  C6  UNL     1      13.822  14.524   4.916  1.00  0.00     0.263 C 
HETATM    2  O1  UNL     1      13.471  14.996   6.179  1.00  0.00    -0.353 OA
HETATM    3  C7  UNL     1      13.129  13.811   6.828  1.00  0.00     0.180 C 
HETATM    4  C9  UNL     1      14.260  12.837   6.494  1.00  0.00     0.183 C 
HETATM    5  C10 UNL     1      14.808  13.454   5.212  1.00  0.00     0.216 C 
ENDROOT
BRANCH   1   6
HETATM    6  N5  UNL     1      14.295  15.581   4.055  1.00  0.00    -0.297 N 
HETATM    7  C3  UNL     1      14.343  15.579   2.726  1.00  0.00     0.142 A 
HETATM    8  N3  UNL     1      14.003  14.687   1.794  1.00  0.00    -0.336 N 
HETATM    9  C4  UNL     1      14.871  16.798   2.322  1.00  0.00     0.119 A 
HETATM   10  C2  UNL     1      14.173  14.977   0.482  1.00  0.00     0.183 A 
ATOM     11  H3  UNL     1      13.613  13.786   2.069  1.00  0.00     0.168 HD
HETATM   12  N2  UNL     1      14.689  16.168   0.076  1.00  0.00    -0.339 N 
HETATM   13  C1  UNL     1      15.049  17.103   0.982  1.00  0.00     0.148 A 
ATOM     14  H2  UNL     1      14.803  16.356  -0.920  1.00  0.00     0.167 HD
HETATM   15  N1  UNL     1      15.588  18.348   0.551  1.00  0.00    -0.080 NA
HETATM   16  N4  UNL     1      15.127  17.503   3.416  1.00  0.00    -0.346 N 
HETATM   17  C5  UNL     1      14.776  16.760   4.478  1.00  0.00     0.188 A 
ATOM     18  H4  UNL     1      15.522  18.444   3.445  1.00  0.00     0.167 HD
ENDBRANCH   1   6
BRANCH   5  19
HETATM   19  O7  UNL     1      14.829  12.585   4.174  1.00  0.00    -0.270 OA
BRANCH  19  20
HETATM   20  P2  UNL     1      16.140  12.131   3.565  1.00  0.00     0.422 P 
HETATM   21  O8  UNL     1      16.184  10.832   4.585  1.00  0.00    -0.617 OA
HETATM   22  O9  UNL     1      15.365  11.996   2.086  1.00  0.00    -0.617 OA
HETATM   23  O10 UNL     1      17.040  13.450   3.871  1.00  0.00    -0.617 OA
ENDBRANCH  19  20
ENDBRANCH   5  19
BRANCH   3  24
HETATM   24  C8  UNL     1      13.035  14.009   8.299  1.00  0.00     0.217 C 
BRANCH  24  25
HETATM   25  O2  UNL     1      14.309  13.660   8.809  1.00  0.00    -0.280 OA
BRANCH  25  26
HETATM   26  P1  UNL     1      14.872  14.628   9.852  1.00  0.00     0.422 P 
HETATM   27  O3  UNL     1      15.373  13.409  10.818  1.00  0.00    -0.617 OA
HETATM   28  O4  UNL     1      15.839  15.357   8.776  1.00  0.00    -0.617 OA
HETATM   29  O5  UNL     1      13.300  15.212  10.046  1.00  0.00    -0.617 OA
ENDBRANCH  25  26
ENDBRANCH  24  25
ENDBRANCH   3  24
BRANCH   4  30
HETATM   30  O6  UNL     1      13.785  11.565   6.253  1.00  0.00    -0.390 OA
ATOM     31  H6  UNL     1      14.475  10.980   5.963  1.00  0.00     0.210 HD
ENDBRANCH   4  30
TORSDOF 7
ENDMDL
