MODEL 3
REMARK VINA RESULT: -7.108021590      2.370      3.138
REMARK  7 active torsions:
REMARK  status: ('A' for Active; 'I' for Inactive)
REMARK    1  A    between atoms: N5_13  and  C6_14 
REMARK    2  A    between atoms: C7_16  and  C8_17 
REMARK    3  A    between atoms: C8_17  and  O2_18 
REMARK    4  A    between atoms: O2_18  and  P1_19 
REMARK    5  A    between atoms: C9_23  and  O6_24 
REMARK    6  A    between atoms: C10_26  and  O7_27 
REMARK    7  A    between atoms: O7_27  and  P2_28 
ROOT
HETATM    1  C6  UNL     1      14.071  15.077   6.040  1.00  0.00     0.263 C 
HETATM    2  O1  UNL     1      14.543  14.769   7.314  1.00  0.00    -0.353 OA
HETATM    3  C7  UNL     1      13.412  15.012   8.091  1.00  0.00     0.180 C 
HETATM    4  C9  UNL     1      12.267  14.324   7.347  1.00  0.00     0.183 C 
HETATM    5  C10 UNL     1      12.829  14.268   5.931  1.00  0.00     0.216 C 
ENDROOT
BRANCH   1   6
HETATM    6  N5  UNL     1      15.062  14.831   5.020  1.00  0.00    -0.297 N 
HETATM    7  C3  UNL     1      15.659  13.677   4.737  1.00  0.00     0.142 A 
HETATM    8  N3  UNL     1      15.570  12.445   5.243  1.00  0.00    -0.336 N 
HETATM    9  C4  UNL     1      16.540  13.905   3.688  1.00  0.00     0.119 A 
HETATM   10  C2  UNL     1      16.328  11.446   4.734  1.00  0.00     0.183 A 
ATOM     11  H3  UNL     1      14.929  12.257   6.014  1.00  0.00     0.168 HD
HETATM   12  N2  UNL     1      17.192  11.658   3.706  1.00  0.00    -0.339 N 
HETATM   13  C1  UNL     1      17.319  12.887   3.161  1.00  0.00     0.148 A 
ATOM     14  H2  UNL     1      17.748  10.883   3.344  1.00  0.00     0.167 HD
HETATM   15  N1  UNL     1      18.225  13.104   2.085  1.00  0.00    -0.080 NA
HETATM   16  N4  UNL     1      16.450  15.188   3.364  1.00  0.00    -0.346 N 
HETATM   17  C5  UNL     1      15.546  15.757   4.178  1.00  0.00     0.188 A 
ATOM     18  H4  UNL     1      16.975  15.660   2.627  1.00  0.00     0.167 HD
ENDBRANCH   1   6
BRANCH   5  19
HETATM   19  O7  UNL     1      12.017  14.845   5.015  1.00  0.00    -0.270 OA
BRANCH  19  20
HETATM   20  P2  UNL     1      11.454  14.044   3.859  1.00  0.00     0.422 P 
HETATM   21  O8  UNL     1      10.034  13.827   4.676  1.00  0.00    -0.617 OA
HETATM   22  O9  UNL     1      11.647  15.388   2.879  1.00  0.00    -0.617 OA
HETATM   23  O10 UNL     1      12.563  12.856   3.802  1.00  0.00    -0.617 OA
ENDBRANCH  19  20
ENDBRANCH   5  19
BRANCH   3  24
HETATM   24  C8  UNL     1      13.560  14.437   9.454  1.00  0.00     0.217 C 
BRANCH  24  25
HETATM   25  O2  UNL     1      12.248  14.108   9.870  1.00  0.00    -0.280 OA
BRANCH  25  26
HETATM   26  P1  UNL     1      11.786  14.802  11.154  1.00  0.00     0.422 P 
HETATM   27  O3  UNL     1      13.279  14.731  11.815  1.00  0.00    -0.617 OA
HETATM   28  O4  UNL     1      11.234  16.098  10.355  1.00  0.00    -0.617 OA
HETATM   29  O5  UNL     1      10.741  13.497  11.392  1.00  0.00    -0.617 OA
ENDBRANCH  25  26
ENDBRANCH  24  25
ENDBRANCH   3  24
BRANCH   4  30
HETATM   30  O6  UNL     1      11.111  15.076   7.377  1.00  0.00    -0.390 OA
ATOM     31  H6  UNL     1      11.098  15.732   6.690  1.00  0.00     0.210 HD
ENDBRANCH   4  30
TORSDOF 7
ENDMDL
