MODEL 1
REMARK VINA RESULT: -7.151161359      0.000      0.000
REMARK  7 active torsions:
REMARK  status: ('A' for Active; 'I' for Inactive)
REMARK    1  A    between atoms: N5_13  and  C6_14 
REMARK    2  A    between atoms: C7_16  and  C8_17 
REMARK    3  A    between atoms: C8_17  and  O2_18 
REMARK    4  A    between atoms: O2_18  and  P1_19 
REMARK    5  A    between atoms: C9_23  and  O6_24 
REMARK    6  A    between atoms: C10_26  and  O7_27 
REMARK    7  A    between atoms: O7_27  and  P2_28 
ROOT
HETATM    1  C6  UNL     1      14.078  14.322   6.892  1.00  0.00     0.263 C 
HETATM    2  O1  UNL     1      12.941  13.789   7.498  1.00  0.00    -0.353 OA
HETATM    3  C7  UNL     1      13.061  14.292   8.792  1.00  0.00     0.180 C 
HETATM    4  C9  UNL     1      13.393  15.774   8.611  1.00  0.00     0.183 C 
HETATM    5  C10 UNL     1      13.984  15.771   7.205  1.00  0.00     0.216 C 
ENDROOT
BRANCH   1   6
HETATM    6  N5  UNL     1      14.147  13.996   5.488  1.00  0.00    -0.297 N 
HETATM    7  C3  UNL     1      15.044  13.223   4.882  1.00  0.00     0.142 A 
HETATM    8  N3  UNL     1      16.103  12.534   5.309  1.00  0.00    -0.336 N 
HETATM    9  C4  UNL     1      14.728  13.192   3.531  1.00  0.00     0.119 A 
HETATM   10  C2  UNL     1      16.848  11.821   4.432  1.00  0.00     0.183 A 
ATOM     11  H3  UNL     1      16.353  12.543   6.298  1.00  0.00     0.168 HD
HETATM   12  N2  UNL     1      16.547  11.782   3.107  1.00  0.00    -0.339 N 
HETATM   13  C1  UNL     1      15.485  12.464   2.625  1.00  0.00     0.148 A 
ATOM     14  H2  UNL     1      17.127  11.234   2.471  1.00  0.00     0.167 HD
HETATM   15  N1  UNL     1      15.174  12.421   1.237  1.00  0.00    -0.080 NA
HETATM   16  N4  UNL     1      13.650  13.945   3.356  1.00  0.00    -0.346 N 
HETATM   17  C5  UNL     1      13.292  14.438   4.553  1.00  0.00     0.188 A 
ATOM     18  H4  UNL     1      13.175  14.118   2.469  1.00  0.00     0.167 HD
ENDBRANCH   1   6
BRANCH   5  19
HETATM   19  O7  UNL     1      15.226  16.306   7.152  1.00  0.00    -0.270 OA
BRANCH  19  20
HETATM   20  P2  UNL     1      15.480  17.616   6.435  1.00  0.00     0.422 P 
HETATM   21  O8  UNL     1      16.620  18.031   7.556  1.00  0.00    -0.617 OA
HETATM   22  O9  UNL     1      15.933  16.745   5.078  1.00  0.00    -0.617 OA
HETATM   23  O10 UNL     1      13.983  18.247   6.508  1.00  0.00    -0.617 OA
ENDBRANCH  19  20
ENDBRANCH   5  19
BRANCH   3  24
HETATM   24  C8  UNL     1      11.791  14.137   9.550  1.00  0.00     0.217 C 
BRANCH  24  25
HETATM   25  O2  UNL     1      11.729  15.255  10.416  1.00  0.00    -0.280 OA
BRANCH  25  26
HETATM   26  P1  UNL     1      11.628  14.913  11.904  1.00  0.00     0.422 P 
HETATM   27  O3  UNL     1      13.248  14.766  12.055  1.00  0.00    -0.617 OA
HETATM   28  O4  UNL     1      10.828  16.279  12.249  1.00  0.00    -0.617 OA
HETATM   29  O5  UNL     1      10.737  13.552  11.451  1.00  0.00    -0.617 OA
ENDBRANCH  25  26
ENDBRANCH  24  25
ENDBRANCH   3  24
BRANCH   4  30
HETATM   30  O6  UNL     1      14.330  16.204   9.527  1.00  0.00    -0.390 OA
ATOM     31  H6  UNL     1      15.034  16.687   9.112  1.00  0.00     0.210 HD
ENDBRANCH   4  30
TORSDOF 7
ENDMDL
