MODEL 2
REMARK VINA RESULT: -7.531932625      1.165      2.054
REMARK  7 active torsions:
REMARK  status: ('A' for Active; 'I' for Inactive)
REMARK    1  A    between atoms: N5_13  and  C6_14 
REMARK    2  A    between atoms: C7_16  and  C8_17 
REMARK    3  A    between atoms: C8_17  and  O2_18 
REMARK    4  A    between atoms: O2_18  and  P1_19 
REMARK    5  A    between atoms: C9_23  and  O6_24 
REMARK    6  A    between atoms: O6_24  and  P2_25 
REMARK    7  A    between atoms: C10_29  and  O10_30 
ROOT
HETATM    1  C6  UNL     1      12.471  14.302   7.296  1.00  0.00     0.262 C 
HETATM    2  O1  UNL     1      12.294  15.680   7.316  1.00  0.00    -0.353 OA
HETATM    3  C7  UNL     1      11.707  15.873   8.566  1.00  0.00     0.181 C 
HETATM    4  C9  UNL     1      12.310  14.867   9.525  1.00  0.00     0.199 C 
HETATM    5  C10 UNL     1      13.245  14.154   8.617  1.00  0.00     0.199 C 
ENDROOT
BRANCH   1   6
HETATM    6  N5  UNL     1      13.243  13.839   6.184  1.00  0.00    -0.297 N 
HETATM    7  C3  UNL     1      14.127  14.602   5.516  1.00  0.00     0.142 A 
HETATM    8  N3  UNL     1      14.541  15.894   5.642  1.00  0.00    -0.336 N 
HETATM    9  C4  UNL     1      14.716  13.891   4.499  1.00  0.00     0.119 A 
HETATM   10  C2  UNL     1      15.461  16.412   4.817  1.00  0.00     0.183 A 
ATOM     11  H3  UNL     1      14.143  16.478   6.377  1.00  0.00     0.168 HD
HETATM   12  N2  UNL     1      16.023  15.711   3.835  1.00  0.00    -0.339 N 
HETATM   13  C1  UNL     1      15.666  14.431   3.650  1.00  0.00     0.148 A 
ATOM     14  H2  UNL     1      16.720  16.144   3.229  1.00  0.00     0.167 HD
HETATM   15  N1  UNL     1      16.257  13.675   2.612  1.00  0.00    -0.080 NA
HETATM   16  N4  UNL     1      14.167  12.664   4.561  1.00  0.00    -0.346 N 
HETATM   17  C5  UNL     1      13.276  12.647   5.587  1.00  0.00     0.188 A 
ATOM     18  H4  UNL     1      14.382  11.882   3.944  1.00  0.00     0.167 HD
ENDBRANCH   1   6
BRANCH   5  19
HETATM   19  O10 UNL     1      13.583  12.889   8.922  1.00  0.00    -0.388 OA
ATOM     20  H10 UNL     1      14.515  12.752   9.046  1.00  0.00     0.210 HD
ENDBRANCH   5  19
BRANCH   3  21
HETATM   21  C8  UNL     1      11.924  17.297   9.051  1.00  0.00     0.217 C 
BRANCH  21  22
HETATM   22  O2  UNL     1      13.159  17.347   9.633  1.00  0.00    -0.280 OA
BRANCH  22  23
HETATM   23  P1  UNL     1      13.293  18.100  11.074  1.00  0.00     0.422 P 
HETATM   24  O3  UNL     1      14.583  19.208  11.269  1.00  0.00    -0.617 OA
HETATM   25  O4  UNL     1      12.184  18.001  12.249  1.00  0.00    -0.617 OA
HETATM   26  O5  UNL     1      14.247  17.026  11.615  1.00  0.00    -0.617 OA
ENDBRANCH  22  23
ENDBRANCH  21  22
ENDBRANCH   3  21
BRANCH   4  27
HETATM   27  O6  UNL     1      11.301  14.168  10.066  1.00  0.00    -0.272 OA
BRANCH  27  28
HETATM   28  P2  UNL     1      10.780  14.431  11.497  1.00  0.00     0.422 P 
HETATM   29  O7  UNL     1      12.392  14.287  11.987  1.00  0.00    -0.617 OA
HETATM   30  O8  UNL     1      10.414  14.995  12.874  1.00  0.00    -0.617 OA
HETATM   31  O9  UNL     1       9.850  13.126  11.539  1.00  0.00    -0.617 OA
ENDBRANCH  27  28
ENDBRANCH   4  27
TORSDOF 7
ENDMDL
