MODEL 3
REMARK VINA RESULT: -7.314935994      2.882      4.713
REMARK  7 active torsions:
REMARK  status: ('A' for Active; 'I' for Inactive)
REMARK    1  A    between atoms: N5_13  and  C6_14 
REMARK    2  A    between atoms: C7_16  and  C8_17 
REMARK    3  A    between atoms: C8_17  and  O2_18 
REMARK    4  A    between atoms: O2_18  and  P1_19 
REMARK    5  A    between atoms: C9_23  and  O6_24 
REMARK    6  A    between atoms: O6_24  and  P2_25 
REMARK    7  A    between atoms: C10_29  and  O10_30 
ROOT
HETATM    1  C6  UNL     1      12.293  13.940   6.125  1.00  0.00     0.262 C 
HETATM    2  O1  UNL     1      11.191  14.121   5.298  1.00  0.00    -0.353 OA
HETATM    3  C7  UNL     1      10.136  14.026   6.203  1.00  0.00     0.181 C 
HETATM    4  C9  UNL     1      10.589  14.636   7.514  1.00  0.00     0.199 C 
HETATM    5  C10 UNL     1      11.977  15.032   7.163  1.00  0.00     0.199 C 
ENDROOT
BRANCH   1   6
HETATM    6  N5  UNL     1      13.544  14.183   5.476  1.00  0.00    -0.297 N 
HETATM    7  C3  UNL     1      14.373  13.210   5.058  1.00  0.00     0.142 A 
HETATM    8  N3  UNL     1      14.323  11.849   5.097  1.00  0.00    -0.336 N 
HETATM    9  C4  UNL     1      15.496  13.742   4.473  1.00  0.00     0.119 A 
HETATM   10  C2  UNL     1      15.315  11.103   4.592  1.00  0.00     0.183 A 
ATOM     11  H3  UNL     1      13.516  11.389   5.517  1.00  0.00     0.168 HD
HETATM   12  N2  UNL     1      16.398  11.632   4.028  1.00  0.00    -0.339 N 
HETATM   13  C1  UNL     1      16.517  12.966   3.952  1.00  0.00     0.148 A 
ATOM     14  H2  UNL     1      17.130  11.028   3.656  1.00  0.00     0.167 HD
HETATM   15  N1  UNL     1      17.662  13.541   3.354  1.00  0.00    -0.080 NA
HETATM   16  N4  UNL     1      15.334  15.076   4.543  1.00  0.00    -0.346 N 
HETATM   17  C5  UNL     1      14.146  15.329   5.154  1.00  0.00     0.188 A 
ATOM     18  H4  UNL     1      15.989  15.776   4.198  1.00  0.00     0.167 HD
ENDBRANCH   1   6
BRANCH   5  19
HETATM   19  O10 UNL     1      12.879  15.129   8.155  1.00  0.00    -0.388 OA
ATOM     20  H10 UNL     1      13.176  14.294   8.496  1.00  0.00     0.210 HD
ENDBRANCH   5  19
BRANCH   3  21
HETATM   21  C8  UNL     1       8.898  14.726   5.667  1.00  0.00     0.217 C 
BRANCH  21  22
HETATM   22  O2  UNL     1       7.933  13.774   5.493  1.00  0.00    -0.280 OA
BRANCH  22  23
HETATM   23  P1  UNL     1       7.674  13.217   3.983  1.00  0.00     0.422 P 
HETATM   24  O3  UNL     1       6.461  13.987   3.054  1.00  0.00    -0.617 OA
HETATM   25  O4  UNL     1       8.611  12.114   3.256  1.00  0.00    -0.617 OA
HETATM   26  O5  UNL     1       6.578  12.255   4.460  1.00  0.00    -0.617 OA
ENDBRANCH  22  23
ENDBRANCH  21  22
ENDBRANCH   3  21
BRANCH   4  27
HETATM   27  O6  UNL     1      10.421  13.712   8.471  1.00  0.00    -0.272 OA
BRANCH  27  28
HETATM   28  P2  UNL     1       9.725  14.024   9.816  1.00  0.00     0.422 P 
HETATM   29  O7  UNL     1      11.262  13.897  10.509  1.00  0.00    -0.617 OA
HETATM   30  O8  UNL     1       9.191  14.635  11.116  1.00  0.00    -0.617 OA
HETATM   31  O9  UNL     1       8.791  12.721   9.785  1.00  0.00    -0.617 OA
ENDBRANCH  27  28
ENDBRANCH   4  27
TORSDOF 7
ENDMDL
