MODEL 16
REMARK VINA RESULT: -7.019425682      5.970      7.304
REMARK  7 active torsions:
REMARK  status: ('A' for Active; 'I' for Inactive)
REMARK    1  A    between atoms: N5_13  and  C6_14 
REMARK    2  A    between atoms: C7_16  and  C8_17 
REMARK    3  A    between atoms: C8_17  and  O2_18 
REMARK    4  A    between atoms: O2_18  and  P1_19 
REMARK    5  A    between atoms: C9_23  and  O6_24 
REMARK    6  A    between atoms: O6_24  and  P2_25 
REMARK    7  A    between atoms: C10_29  and  O10_30 
ROOT
HETATM    1  C6  UNL     1      13.689  19.886  10.668  1.00  0.00     0.262 C 
HETATM    2  O1  UNL     1      14.305  18.768  11.216  1.00  0.00    -0.353 OA
HETATM    3  C7  UNL     1      13.237  18.134  11.847  1.00  0.00     0.181 C 
HETATM    4  C9  UNL     1      11.998  18.356  11.004  1.00  0.00     0.199 C 
HETATM    5  C10 UNL     1      12.566  19.170   9.898  1.00  0.00     0.199 C 
ENDROOT
BRANCH   1   6
HETATM    6  N5  UNL     1      14.533  20.632   9.786  1.00  0.00    -0.297 N 
HETATM    7  C3  UNL     1      15.785  21.016  10.094  1.00  0.00     0.142 A 
HETATM    8  N3  UNL     1      16.577  20.856  11.191  1.00  0.00    -0.336 N 
HETATM    9  C4  UNL     1      16.350  21.716   9.056  1.00  0.00     0.119 A 
HETATM   10  C2  UNL     1      17.819  21.358  11.230  1.00  0.00     0.183 A 
ATOM     11  H3  UNL     1      16.219  20.346  11.997  1.00  0.00     0.168 HD
HETATM   12  N2  UNL     1      18.354  22.034  10.216  1.00  0.00    -0.339 N 
HETATM   13  C1  UNL     1      17.634  22.231   9.101  1.00  0.00     0.148 A 
ATOM     14  H2  UNL     1      19.303  22.399  10.287  1.00  0.00     0.167 HD
HETATM   15  N1  UNL     1      18.191  22.947   8.017  1.00  0.00    -0.080 NA
HETATM   16  N4  UNL     1      15.407  21.751   8.097  1.00  0.00    -0.346 N 
HETATM   17  C5  UNL     1      14.311  21.089   8.554  1.00  0.00     0.188 A 
ATOM     18  H4  UNL     1      15.498  22.197   7.185  1.00  0.00     0.167 HD
ENDBRANCH   1   6
BRANCH   5  19
HETATM   19  O10 UNL     1      11.740  19.995   9.231  1.00  0.00    -0.388 OA
ATOM     20  H10 UNL     1      10.913  20.158   9.668  1.00  0.00     0.210 HD
ENDBRANCH   5  19
BRANCH   3  21
HETATM   21  C8  UNL     1      13.520  16.652  12.034  1.00  0.00     0.217 C 
BRANCH  21  22
HETATM   22  O2  UNL     1      14.247  16.236  10.955  1.00  0.00    -0.280 OA
BRANCH  22  23
HETATM   23  P1  UNL     1      14.749  14.684  10.926  1.00  0.00     0.422 P 
HETATM   24  O3  UNL     1      15.624  14.162   9.551  1.00  0.00    -0.617 OA
HETATM   25  O4  UNL     1      14.629  13.675  12.187  1.00  0.00    -0.617 OA
HETATM   26  O5  UNL     1      13.483  14.226  10.189  1.00  0.00    -0.617 OA
ENDBRANCH  22  23
ENDBRANCH  21  22
ENDBRANCH   3  21
BRANCH   4  27
HETATM   27  O6  UNL     1      11.068  18.919  11.789  1.00  0.00    -0.272 OA
BRANCH  27  28
HETATM   28  P2  UNL     1       9.574  18.529  11.720  1.00  0.00     0.422 P 
HETATM   29  O7  UNL     1       9.449  19.184  13.274  1.00  0.00    -0.617 OA
HETATM   30  O8  UNL     1       8.046  18.478  11.621  1.00  0.00    -0.617 OA
HETATM   31  O9  UNL     1       9.856  16.958  11.573  1.00  0.00    -0.617 OA
ENDBRANCH  27  28
ENDBRANCH   4  27
TORSDOF 7
ENDMDL
