MODEL 1
REMARK VINA RESULT: -7.546290306      0.000      0.000
REMARK  7 active torsions:
REMARK  status: ('A' for Active; 'I' for Inactive)
REMARK    1  A    between atoms: N5_13  and  C6_14 
REMARK    2  A    between atoms: C7_16  and  C8_17 
REMARK    3  A    between atoms: C8_17  and  O2_18 
REMARK    4  A    between atoms: O2_18  and  P1_19 
REMARK    5  A    between atoms: C9_23  and  O6_24 
REMARK    6  A    between atoms: O6_24  and  P2_25 
REMARK    7  A    between atoms: C10_29  and  O10_30 
ROOT
HETATM    1  C6  UNL     1      12.705  14.495   7.065  1.00  0.00     0.262 C 
HETATM    2  O1  UNL     1      12.264  15.781   7.353  1.00  0.00    -0.353 OA
HETATM    3  C7  UNL     1      11.407  15.554   8.428  1.00  0.00     0.181 C 
HETATM    4  C9  UNL     1      11.981  14.420   9.252  1.00  0.00     0.199 C 
HETATM    5  C10 UNL     1      13.204  14.107   8.467  1.00  0.00     0.199 C 
ENDROOT
BRANCH   1   6
HETATM    6  N5  UNL     1      13.764  14.454   6.104  1.00  0.00    -0.297 N 
HETATM    7  C3  UNL     1      14.164  13.333   5.477  1.00  0.00     0.142 A 
HETATM    8  N3  UNL     1      13.762  12.032   5.526  1.00  0.00    -0.336 N 
HETATM    9  C4  UNL     1      15.198  13.598   4.613  1.00  0.00     0.119 A 
HETATM   10  C2  UNL     1      14.352  11.094   4.772  1.00  0.00     0.183 A 
ATOM     11  H3  UNL     1      12.998  11.766   6.147  1.00  0.00     0.168 HD
HETATM   12  N2  UNL     1      15.353  11.366   3.939  1.00  0.00    -0.339 N 
HETATM   13  C1  UNL     1      15.803  12.626   3.836  1.00  0.00     0.148 A 
ATOM     14  H2  UNL     1      15.775  10.622   3.383  1.00  0.00     0.167 HD
HETATM   15  N1  UNL     1      16.866  12.928   2.955  1.00  0.00    -0.080 NA
HETATM   16  N4  UNL     1      15.424  14.920   4.726  1.00  0.00    -0.346 N 
HETATM   17  C5  UNL     1      14.547  15.425   5.634  1.00  0.00     0.188 A 
ATOM     18  H4  UNL     1      16.131  15.451   4.219  1.00  0.00     0.167 HD
ENDBRANCH   1   6
BRANCH   5  19
HETATM   19  O10 UNL     1      13.709  12.864   8.550  1.00  0.00    -0.388 OA
ATOM     20  H10 UNL     1      14.044  12.635   9.409  1.00  0.00     0.210 HD
ENDBRANCH   5  19
BRANCH   3  21
HETATM   21  C8  UNL     1      11.239  16.813   9.262  1.00  0.00     0.217 C 
BRANCH  21  22
HETATM   22  O2  UNL     1      12.461  17.422   9.333  1.00  0.00    -0.280 OA
BRANCH  22  23
HETATM   23  P1  UNL     1      12.945  17.995  10.782  1.00  0.00     0.422 P 
HETATM   24  O3  UNL     1      14.282  19.062  10.803  1.00  0.00    -0.617 OA
HETATM   25  O4  UNL     1      12.128  17.762  12.161  1.00  0.00    -0.617 OA
HETATM   26  O5  UNL     1      13.958  16.857  10.961  1.00  0.00    -0.617 OA
ENDBRANCH  22  23
ENDBRANCH  21  22
ENDBRANCH   3  21
BRANCH   4  27
HETATM   27  O6  UNL     1      11.037  13.472   9.352  1.00  0.00    -0.272 OA
BRANCH  27  28
HETATM   28  P2  UNL     1       9.685  13.717  10.058  1.00  0.00     0.422 P 
HETATM   29  O7  UNL     1      10.541  13.552  11.507  1.00  0.00    -0.617 OA
HETATM   30  O8  UNL     1       8.481  14.261  10.835  1.00  0.00    -0.617 OA
HETATM   31  O9  UNL     1       8.978  12.419   9.438  1.00  0.00    -0.617 OA
ENDBRANCH  27  28
ENDBRANCH   4  27
TORSDOF 7
ENDMDL
