MODEL 2
REMARK VINA RESULT: -8.098098674      2.289      3.661
REMARK  8 active torsions:
REMARK  status: ('A' for Active; 'I' for Inactive)
REMARK    1  A    between atoms: N5_13  and  C6_14 
REMARK    2  A    between atoms: C7_16  and  C8_17 
REMARK    3  A    between atoms: C8_17  and  O2_18 
REMARK    4  A    between atoms: O2_18  and  P1_19 
REMARK    5  A    between atoms: P1_19  and  O5_22 
REMARK    6  A    between atoms: O5_22  and  P2_23 
REMARK    7  A    between atoms: C9_27  and  O9_28 
REMARK    8  A    between atoms: C10_30  and  O10_31 
ROOT
HETATM    1  C6  UNL     1      14.290  14.106   6.428  1.00  0.00     0.262 C 
HETATM    2  O1  UNL     1      13.111  14.852   6.453  1.00  0.00    -0.353 OA
HETATM    3  C7  UNL     1      12.538  14.392   7.638  1.00  0.00     0.180 C 
HETATM    4  C9  UNL     1      13.639  14.389   8.664  1.00  0.00     0.182 C 
HETATM    5  C10 UNL     1      14.888  14.445   7.773  1.00  0.00     0.198 C 
ENDROOT
BRANCH   1   6
HETATM    6  N5  UNL     1      15.145  14.449   5.328  1.00  0.00    -0.297 N 
HETATM    7  C3  UNL     1      15.781  13.532   4.569  1.00  0.00     0.142 A 
HETATM    8  N3  UNL     1      15.796  12.178   4.621  1.00  0.00    -0.336 N 
HETATM    9  C4  UNL     1      16.521  14.173   3.599  1.00  0.00     0.119 A 
HETATM   10  C2  UNL     1      16.509  11.428   3.758  1.00  0.00     0.183 A 
ATOM     11  H3  UNL     1      15.247  11.708   5.341  1.00  0.00     0.168 HD
HETATM   12  N2  UNL     1      17.221  12.049   2.824  1.00  0.00    -0.339 N 
HETATM   13  C1  UNL     1      17.242  13.400   2.725  1.00  0.00     0.148 A 
ATOM     14  H2  UNL     1      17.767  11.494   2.164  1.00  0.00     0.167 HD
HETATM   15  N1  UNL     1      18.006  14.009   1.725  1.00  0.00    -0.080 NA
HETATM   16  N4  UNL     1      16.308  15.486   3.798  1.00  0.00    -0.346 N 
HETATM   17  C5  UNL     1      15.476  15.640   4.845  1.00  0.00     0.188 A 
ATOM     18  H4  UNL     1      16.712  16.242   3.245  1.00  0.00     0.167 HD
ENDBRANCH   1   6
BRANCH   5  19
HETATM   19  O10 UNL     1      15.843  13.548   8.191  1.00  0.00    -0.388 OA
ATOM     20  H10 UNL     1      15.593  13.062   8.967  1.00  0.00     0.210 HD
ENDBRANCH   5  19
BRANCH   3  21
HETATM   21  C8  UNL     1      11.356  15.234   8.060  1.00  0.00     0.216 C 
BRANCH  21  22
HETATM   22  O2  UNL     1      10.283  14.412   8.205  1.00  0.00    -0.287 OA
BRANCH  22  23
HETATM   23  P1  UNL     1       9.946  13.829   9.696  1.00  0.00     0.418 P 
HETATM   24  O3  UNL     1       9.530  15.189  10.254  1.00  0.00    -0.624 OA
HETATM   25  O4  UNL     1       8.340  13.288   9.979  1.00  0.00    -0.624 OA
BRANCH  23  26
HETATM   26  O5  UNL     1      11.087  13.564  10.799  1.00  0.00    -0.173 OA
BRANCH  26  27
HETATM   27  P2  UNL     1      11.487  14.764  11.850  1.00  0.00     0.431 P 
HETATM   28  O6  UNL     1      10.815  14.833  13.318  1.00  0.00    -0.616 OA
HETATM   29  O7  UNL     1      12.428  16.049  11.283  1.00  0.00    -0.616 OA
HETATM   30  O8  UNL     1      12.777  14.039  12.238  1.00  0.00    -0.616 OA
ENDBRANCH  26  27
ENDBRANCH  23  26
ENDBRANCH  22  23
ENDBRANCH  21  22
ENDBRANCH   3  21
BRANCH   4  31
HETATM   31  O9  UNL     1      13.701  13.152   9.321  1.00  0.00    -0.390 OA
ATOM     32  H9  UNL     1      14.583  12.978   9.628  1.00  0.00     0.210 HD
ENDBRANCH   4  31
TORSDOF 8
ENDMDL
