MODEL 3
REMARK VINA RESULT: -8.045613146      2.394      4.037
REMARK  8 active torsions:
REMARK  status: ('A' for Active; 'I' for Inactive)
REMARK    1  A    between atoms: N5_13  and  C6_14 
REMARK    2  A    between atoms: C7_16  and  C8_17 
REMARK    3  A    between atoms: C8_17  and  O2_18 
REMARK    4  A    between atoms: O2_18  and  P1_19 
REMARK    5  A    between atoms: P1_19  and  O5_22 
REMARK    6  A    between atoms: O5_22  and  P2_23 
REMARK    7  A    between atoms: C9_27  and  O9_28 
REMARK    8  A    between atoms: C10_30  and  O10_31 
ROOT
HETATM    1  C6  UNL     1      14.208  13.616   6.433  1.00  0.00     0.262 C 
HETATM    2  O1  UNL     1      13.057  14.404   6.405  1.00  0.00    -0.353 OA
HETATM    3  C7  UNL     1      12.568  14.194   7.694  1.00  0.00     0.180 C 
HETATM    4  C9  UNL     1      13.747  14.332   8.619  1.00  0.00     0.182 C 
HETATM    5  C10 UNL     1      14.922  14.170   7.644  1.00  0.00     0.198 C 
ENDROOT
BRANCH   1   6
HETATM    6  N5  UNL     1      14.983  13.715   5.228  1.00  0.00    -0.297 N 
HETATM    7  C3  UNL     1      15.188  14.876   4.572  1.00  0.00     0.142 A 
HETATM    8  N3  UNL     1      14.771  16.139   4.829  1.00  0.00    -0.336 N 
HETATM    9  C4  UNL     1      15.968  14.642   3.460  1.00  0.00     0.119 A 
HETATM   10  C2  UNL     1      15.089  17.182   4.038  1.00  0.00     0.183 A 
ATOM     11  H3  UNL     1      14.195  16.308   5.654  1.00  0.00     0.168 HD
HETATM   12  N2  UNL     1      15.840  16.953   2.966  1.00  0.00    -0.339 N 
HETATM   13  C1  UNL     1      16.285  15.711   2.661  1.00  0.00     0.148 A 
ATOM     14  H2  UNL     1      16.087  17.733   2.357  1.00  0.00     0.167 HD
HETATM   15  N1  UNL     1      17.074  15.518   1.523  1.00  0.00    -0.080 NA
HETATM   16  N4  UNL     1      16.219  13.321   3.473  1.00  0.00    -0.346 N 
HETATM   17  C5  UNL     1      15.619  12.772   4.545  1.00  0.00     0.188 A 
ATOM     18  H4  UNL     1      16.774  12.816   2.781  1.00  0.00     0.167 HD
ENDBRANCH   1   6
BRANCH   5  19
HETATM   19  O10 UNL     1      15.881  13.325   8.150  1.00  0.00    -0.388 OA
ATOM     20  H10 UNL     1      15.693  13.021   9.030  1.00  0.00     0.210 HD
ENDBRANCH   5  19
BRANCH   3  21
HETATM   21  C8  UNL     1      11.448  15.149   8.037  1.00  0.00     0.216 C 
BRANCH  21  22
HETATM   22  O2  UNL     1      10.309  14.424   8.197  1.00  0.00    -0.287 OA
BRANCH  22  23
HETATM   23  P1  UNL     1       9.973  13.821   9.680  1.00  0.00     0.418 P 
HETATM   24  O3  UNL     1       9.536  15.169  10.249  1.00  0.00    -0.624 OA
HETATM   25  O4  UNL     1       8.372  13.256   9.948  1.00  0.00    -0.624 OA
BRANCH  23  26
HETATM   26  O5  UNL     1      11.111  13.559  10.786  1.00  0.00    -0.173 OA
BRANCH  26  27
HETATM   27  P2  UNL     1      11.515  14.767  11.829  1.00  0.00     0.431 P 
HETATM   28  O6  UNL     1      10.813  14.871  13.281  1.00  0.00    -0.616 OA
HETATM   29  O7  UNL     1      12.494  16.024  11.264  1.00  0.00    -0.616 OA
HETATM   30  O8  UNL     1      12.780  14.021  12.254  1.00  0.00    -0.616 OA
ENDBRANCH  26  27
ENDBRANCH  23  26
ENDBRANCH  22  23
ENDBRANCH  21  22
ENDBRANCH   3  21
BRANCH   4  31
HETATM   31  O9  UNL     1      13.826  13.235   9.489  1.00  0.00    -0.390 OA
ATOM     32  H9  UNL     1      14.659  12.790   9.393  1.00  0.00     0.210 HD
ENDBRANCH   4  31
TORSDOF 8
ENDMDL
