MODEL 7
REMARK VINA RESULT: -9.396897876      1.355      9.375
REMARK  16 active torsions:
REMARK  status: ('A' for Active; 'I' for Inactive)
REMARK       I    between atoms: C2_2  and  N1_4 
REMARK    1  A    between atoms: N1_4  and  C3_6 
REMARK    2  A    between atoms: C3_6  and  C4_7 
REMARK    3  A    between atoms: C3_6  and  C29_44 
REMARK       I    between atoms: C4_7  and  N2_9 
REMARK    4  A    between atoms: N2_9  and  C5_11 
REMARK    5  A    between atoms: C5_11  and  C6_12 
REMARK    6  A    between atoms: C5_11  and  C13_19 
REMARK    7  A    between atoms: C6_12  and  C7_13 
REMARK    8  A    between atoms: C13_19  and  O3_20 
REMARK    9  A    between atoms: C13_19  and  C14_22 
REMARK   10  A    between atoms: C14_22  and  N3_23 
REMARK   11  A    between atoms: N3_23  and  C15_24 
REMARK   12  A    between atoms: N3_23  and  N4_31 
REMARK   13  A    between atoms: C15_24  and  C16_25 
REMARK       I    between atoms: N4_31  and  C22_33 
REMARK   14  A    between atoms: C22_33  and  C23_35 
REMARK   15  A    between atoms: C23_35  and  N5_36 
REMARK   16  A    between atoms: C23_35  and  C26_41 
REMARK       I    between atoms: N5_36  and  C24_38 
ROOT
HETATM    1  C13 UNL     1       6.776   0.327  14.033  1.00  0.00     0.156 C 
ENDROOT
BRANCH   1   2
HETATM    2  C5  UNL     1       6.372   0.552  12.636  1.00  0.00     0.118 C 
BRANCH   2   3
HETATM    3  N2  UNL     1       5.016   1.144  12.604  1.00  0.00    -0.352 N 
HETATM    4  C4  UNL     1       3.950   0.408  12.020  1.00  0.00     0.241 C 
HETATM    5  O2  UNL     1       4.207  -0.724  11.546  1.00  0.00    -0.271 OA
ATOM      6  H2  UNL     1       4.849   2.070  12.996  1.00  0.00     0.163 HD
BRANCH   4   7
HETATM    7  C3  UNL     1       2.572   0.927  11.951  1.00  0.00     0.179 C 
BRANCH   7   8
HETATM    8  N1  UNL     1       2.291   1.644  10.731  1.00  0.00    -0.348 N 
HETATM    9  C2  UNL     1       2.595   3.022  10.563  1.00  0.00     0.214 C 
HETATM   10  C1  UNL     1       2.328   3.793   9.343  1.00  0.00     0.117 C 
HETATM   11  O1  UNL     1       3.135   3.579  11.571  1.00  0.00    -0.274 OA
ATOM     12  H1  UNL     1       1.856   1.141   9.959  1.00  0.00     0.163 HD
ENDBRANCH   7   8
BRANCH   7  13
HETATM   13  C29 UNL     1       1.537  -0.201  12.031  1.00  0.00     0.009 C 
HETATM   14  C30 UNL     1       0.436   0.072  11.037  1.00  0.00     0.012 C 
HETATM   15  C31 UNL     1       0.960  -0.255  13.408  1.00  0.00     0.012 C 
ENDBRANCH   7  13
ENDBRANCH   4   7
ENDBRANCH   2   3
BRANCH   2  16
HETATM   16  C6  UNL     1       7.238   1.570  11.893  1.00  0.00     0.066 C 
BRANCH  16  17
HETATM   17  C7  UNL     1       7.556   1.197  10.531  1.00  0.00    -0.056 A 
HETATM   18  C8  UNL     1       8.569   0.271  10.259  1.00  0.00     0.007 A 
HETATM   19  C9  UNL     1       8.884  -0.070   8.962  1.00  0.00     0.001 A 
HETATM   20  C10 UNL     1       8.218   0.483   7.895  1.00  0.00     0.000 A 
HETATM   21  C11 UNL     1       7.228   1.386   8.153  1.00  0.00     0.001 A 
HETATM   22  C12 UNL     1       6.910   1.731   9.448  1.00  0.00     0.007 A 
ENDBRANCH  16  17
ENDBRANCH   2  16
ENDBRANCH   1   2
BRANCH   1  23
HETATM   23  O3  UNL     1       7.360   1.482  14.585  1.00  0.00    -0.392 OA
ATOM     24  H3  UNL     1       6.719   2.177  14.682  1.00  0.00     0.210 HD
ENDBRANCH   1  23
BRANCH   1  25
HETATM   25  C14 UNL     1       5.577  -0.078  14.915  1.00  0.00     0.147 C 
BRANCH  25  26
HETATM   26  N3  UNL     1       5.288  -1.467  14.809  1.00  0.00    -0.226 NA
BRANCH  26  27
HETATM   27  C15 UNL     1       3.916  -1.847  14.978  1.00  0.00     0.118 C 
BRANCH  27  28
HETATM   28  C16 UNL     1       3.648  -3.225  15.448  1.00  0.00     0.000 C 
HETATM   29  C17 UNL     1       2.922  -3.106  16.804  1.00  0.00     0.006 C 
HETATM   30  C18 UNL     1       2.399  -4.435  17.242  1.00  0.00     0.000 C 
HETATM   31  C19 UNL     1       3.000  -5.585  16.464  1.00  0.00     0.000 C 
HETATM   32  C20 UNL     1       2.695  -5.440  15.011  1.00  0.00     0.000 C 
HETATM   33  C21 UNL     1       2.718  -4.001  14.572  1.00  0.00     0.006 C 
ENDBRANCH  27  28
ENDBRANCH  26  27
BRANCH  26  34
HETATM   34  N4  UNL     1       6.136  -2.245  15.604  1.00  0.00    -0.287 N 
HETATM   35  C22 UNL     1       6.877  -3.314  14.980  1.00  0.00     0.255 C 
HETATM   36  O4  UNL     1       6.716  -3.490  13.736  1.00  0.00    -0.270 OA
ATOM     37  H4  UNL     1       6.228  -2.061  16.603  1.00  0.00     0.184 HD
BRANCH  35  38
HETATM   38  C23 UNL     1       7.793  -4.186  15.729  1.00  0.00     0.181 C 
BRANCH  38  39
HETATM   39  N5  UNL     1       7.126  -5.443  16.013  1.00  0.00    -0.348 N 
HETATM   40  C24 UNL     1       6.961  -5.928  17.345  1.00  0.00     0.214 C 
HETATM   41  C25 UNL     1       6.268  -7.214  17.597  1.00  0.00     0.117 C 
HETATM   42  O5  UNL     1       7.395  -5.275  18.307  1.00  0.00    -0.274 OA
ATOM     43  H5  UNL     1       6.764  -5.997  15.236  1.00  0.00     0.163 HD
ENDBRANCH  38  39
BRANCH  38  44
HETATM   44  C26 UNL     1       9.039  -4.435  14.859  1.00  0.00     0.009 C 
HETATM   45  C27 UNL     1       9.656  -5.767  15.198  1.00  0.00     0.012 C 
HETATM   46  C28 UNL     1      10.022  -3.314  14.993  1.00  0.00     0.012 C 
ENDBRANCH  38  44
ENDBRANCH  35  38
ENDBRANCH  26  34
ENDBRANCH  25  26
ENDBRANCH   1  25
TORSDOF 16
ENDMDL
