MODEL 5
REMARK VINA RESULT: -9.470944909      1.850      8.933
REMARK  16 active torsions:
REMARK  status: ('A' for Active; 'I' for Inactive)
REMARK       I    between atoms: C2_2  and  N1_4 
REMARK    1  A    between atoms: N1_4  and  C3_6 
REMARK    2  A    between atoms: C3_6  and  C4_7 
REMARK    3  A    between atoms: C3_6  and  C29_44 
REMARK       I    between atoms: C4_7  and  N2_9 
REMARK    4  A    between atoms: N2_9  and  C5_11 
REMARK    5  A    between atoms: C5_11  and  C6_12 
REMARK    6  A    between atoms: C5_11  and  C13_19 
REMARK    7  A    between atoms: C6_12  and  C7_13 
REMARK    8  A    between atoms: C13_19  and  O3_20 
REMARK    9  A    between atoms: C13_19  and  C14_22 
REMARK   10  A    between atoms: C14_22  and  N3_23 
REMARK   11  A    between atoms: N3_23  and  C15_24 
REMARK   12  A    between atoms: N3_23  and  N4_31 
REMARK   13  A    between atoms: C15_24  and  C16_25 
REMARK       I    between atoms: N4_31  and  C22_33 
REMARK   14  A    between atoms: C22_33  and  C23_35 
REMARK   15  A    between atoms: C23_35  and  N5_36 
REMARK   16  A    between atoms: C23_35  and  C26_41 
REMARK       I    between atoms: N5_36  and  C24_38 
ROOT
HETATM    1  C13 UNL     1       6.053  -0.117  14.166  1.00  0.00     0.156 C 
ENDROOT
BRANCH   1   2
HETATM    2  C5  UNL     1       5.214  -0.014  12.962  1.00  0.00     0.118 C 
BRANCH   2   3
HETATM    3  N2  UNL     1       6.063  -0.122  11.756  1.00  0.00    -0.352 N 
HETATM    4  C4  UNL     1       6.412   1.057  11.043  1.00  0.00     0.241 C 
HETATM    5  O2  UNL     1       5.976   2.153  11.469  1.00  0.00    -0.271 OA
ATOM      6  H2  UNL     1       6.395  -1.033  11.439  1.00  0.00     0.163 HD
BRANCH   4   7
HETATM    7  C3  UNL     1       7.257   1.032   9.835  1.00  0.00     0.179 C 
BRANCH   7   8
HETATM    8  N1  UNL     1       7.706   2.340   9.424  1.00  0.00    -0.348 N 
HETATM    9  C2  UNL     1       7.420   2.882   8.141  1.00  0.00     0.214 C 
HETATM   10  C1  UNL     1       7.854   4.205   7.678  1.00  0.00     0.117 C 
HETATM   11  O1  UNL     1       6.737   2.125   7.380  1.00  0.00    -0.274 OA
ATOM     12  H1  UNL     1       8.251   2.898  10.080  1.00  0.00     0.163 HD
ENDBRANCH   7   8
BRANCH   7  13
HETATM   13  C29 UNL     1       8.523   0.194  10.046  1.00  0.00     0.009 C 
HETATM   14  C30 UNL     1       9.590   1.062  10.665  1.00  0.00     0.012 C 
HETATM   15  C31 UNL     1       9.007  -0.323   8.731  1.00  0.00     0.012 C 
ENDBRANCH   7  13
ENDBRANCH   4   7
ENDBRANCH   2   3
BRANCH   2  16
HETATM   16  C6  UNL     1       4.204  -1.154  12.807  1.00  0.00     0.066 C 
BRANCH  16  17
HETATM   17  C7  UNL     1       2.857  -0.716  12.511  1.00  0.00    -0.056 A 
HETATM   18  C8  UNL     1       1.905  -0.587  13.528  1.00  0.00     0.007 A 
HETATM   19  C9  UNL     1       0.617  -0.189  13.244  1.00  0.00     0.001 A 
HETATM   20  C10 UNL     1       0.223   0.094  11.958  1.00  0.00     0.000 A 
HETATM   21  C11 UNL     1       1.147  -0.030  10.961  1.00  0.00     0.001 A 
HETATM   22  C12 UNL     1       2.435  -0.428  11.241  1.00  0.00     0.007 A 
ENDBRANCH  16  17
ENDBRANCH   2  16
ENDBRANCH   1   2
BRANCH   1  23
HETATM   23  O3  UNL     1       6.713   1.097  14.430  1.00  0.00    -0.392 OA
ATOM     24  H3  UNL     1       7.097   1.097  15.299  1.00  0.00     0.210 HD
ENDBRANCH   1  23
BRANCH   1  25
HETATM   25  C14 UNL     1       5.222  -0.496  15.409  1.00  0.00     0.147 C 
BRANCH  25  26
HETATM   26  N3  UNL     1       5.246  -1.897  15.654  1.00  0.00    -0.226 NA
BRANCH  26  27
HETATM   27  C15 UNL     1       4.086  -2.455  16.284  1.00  0.00     0.118 C 
BRANCH  27  28
HETATM   28  C16 UNL     1       3.710  -3.837  15.911  1.00  0.00     0.000 C 
HETATM   29  C17 UNL     1       3.493  -4.616  17.225  1.00  0.00     0.006 C 
HETATM   30  C18 UNL     1       2.882  -5.952  16.953  1.00  0.00     0.000 C 
HETATM   31  C19 UNL     1       2.960  -6.344  15.494  1.00  0.00     0.000 C 
HETATM   32  C20 UNL     1       2.245  -5.343  14.652  1.00  0.00     0.000 C 
HETATM   33  C21 UNL     1       2.415  -3.943  15.173  1.00  0.00     0.006 C 
ENDBRANCH  27  28
ENDBRANCH  26  27
BRANCH  26  34
HETATM   34  N4  UNL     1       6.421  -2.299  16.299  1.00  0.00    -0.287 N 
HETATM   35  C22 UNL     1       7.258  -3.283  15.655  1.00  0.00     0.255 C 
HETATM   36  O4  UNL     1       6.878  -3.733  14.533  1.00  0.00    -0.270 OA
ATOM     37  H4  UNL     1       6.681  -1.906  17.203  1.00  0.00     0.184 HD
BRANCH  35  38
HETATM   38  C23 UNL     1       8.511  -3.770  16.250  1.00  0.00     0.181 C 
BRANCH  38  39
HETATM   39  N5  UNL     1       8.438  -5.212  16.397  1.00  0.00    -0.348 N 
HETATM   40  C24 UNL     1       9.100  -5.899  17.458  1.00  0.00     0.214 C 
HETATM   41  C25 UNL     1       8.999  -7.373  17.580  1.00  0.00     0.117 C 
HETATM   42  O5  UNL     1       9.768  -5.266  18.293  1.00  0.00    -0.274 OA
ATOM     43  H5  UNL     1       7.897  -5.751  15.720  1.00  0.00     0.163 HD
ENDBRANCH  38  39
BRANCH  38  44
HETATM   44  C26 UNL     1       9.669  -3.393  15.308  1.00  0.00     0.009 C 
HETATM   45  C27 UNL     1      10.170  -4.615  14.582  1.00  0.00     0.012 C 
HETATM   46  C28 UNL     1      10.766  -2.698  16.054  1.00  0.00     0.012 C 
ENDBRANCH  38  44
ENDBRANCH  35  38
ENDBRANCH  26  34
ENDBRANCH  25  26
ENDBRANCH   1  25
TORSDOF 16
ENDMDL
