MODEL 1
REMARK VINA RESULT: -9.817176960      0.000      0.000
REMARK  16 active torsions:
REMARK  status: ('A' for Active; 'I' for Inactive)
REMARK       I    between atoms: C2_2  and  N1_4 
REMARK    1  A    between atoms: N1_4  and  C3_6 
REMARK    2  A    between atoms: C3_6  and  C4_7 
REMARK    3  A    between atoms: C3_6  and  C29_44 
REMARK       I    between atoms: C4_7  and  N2_9 
REMARK    4  A    between atoms: N2_9  and  C5_11 
REMARK    5  A    between atoms: C5_11  and  C6_12 
REMARK    6  A    between atoms: C5_11  and  C13_19 
REMARK    7  A    between atoms: C6_12  and  C7_13 
REMARK    8  A    between atoms: C13_19  and  O3_20 
REMARK    9  A    between atoms: C13_19  and  C14_22 
REMARK   10  A    between atoms: C14_22  and  N3_23 
REMARK   11  A    between atoms: N3_23  and  C15_24 
REMARK   12  A    between atoms: N3_23  and  N4_31 
REMARK   13  A    between atoms: C15_24  and  C16_25 
REMARK       I    between atoms: N4_31  and  C22_33 
REMARK   14  A    between atoms: C22_33  and  C23_35 
REMARK   15  A    between atoms: C23_35  and  N5_36 
REMARK   16  A    between atoms: C23_35  and  C26_41 
REMARK       I    between atoms: N5_36  and  C24_38 
ROOT
HETATM    1  C13 UNL     1       5.177  -1.163  15.388  1.00  0.00     0.156 C 
ENDROOT
BRANCH   1   2
HETATM    2  C5  UNL     1       4.972  -2.618  15.476  1.00  0.00     0.118 C 
BRANCH   2   3
HETATM    3  N2  UNL     1       6.043  -3.218  16.301  1.00  0.00    -0.352 N 
HETATM    4  C4  UNL     1       6.979  -4.098  15.693  1.00  0.00     0.241 C 
HETATM    5  O2  UNL     1       6.852  -4.337  14.469  1.00  0.00    -0.271 OA
ATOM      6  H2  UNL     1       6.110  -3.002  17.296  1.00  0.00     0.163 HD
BRANCH   4   7
HETATM    7  C3  UNL     1       8.075  -4.734  16.446  1.00  0.00     0.179 C 
BRANCH   7   8
HETATM    8  N1  UNL     1       7.866  -6.141  16.683  1.00  0.00    -0.348 N 
HETATM    9  C2  UNL     1       7.315  -6.642  17.894  1.00  0.00     0.214 C 
HETATM   10  C1  UNL     1       7.084  -8.063  18.182  1.00  0.00     0.117 C 
HETATM   11  O1  UNL     1       7.020  -5.754  18.756  1.00  0.00    -0.274 OA
ATOM     12  H1  UNL     1       8.124  -6.803  15.952  1.00  0.00     0.163 HD
ENDBRANCH   7   8
BRANCH   7  13
HETATM   13  C29 UNL     1       9.412  -4.621  15.704  1.00  0.00     0.009 C 
HETATM   14  C30 UNL     1      10.433  -5.489  16.395  1.00  0.00     0.012 C 
HETATM   15  C31 UNL     1       9.876  -3.201  15.719  1.00  0.00     0.012 C 
ENDBRANCH   7  13
ENDBRANCH   4   7
ENDBRANCH   2   3
BRANCH   2  16
HETATM   16  C6  UNL     1       3.682  -3.023  16.193  1.00  0.00     0.066 C 
BRANCH  16  17
HETATM   17  C7  UNL     1       3.534  -4.450  16.384  1.00  0.00    -0.056 A 
HETATM   18  C8  UNL     1       3.437  -5.314  15.288  1.00  0.00     0.007 A 
HETATM   19  C9  UNL     1       3.276  -6.670  15.470  1.00  0.00     0.001 A 
HETATM   20  C10 UNL     1       3.206  -7.220  16.727  1.00  0.00     0.000 A 
HETATM   21  C11 UNL     1       3.300  -6.383  17.801  1.00  0.00     0.001 A 
HETATM   22  C12 UNL     1       3.460  -5.026  17.624  1.00  0.00     0.007 A 
ENDBRANCH  16  17
ENDBRANCH   2  16
ENDBRANCH   1   2
BRANCH   1  23
HETATM   23  O3  UNL     1       5.137  -0.566  16.660  1.00  0.00    -0.392 OA
ATOM     24  H3  UNL     1       4.655   0.252  16.641  1.00  0.00     0.210 HD
ENDBRANCH   1  23
BRANCH   1  25
HETATM   25  C14 UNL     1       6.530  -0.817  14.733  1.00  0.00     0.147 C 
BRANCH  25  26
HETATM   26  N3  UNL     1       6.390   0.170  13.719  1.00  0.00    -0.226 NA
BRANCH  26  27
HETATM   27  C15 UNL     1       7.355   1.230  13.722  1.00  0.00     0.118 C 
BRANCH  27  28
HETATM   28  C16 UNL     1       8.109   1.464  12.469  1.00  0.00     0.000 C 
HETATM   29  C17 UNL     1       8.193   0.111  11.733  1.00  0.00     0.006 C 
HETATM   30  C18 UNL     1       8.726   0.295  10.350  1.00  0.00     0.000 C 
HETATM   31  C19 UNL     1       9.369   1.648  10.146  1.00  0.00     0.000 C 
HETATM   32  C20 UNL     1       8.376   2.733  10.390  1.00  0.00     0.000 C 
HETATM   33  C21 UNL     1       7.433   2.391  11.511  1.00  0.00     0.006 C 
ENDBRANCH  27  28
ENDBRANCH  26  27
BRANCH  26  34
HETATM   34  N4  UNL     1       5.084   0.669  13.645  1.00  0.00    -0.287 N 
HETATM   35  C22 UNL     1       4.340   0.472  12.425  1.00  0.00     0.255 C 
HETATM   36  O4  UNL     1       4.915  -0.146  11.480  1.00  0.00    -0.270 OA
ATOM     37  H4  UNL     1       4.668   1.160  14.436  1.00  0.00     0.184 HD
BRANCH  35  38
HETATM   38  C23 UNL     1       2.964   0.957  12.248  1.00  0.00     0.181 C 
BRANCH  38  39
HETATM   39  N5  UNL     1       2.847   1.593  10.950  1.00  0.00    -0.348 N 
HETATM   40  C24 UNL     1       3.032   2.997  10.776  1.00  0.00     0.214 C 
HETATM   41  C25 UNL     1       2.911   3.612   9.432  1.00  0.00     0.117 C 
HETATM   42  O5  UNL     1       3.299   3.719  11.751  1.00  0.00    -0.274 OA
ATOM     43  H5  UNL     1       2.625   1.019  10.137  1.00  0.00     0.163 HD
ENDBRANCH  38  39
BRANCH  38  44
HETATM   44  C26 UNL     1       2.014  -0.253  12.331  1.00  0.00     0.009 C 
HETATM   45  C27 UNL     1       0.718   0.051  11.623  1.00  0.00     0.012 C 
HETATM   46  C28 UNL     1       1.788  -0.665  13.753  1.00  0.00     0.012 C 
ENDBRANCH  38  44
ENDBRANCH  35  38
ENDBRANCH  26  34
ENDBRANCH  25  26
ENDBRANCH   1  25
TORSDOF 16
ENDMDL
