MODEL 3
REMARK VINA RESULT: -9.514553881      0.875      9.519
REMARK  16 active torsions:
REMARK  status: ('A' for Active; 'I' for Inactive)
REMARK       I    between atoms: C2_2  and  N1_4 
REMARK    1  A    between atoms: N1_4  and  C3_6 
REMARK    2  A    between atoms: C3_6  and  C4_7 
REMARK    3  A    between atoms: C3_6  and  C29_44 
REMARK       I    between atoms: C4_7  and  N2_9 
REMARK    4  A    between atoms: N2_9  and  C5_11 
REMARK    5  A    between atoms: C5_11  and  C6_12 
REMARK    6  A    between atoms: C5_11  and  C13_19 
REMARK    7  A    between atoms: C6_12  and  C7_13 
REMARK    8  A    between atoms: C13_19  and  O3_20 
REMARK    9  A    between atoms: C13_19  and  C14_22 
REMARK   10  A    between atoms: C14_22  and  N3_23 
REMARK   11  A    between atoms: N3_23  and  C15_24 
REMARK   12  A    between atoms: N3_23  and  N4_31 
REMARK   13  A    between atoms: C15_24  and  C16_25 
REMARK       I    between atoms: N4_31  and  C22_33 
REMARK   14  A    between atoms: C22_33  and  C23_35 
REMARK   15  A    between atoms: C23_35  and  N5_36 
REMARK   16  A    between atoms: C23_35  and  C26_41 
REMARK       I    between atoms: N5_36  and  C24_38 
ROOT
HETATM    1  C13 UNL     1       5.348  -0.933  15.354  1.00  0.00     0.156 C 
ENDROOT
BRANCH   1   2
HETATM    2  C5  UNL     1       5.632  -0.288  14.063  1.00  0.00     0.118 C 
BRANCH   2   3
HETATM    3  N2  UNL     1       4.511   0.607  13.700  1.00  0.00    -0.352 N 
HETATM    4  C4  UNL     1       3.750   0.330  12.532  1.00  0.00     0.241 C 
HETATM    5  O2  UNL     1       4.068  -0.670  11.847  1.00  0.00    -0.271 OA
ATOM      6  H2  UNL     1       4.287   1.414  14.282  1.00  0.00     0.163 HD
BRANCH   4   7
HETATM    7  C3  UNL     1       2.617   1.172  12.106  1.00  0.00     0.179 C 
BRANCH   7   8
HETATM    8  N1  UNL     1       2.789   1.739  10.791  1.00  0.00    -0.348 N 
HETATM    9  C2  UNL     1       3.136   3.101  10.582  1.00  0.00     0.214 C 
HETATM   10  C1  UNL     1       3.322   3.723   9.265  1.00  0.00     0.117 C 
HETATM   11  O1  UNL     1       3.286   3.786  11.644  1.00  0.00    -0.274 OA
ATOM     12  H1  UNL     1       2.655   1.138   9.979  1.00  0.00     0.163 HD
ENDBRANCH   7   8
BRANCH   7  13
HETATM   13  C29 UNL     1       1.307   0.377  12.060  1.00  0.00     0.009 C 
HETATM   14  C30 UNL     1       0.173   1.318  11.740  1.00  0.00     0.012 C 
HETATM   15  C31 UNL     1       1.062  -0.262  13.387  1.00  0.00     0.012 C 
ENDBRANCH   7  13
ENDBRANCH   4   7
ENDBRANCH   2   3
BRANCH   2  16
HETATM   16  C6  UNL     1       6.851   0.637  14.083  1.00  0.00     0.066 C 
BRANCH  16  17
HETATM   17  C7  UNL     1       7.512   0.775  12.803  1.00  0.00    -0.056 A 
HETATM   18  C8  UNL     1       8.232   1.934  12.489  1.00  0.00     0.007 A 
HETATM   19  C9  UNL     1       8.845   2.074  11.264  1.00  0.00     0.001 A 
HETATM   20  C10 UNL     1       8.773   1.086  10.310  1.00  0.00     0.000 A 
HETATM   21  C11 UNL     1       8.072  -0.047  10.610  1.00  0.00     0.001 A 
HETATM   22  C12 UNL     1       7.457  -0.191  11.834  1.00  0.00     0.007 A 
ENDBRANCH  16  17
ENDBRANCH   2  16
ENDBRANCH   1   2
BRANCH   1  23
HETATM   23  O3  UNL     1       5.148   0.022  16.366  1.00  0.00    -0.392 OA
ATOM     24  H3  UNL     1       4.912   0.866  16.000  1.00  0.00     0.210 HD
ENDBRANCH   1  23
BRANCH   1  25
HETATM   25  C14 UNL     1       4.094  -1.829  15.279  1.00  0.00     0.147 C 
BRANCH  25  26
HETATM   26  N3  UNL     1       4.420  -3.208  15.411  1.00  0.00    -0.226 NA
BRANCH  26  27
HETATM   27  C15 UNL     1       3.377  -4.067  15.889  1.00  0.00     0.118 C 
BRANCH  27  28
HETATM   28  C16 UNL     1       3.742  -5.468  16.198  1.00  0.00     0.000 C 
HETATM   29  C17 UNL     1       3.167  -5.786  17.595  1.00  0.00     0.006 C 
HETATM   30  C18 UNL     1       3.278  -7.246  17.891  1.00  0.00     0.000 C 
HETATM   31  C19 UNL     1       4.215  -7.965  16.947  1.00  0.00     0.000 C 
HETATM   32  C20 UNL     1       3.737  -7.828  15.541  1.00  0.00     0.000 C 
HETATM   33  C21 UNL     1       3.129  -6.478  15.282  1.00  0.00     0.006 C 
ENDBRANCH  27  28
ENDBRANCH  26  27
BRANCH  26  34
HETATM   34  N4  UNL     1       5.609  -3.402  16.123  1.00  0.00    -0.287 N 
HETATM   35  C22 UNL     1       6.761  -3.906  15.415  1.00  0.00     0.255 C 
HETATM   36  O4  UNL     1       6.630  -4.146  14.178  1.00  0.00    -0.270 OA
ATOM     37  H4  UNL     1       5.661  -3.193  17.120  1.00  0.00     0.184 HD
BRANCH  35  38
HETATM   38  C23 UNL     1       8.054  -4.144  16.072  1.00  0.00     0.181 C 
BRANCH  38  39
HETATM   39  N5  UNL     1       8.178  -5.556  16.379  1.00  0.00    -0.348 N 
HETATM   40  C24 UNL     1       7.626  -6.124  17.566  1.00  0.00     0.214 C 
HETATM   41  C25 UNL     1       7.767  -7.573  17.844  1.00  0.00     0.117 C 
HETATM   42  O5  UNL     1       7.019  -5.407  18.378  1.00  0.00    -0.274 OA
ATOM     43  H5  UNL     1       8.676  -6.162  15.726  1.00  0.00     0.163 HD
ENDBRANCH  38  39
BRANCH  38  44
HETATM   44  C26 UNL     1       9.172  -3.714  15.103  1.00  0.00     0.009 C 
HETATM   45  C27 UNL     1      10.014  -4.903  14.716  1.00  0.00     0.012 C 
HETATM   46  C28 UNL     1       9.999  -2.612  15.690  1.00  0.00     0.012 C 
ENDBRANCH  38  44
ENDBRANCH  35  38
ENDBRANCH  26  34
ENDBRANCH  25  26
ENDBRANCH   1  25
TORSDOF 16
ENDMDL
