MODEL 18
REMARK VINA RESULT: -8.878568101      1.374      2.157
REMARK  16 active torsions:
REMARK  status: ('A' for Active; 'I' for Inactive)
REMARK       I    between atoms: C2_2  and  N1_4 
REMARK    1  A    between atoms: N1_4  and  C3_6 
REMARK    2  A    between atoms: C3_6  and  C4_7 
REMARK    3  A    between atoms: C3_6  and  C29_44 
REMARK       I    between atoms: C4_7  and  N2_9 
REMARK    4  A    between atoms: N2_9  and  C5_11 
REMARK    5  A    between atoms: C5_11  and  C6_12 
REMARK    6  A    between atoms: C5_11  and  C13_19 
REMARK    7  A    between atoms: C6_12  and  C7_13 
REMARK    8  A    between atoms: C13_19  and  O3_20 
REMARK    9  A    between atoms: C13_19  and  C14_22 
REMARK   10  A    between atoms: C14_22  and  N3_23 
REMARK   11  A    between atoms: N3_23  and  C15_24 
REMARK   12  A    between atoms: N3_23  and  N4_31 
REMARK   13  A    between atoms: C15_24  and  C16_25 
REMARK       I    between atoms: N4_31  and  C22_33 
REMARK   14  A    between atoms: C22_33  and  C23_35 
REMARK   15  A    between atoms: C23_35  and  N5_36 
REMARK   16  A    between atoms: C23_35  and  C26_41 
REMARK       I    between atoms: N5_36  and  C24_38 
ROOT
HETATM    1  C13 UNL     1       4.658  -0.857  15.570  1.00  0.00     0.156 C 
ENDROOT
BRANCH   1   2
HETATM    2  C5  UNL     1       4.437  -2.310  15.498  1.00  0.00     0.118 C 
BRANCH   2   3
HETATM    3  N2  UNL     1       5.550  -3.014  16.172  1.00  0.00    -0.352 N 
HETATM    4  C4  UNL     1       6.431  -3.819  15.401  1.00  0.00     0.241 C 
HETATM    5  O2  UNL     1       6.223  -3.905  14.168  1.00  0.00    -0.271 OA
ATOM      6  H2  UNL     1       5.683  -2.922  17.179  1.00  0.00     0.163 HD
BRANCH   4   7
HETATM    7  C3  UNL     1       7.564  -4.549  15.999  1.00  0.00     0.179 C 
BRANCH   7   8
HETATM    8  N1  UNL     1       8.651  -3.690  16.400  1.00  0.00    -0.348 N 
HETATM    9  C2  UNL     1       9.847  -3.561  15.642  1.00  0.00     0.214 C 
HETATM   10  C1  UNL     1      10.979  -2.701  16.008  1.00  0.00     0.117 C 
HETATM   11  O1  UNL     1       9.888  -4.262  14.582  1.00  0.00    -0.274 OA
ATOM     12  H1  UNL     1       8.557  -3.153  17.261  1.00  0.00     0.163 HD
ENDBRANCH   7   8
BRANCH   7  13
HETATM   13  C29 UNL     1       7.143  -5.317  17.257  1.00  0.00     0.009 C 
HETATM   14  C30 UNL     1       8.378  -5.808  17.970  1.00  0.00     0.012 C 
HETATM   15  C31 UNL     1       6.296  -6.486  16.870  1.00  0.00     0.012 C 
ENDBRANCH   7  13
ENDBRANCH   4   7
ENDBRANCH   2   3
BRANCH   2  16
HETATM   16  C6  UNL     1       3.190  -2.788  16.245  1.00  0.00     0.066 C 
BRANCH  16  17
HETATM   17  C7  UNL     1       3.078  -4.227  16.352  1.00  0.00    -0.056 A 
HETATM   18  C8  UNL     1       2.962  -5.024  15.207  1.00  0.00     0.007 A 
HETATM   19  C9  UNL     1       2.836  -6.392  15.309  1.00  0.00     0.001 A 
HETATM   20  C10 UNL     1       2.822  -7.020  16.532  1.00  0.00     0.000 A 
HETATM   21  C11 UNL     1       2.935  -6.249  17.652  1.00  0.00     0.001 A 
HETATM   22  C12 UNL     1       3.060  -4.880  17.555  1.00  0.00     0.007 A 
ENDBRANCH  16  17
ENDBRANCH   2  16
ENDBRANCH   1   2
BRANCH   1  23
HETATM   23  O3  UNL     1       5.139  -0.479  16.837  1.00  0.00    -0.392 OA
ATOM     24  H3  UNL     1       5.567   0.368  16.802  1.00  0.00     0.210 HD
ENDBRANCH   1  23
BRANCH   1  25
HETATM   25  C14 UNL     1       5.670  -0.381  14.507  1.00  0.00     0.147 C 
BRANCH  25  26
HETATM   26  N3  UNL     1       5.124  -0.436  13.195  1.00  0.00    -0.226 NA
BRANCH  26  27
HETATM   27  C15 UNL     1       6.063  -0.505  12.115  1.00  0.00     0.118 C 
BRANCH  27  28
HETATM   28  C16 UNL     1       6.836   0.721  11.809  1.00  0.00     0.000 C 
HETATM   29  C17 UNL     1       8.302   0.290  11.598  1.00  0.00     0.006 C 
HETATM   30  C18 UNL     1       9.112   1.420  11.052  1.00  0.00     0.000 C 
HETATM   31  C19 UNL     1       8.412   2.755  11.180  1.00  0.00     0.000 C 
HETATM   32  C20 UNL     1       7.118   2.732  10.439  1.00  0.00     0.000 C 
HETATM   33  C21 UNL     1       6.438   1.395  10.536  1.00  0.00     0.006 C 
ENDBRANCH  27  28
ENDBRANCH  26  27
BRANCH  26  34
HETATM   34  N4  UNL     1       4.169   0.564  12.979  1.00  0.00    -0.287 N 
HETATM   35  C22 UNL     1       3.046   0.271  12.122  1.00  0.00     0.255 C 
HETATM   36  O4  UNL     1       2.986  -0.886  11.608  1.00  0.00    -0.270 OA
ATOM     37  H4  UNL     1       4.265   1.480  13.417  1.00  0.00     0.184 HD
BRANCH  35  38
HETATM   38  C23 UNL     1       1.991   1.253  11.833  1.00  0.00     0.181 C 
BRANCH  38  39
HETATM   39  N5  UNL     1       2.311   1.944  10.599  1.00  0.00    -0.348 N 
HETATM   40  C24 UNL     1       3.085   3.143  10.581  1.00  0.00     0.214 C 
HETATM   41  C25 UNL     1       3.398   3.819   9.299  1.00  0.00     0.117 C 
HETATM   42  O5  UNL     1       3.507   3.631  11.642  1.00  0.00    -0.274 OA
ATOM     43  H5  UNL     1       1.972   1.562   9.716  1.00  0.00     0.163 HD
ENDBRANCH  38  39
BRANCH  38  44
HETATM   44  C26 UNL     1       0.658   0.497  11.685  1.00  0.00     0.009 C 
HETATM   45  C27 UNL     1      -0.340   1.340  10.933  1.00  0.00     0.012 C 
HETATM   46  C28 UNL     1       0.131   0.065  13.019  1.00  0.00     0.012 C 
ENDBRANCH  38  44
ENDBRANCH  35  38
ENDBRANCH  26  34
ENDBRANCH  25  26
ENDBRANCH   1  25
TORSDOF 16
ENDMDL
