MODEL 12
REMARK VINA RESULT: -9.187466699      1.093      2.014
REMARK  16 active torsions:
REMARK  status: ('A' for Active; 'I' for Inactive)
REMARK       I    between atoms: C2_2  and  N1_4 
REMARK    1  A    between atoms: N1_4  and  C3_6 
REMARK    2  A    between atoms: C3_6  and  C4_7 
REMARK    3  A    between atoms: C3_6  and  C29_44 
REMARK       I    between atoms: C4_7  and  N2_9 
REMARK    4  A    between atoms: N2_9  and  C5_11 
REMARK    5  A    between atoms: C5_11  and  C6_12 
REMARK    6  A    between atoms: C5_11  and  C13_19 
REMARK    7  A    between atoms: C6_12  and  C7_13 
REMARK    8  A    between atoms: C13_19  and  O3_20 
REMARK    9  A    between atoms: C13_19  and  C14_22 
REMARK   10  A    between atoms: C14_22  and  N3_23 
REMARK   11  A    between atoms: N3_23  and  C15_24 
REMARK   12  A    between atoms: N3_23  and  N4_31 
REMARK   13  A    between atoms: C15_24  and  C16_25 
REMARK       I    between atoms: N4_31  and  C22_33 
REMARK   14  A    between atoms: C22_33  and  C23_35 
REMARK   15  A    between atoms: C23_35  and  N5_36 
REMARK   16  A    between atoms: C23_35  and  C26_41 
REMARK       I    between atoms: N5_36  and  C24_38 
ROOT
HETATM    1  C13 UNL     1       5.088  -1.149  15.543  1.00  0.00     0.156 C 
ENDROOT
BRANCH   1   2
HETATM    2  C5  UNL     1       4.908  -2.609  15.547  1.00  0.00     0.118 C 
BRANCH   2   3
HETATM    3  N2  UNL     1       5.984  -3.238  16.343  1.00  0.00    -0.352 N 
HETATM    4  C4  UNL     1       6.946  -4.055  15.689  1.00  0.00     0.241 C 
HETATM    5  O2  UNL     1       6.837  -4.216  14.451  1.00  0.00    -0.271 OA
ATOM      6  H2  UNL     1       6.036  -3.087  17.350  1.00  0.00     0.163 HD
BRANCH   4   7
HETATM    7  C3  UNL     1       8.049  -4.714  16.412  1.00  0.00     0.179 C 
BRANCH   7   8
HETATM    8  N1  UNL     1       7.823  -6.119  16.645  1.00  0.00    -0.348 N 
HETATM    9  C2  UNL     1       7.269  -6.617  17.856  1.00  0.00     0.214 C 
HETATM   10  C1  UNL     1       7.020  -8.036  18.139  1.00  0.00     0.117 C 
HETATM   11  O1  UNL     1       6.988  -5.729  18.722  1.00  0.00    -0.274 OA
ATOM     12  H1  UNL     1       8.069  -6.782  15.911  1.00  0.00     0.163 HD
ENDBRANCH   7   8
BRANCH   7  13
HETATM   13  C29 UNL     1       9.370  -4.618  15.639  1.00  0.00     0.009 C 
HETATM   14  C30 UNL     1      10.376  -5.550  16.268  1.00  0.00     0.012 C 
HETATM   15  C31 UNL     1       9.885  -3.217  15.700  1.00  0.00     0.012 C 
ENDBRANCH   7  13
ENDBRANCH   4   7
ENDBRANCH   2   3
BRANCH   2  16
HETATM   16  C6  UNL     1       3.621  -3.077  16.230  1.00  0.00     0.066 C 
BRANCH  16  17
HETATM   17  C7  UNL     1       3.527  -4.511  16.399  1.00  0.00    -0.056 A 
HETATM   18  C8  UNL     1       3.485  -5.363  15.290  1.00  0.00     0.007 A 
HETATM   19  C9  UNL     1       3.376  -6.727  15.450  1.00  0.00     0.001 A 
HETATM   20  C10 UNL     1       3.306  -7.297  16.699  1.00  0.00     0.000 A 
HETATM   21  C11 UNL     1       3.346  -6.472  17.786  1.00  0.00     0.001 A 
HETATM   22  C12 UNL     1       3.454  -5.107  17.629  1.00  0.00     0.007 A 
ENDBRANCH  16  17
ENDBRANCH   2  16
ENDBRANCH   1   2
BRANCH   1  23
HETATM   23  O3  UNL     1       5.024  -0.626  16.847  1.00  0.00    -0.392 OA
ATOM     24  H3  UNL     1       4.426   0.110  16.893  1.00  0.00     0.210 HD
ENDBRANCH   1  23
BRANCH   1  25
HETATM   25  C14 UNL     1       6.442  -0.744  14.925  1.00  0.00     0.147 C 
BRANCH  25  26
HETATM   26  N3  UNL     1       6.399  -0.754  13.503  1.00  0.00    -0.226 NA
BRANCH  26  27
HETATM   27  C15 UNL     1       7.658  -0.649  12.826  1.00  0.00     0.118 C 
BRANCH  27  28
HETATM   28  C16 UNL     1       7.835   0.490  11.897  1.00  0.00     0.000 C 
HETATM   29  C17 UNL     1       8.210   1.717  12.754  1.00  0.00     0.006 C 
HETATM   30  C18 UNL     1       8.640   2.855  11.887  1.00  0.00     0.000 C 
HETATM   31  C19 UNL     1       8.270   2.656  10.434  1.00  0.00     0.000 C 
HETATM   32  C20 UNL     1       8.913   1.420   9.903  1.00  0.00     0.000 C 
HETATM   33  C21 UNL     1       8.965   0.325  10.933  1.00  0.00     0.006 C 
ENDBRANCH  27  28
ENDBRANCH  26  27
BRANCH  26  34
HETATM   34  N4  UNL     1       5.468   0.160  12.997  1.00  0.00    -0.287 N 
HETATM   35  C22 UNL     1       4.398  -0.335  12.165  1.00  0.00     0.255 C 
HETATM   36  O4  UNL     1       4.361  -1.581  11.937  1.00  0.00    -0.270 OA
ATOM     37  H4  UNL     1       5.545   1.154  13.211  1.00  0.00     0.184 HD
BRANCH  35  38
HETATM   38  C23 UNL     1       3.372   0.543  11.587  1.00  0.00     0.181 C 
BRANCH  38  39
HETATM   39  N5  UNL     1       2.237   0.606  12.488  1.00  0.00    -0.348 N 
HETATM   40  C24 UNL     1       0.968   0.049  12.147  1.00  0.00     0.214 C 
HETATM   41  C25 UNL     1      -0.168   0.127  13.096  1.00  0.00     0.117 C 
HETATM   42  O5  UNL     1       0.804  -0.508  11.049  1.00  0.00    -0.274 OA
ATOM     43  H5  UNL     1       2.350   1.063  13.393  1.00  0.00     0.163 HD
ENDBRANCH  38  39
BRANCH  38  44
HETATM   44  C26 UNL     1       3.984   1.945  11.410  1.00  0.00     0.009 C 
HETATM   45  C27 UNL     1       2.896   2.985  11.337  1.00  0.00     0.012 C 
HETATM   46  C28 UNL     1       4.883   1.994  10.213  1.00  0.00     0.012 C 
ENDBRANCH  38  44
ENDBRANCH  35  38
ENDBRANCH  26  34
ENDBRANCH  25  26
ENDBRANCH   1  25
TORSDOF 16
ENDMDL
