MODEL 2
REMARK VINA RESULT: -9.615138553      0.940      1.086
REMARK  16 active torsions:
REMARK  status: ('A' for Active; 'I' for Inactive)
REMARK       I    between atoms: C2_2  and  N1_4 
REMARK    1  A    between atoms: N1_4  and  C3_6 
REMARK    2  A    between atoms: C3_6  and  C4_7 
REMARK    3  A    between atoms: C3_6  and  C29_44 
REMARK       I    between atoms: C4_7  and  N2_9 
REMARK    4  A    between atoms: N2_9  and  C5_11 
REMARK    5  A    between atoms: C5_11  and  C6_12 
REMARK    6  A    between atoms: C5_11  and  C13_19 
REMARK    7  A    between atoms: C6_12  and  C7_13 
REMARK    8  A    between atoms: C13_19  and  O3_20 
REMARK    9  A    between atoms: C13_19  and  C14_22 
REMARK   10  A    between atoms: C14_22  and  N3_23 
REMARK   11  A    between atoms: N3_23  and  C15_24 
REMARK   12  A    between atoms: N3_23  and  N4_31 
REMARK   13  A    between atoms: C15_24  and  C16_25 
REMARK       I    between atoms: N4_31  and  C22_33 
REMARK   14  A    between atoms: C22_33  and  C23_35 
REMARK   15  A    between atoms: C23_35  and  N5_36 
REMARK   16  A    between atoms: C23_35  and  C26_41 
REMARK       I    between atoms: N5_36  and  C24_38 
ROOT
HETATM    1  C13 UNL     1       5.001  -0.843  15.191  1.00  0.00     0.156 C 
ENDROOT
BRANCH   1   2
HETATM    2  C5  UNL     1       4.835  -2.295  15.363  1.00  0.00     0.118 C 
BRANCH   2   3
HETATM    3  N2  UNL     1       5.938  -2.824  16.194  1.00  0.00    -0.352 N 
HETATM    4  C4  UNL     1       6.766  -3.856  15.675  1.00  0.00     0.241 C 
HETATM    5  O2  UNL     1       6.520  -4.284  14.522  1.00  0.00    -0.271 OA
ATOM      6  H2  UNL     1       6.103  -2.453  17.129  1.00  0.00     0.163 HD
BRANCH   4   7
HETATM    7  C3  UNL     1       7.886  -4.434  16.440  1.00  0.00     0.179 C 
BRANCH   7   8
HETATM    8  N1  UNL     1       7.765  -5.857  16.645  1.00  0.00    -0.348 N 
HETATM    9  C2  UNL     1       7.270  -6.419  17.853  1.00  0.00     0.214 C 
HETATM   10  C1  UNL     1       7.129  -7.857  18.108  1.00  0.00     0.117 C 
HETATM   11  O1  UNL     1       6.940  -5.572  18.742  1.00  0.00    -0.274 OA
ATOM     12  H1  UNL     1       8.047  -6.484  15.892  1.00  0.00     0.163 HD
ENDBRANCH   7   8
BRANCH   7  13
HETATM   13  C29 UNL     1       9.227  -4.219  15.729  1.00  0.00     0.009 C 
HETATM   14  C30 UNL     1      10.323  -4.862  16.542  1.00  0.00     0.012 C 
HETATM   15  C31 UNL     1       9.498  -2.755  15.603  1.00  0.00     0.012 C 
ENDBRANCH   7  13
ENDBRANCH   4   7
ENDBRANCH   2   3
BRANCH   2  16
HETATM   16  C6  UNL     1       3.571  -2.690  16.130  1.00  0.00     0.066 C 
BRANCH  16  17
HETATM   17  C7  UNL     1       3.355  -4.119  16.221  1.00  0.00    -0.056 A 
HETATM   18  C8  UNL     1       3.016  -4.867  15.088  1.00  0.00     0.007 A 
HETATM   19  C9  UNL     1       2.792  -6.223  15.179  1.00  0.00     0.001 A 
HETATM   20  C10 UNL     1       2.895  -6.887  16.378  1.00  0.00     0.000 A 
HETATM   21  C11 UNL     1       3.226  -6.163  17.487  1.00  0.00     0.001 A 
HETATM   22  C12 UNL     1       3.449  -4.806  17.401  1.00  0.00     0.007 A 
ENDBRANCH  16  17
ENDBRANCH   2  16
ENDBRANCH   1   2
BRANCH   1  23
HETATM   23  O3  UNL     1       5.128  -0.196  16.433  1.00  0.00    -0.392 OA
ATOM     24  H3  UNL     1       4.728   0.666  16.414  1.00  0.00     0.210 HD
ENDBRANCH   1  23
BRANCH   1  25
HETATM   25  C14 UNL     1       6.246  -0.509  14.343  1.00  0.00     0.147 C 
BRANCH  25  26
HETATM   26  N3  UNL     1       5.901   0.170  13.141  1.00  0.00    -0.226 NA
BRANCH  26  27
HETATM   27  C15 UNL     1       6.863   1.106  12.639  1.00  0.00     0.118 C 
BRANCH  27  28
HETATM   28  C16 UNL     1       7.649   0.699  11.452  1.00  0.00     0.000 C 
HETATM   29  C17 UNL     1       6.907   1.239  10.212  1.00  0.00     0.006 C 
HETATM   30  C18 UNL     1       7.746   1.085   8.986  1.00  0.00     0.000 C 
HETATM   31  C19 UNL     1       8.914   0.146   9.191  1.00  0.00     0.000 C 
HETATM   32  C20 UNL     1       9.799   0.653  10.278  1.00  0.00     0.000 C 
HETATM   33  C21 UNL     1       9.015   1.302  11.386  1.00  0.00     0.006 C 
ENDBRANCH  27  28
ENDBRANCH  26  27
BRANCH  26  34
HETATM   34  N4  UNL     1       4.622   0.734  13.204  1.00  0.00    -0.287 N 
HETATM   35  C22 UNL     1       3.658   0.367  12.195  1.00  0.00     0.255 C 
HETATM   36  O4  UNL     1       4.026  -0.452  11.302  1.00  0.00    -0.270 OA
ATOM     37  H4  UNL     1       4.377   1.390  13.945  1.00  0.00     0.184 HD
BRANCH  35  38
HETATM   38  C23 UNL     1       2.290   0.905  12.173  1.00  0.00     0.181 C 
BRANCH  38  39
HETATM   39  N5  UNL     1       1.973   1.344  10.828  1.00  0.00    -0.348 N 
HETATM   40  C24 UNL     1       1.321   2.587  10.571  1.00  0.00     0.214 C 
HETATM   41  C25 UNL     1       1.019   3.006   9.181  1.00  0.00     0.117 C 
HETATM   42  O5  UNL     1       1.002   3.332  11.512  1.00  0.00    -0.274 OA
ATOM     43  H5  UNL     1       2.224   0.745  10.041  1.00  0.00     0.163 HD
ENDBRANCH  38  39
BRANCH  38  44
HETATM   44  C26 UNL     1       1.326  -0.217  12.603  1.00  0.00     0.009 C 
HETATM   45  C27 UNL     1      -0.098   0.275  12.566  1.00  0.00     0.012 C 
HETATM   46  C28 UNL     1       1.695  -0.758  13.950  1.00  0.00     0.012 C 
ENDBRANCH  38  44
ENDBRANCH  35  38
ENDBRANCH  26  34
ENDBRANCH  25  26
ENDBRANCH   1  25
TORSDOF 16
ENDMDL
