MODEL 1
REMARK VINA RESULT: -10.356106969      0.000      0.000
REMARK  16 active torsions:
REMARK  status: ('A' for Active; 'I' for Inactive)
REMARK       I    between atoms: C2_2  and  N1_4 
REMARK    1  A    between atoms: N1_4  and  C3_6 
REMARK    2  A    between atoms: C3_6  and  C4_7 
REMARK    3  A    between atoms: C3_6  and  C29_44 
REMARK       I    between atoms: C4_7  and  N2_9 
REMARK    4  A    between atoms: N2_9  and  C5_11 
REMARK    5  A    between atoms: C5_11  and  C6_12 
REMARK    6  A    between atoms: C5_11  and  C13_19 
REMARK    7  A    between atoms: C6_12  and  C7_13 
REMARK    8  A    between atoms: C13_19  and  O3_20 
REMARK    9  A    between atoms: C13_19  and  C14_22 
REMARK   10  A    between atoms: C14_22  and  N3_23 
REMARK   11  A    between atoms: N3_23  and  C15_24 
REMARK   12  A    between atoms: N3_23  and  N4_31 
REMARK   13  A    between atoms: C15_24  and  C16_25 
REMARK       I    between atoms: N4_31  and  C22_33 
REMARK   14  A    between atoms: C22_33  and  C23_35 
REMARK   15  A    between atoms: C23_35  and  N5_36 
REMARK   16  A    between atoms: C23_35  and  C26_41 
REMARK       I    between atoms: N5_36  and  C24_38 
ROOT
HETATM    1  C13 UNL     1      16.790  30.370  12.820  1.00  0.00     0.156 C 
ENDROOT
BRANCH   1   2
HETATM    2  C5  UNL     1      16.940  31.831  12.728  1.00  0.00     0.118 C 
BRANCH   2   3
HETATM    3  N2  UNL     1      17.401  32.363  14.028  1.00  0.00    -0.352 N 
HETATM    4  C4  UNL     1      16.600  33.318  14.712  1.00  0.00     0.241 C 
HETATM    5  O2  UNL     1      15.526  33.677  14.175  1.00  0.00    -0.271 OA
ATOM      6  H2  UNL     1      18.284  32.049  14.430  1.00  0.00     0.163 HD
BRANCH   4   7
HETATM    7  C3  UNL     1      16.989  33.893  16.012  1.00  0.00     0.179 C 
BRANCH   7   8
HETATM    8  N1  UNL     1      17.102  35.331  15.991  1.00  0.00    -0.348 N 
HETATM    9  C2  UNL     1      18.350  36.001  15.872  1.00  0.00     0.214 C 
HETATM   10  C1  UNL     1      18.515  37.460  15.846  1.00  0.00     0.117 C 
HETATM   11  O1  UNL     1      19.363  35.237  15.786  1.00  0.00    -0.274 OA
ATOM     12  H1  UNL     1      16.252  35.889  16.064  1.00  0.00     0.163 HD
ENDBRANCH   7   8
BRANCH   7  13
HETATM   13  C29 UNL     1      15.968  33.562  17.107  1.00  0.00     0.009 C 
HETATM   14  C30 UNL     1      16.529  33.976  18.444  1.00  0.00     0.012 C 
HETATM   15  C31 UNL     1      15.700  32.093  17.114  1.00  0.00     0.012 C 
ENDBRANCH   7  13
ENDBRANCH   4   7
ENDBRANCH   2   3
BRANCH   2  16
HETATM   16  C6  UNL     1      18.016  32.285  11.739  1.00  0.00     0.066 C 
BRANCH  16  17
HETATM   17  C7  UNL     1      17.723  33.540  11.079  1.00  0.00    -0.056 A 
HETATM   18  C8  UNL     1      18.133  34.756  11.636  1.00  0.00     0.007 A 
HETATM   19  C9  UNL     1      17.838  35.951  11.018  1.00  0.00     0.001 A 
HETATM   20  C10 UNL     1      17.135  35.992   9.838  1.00  0.00     0.000 A 
HETATM   21  C11 UNL     1      16.731  34.809   9.289  1.00  0.00     0.001 A 
HETATM   22  C12 UNL     1      17.024  33.611   9.904  1.00  0.00     0.007 A 
ENDBRANCH  16  17
ENDBRANCH   2  16
ENDBRANCH   1   2
BRANCH   1  23
HETATM   23  O3  UNL     1      17.994  29.760  13.215  1.00  0.00    -0.392 OA
ATOM     24  H3  UNL     1      17.976  29.530  14.137  1.00  0.00     0.210 HD
ENDBRANCH   1  23
BRANCH   1  25
HETATM   25  C14 UNL     1      15.692  29.973  13.829  1.00  0.00     0.147 C 
BRANCH  25  26
HETATM   26  N3  UNL     1      14.700  29.146  13.232  1.00  0.00    -0.226 NA
BRANCH  26  27
HETATM   27  C15 UNL     1      14.064  28.191  14.091  1.00  0.00     0.118 C 
BRANCH  27  28
HETATM   28  C16 UNL     1      12.585  28.208  14.147  1.00  0.00     0.000 C 
HETATM   29  C17 UNL     1      12.085  27.103  13.194  1.00  0.00     0.006 C 
HETATM   30  C18 UNL     1      10.617  26.885  13.363  1.00  0.00     0.000 C 
HETATM   31  C19 UNL     1       9.944  28.002  14.129  1.00  0.00     0.000 C 
HETATM   32  C20 UNL     1      10.538  28.124  15.490  1.00  0.00     0.000 C 
HETATM   33  C21 UNL     1      12.018  27.858  15.485  1.00  0.00     0.006 C 
ENDBRANCH  27  28
ENDBRANCH  26  27
BRANCH  26  34
HETATM   34  N4  UNL     1      15.151  28.550  12.050  1.00  0.00    -0.287 N 
HETATM   35  C22 UNL     1      14.417  28.792  10.832  1.00  0.00     0.255 C 
HETATM   36  O4  UNL     1      13.395  29.538  10.902  1.00  0.00    -0.270 OA
ATOM     37  H4  UNL     1      15.981  27.956  12.049  1.00  0.00     0.184 HD
BRANCH  35  38
HETATM   38  C23 UNL     1      14.810  28.212   9.540  1.00  0.00     0.181 C 
BRANCH  38  39
HETATM   39  N5  UNL     1      13.662  27.554   8.946  1.00  0.00    -0.348 N 
HETATM   40  C24 UNL     1      13.315  26.206   9.262  1.00  0.00     0.214 C 
HETATM   41  C25 UNL     1      12.131  25.568   8.639  1.00  0.00     0.117 C 
HETATM   42  O5  UNL     1      14.003  25.554  10.065  1.00  0.00    -0.274 OA
ATOM     43  H5  UNL     1      13.086  28.070   8.281  1.00  0.00     0.163 HD
ENDBRANCH  38  39
BRANCH  38  44
HETATM   44  C26 UNL     1      15.295  29.354   8.628  1.00  0.00     0.009 C 
HETATM   45  C27 UNL     1      15.482  28.854   7.218  1.00  0.00     0.012 C 
HETATM   46  C28 UNL     1      16.543  29.982   9.167  1.00  0.00     0.012 C 
ENDBRANCH  38  44
ENDBRANCH  35  38
ENDBRANCH  26  34
ENDBRANCH  25  26
ENDBRANCH   1  25
TORSDOF 16
ENDMDL
