MODEL 3
REMARK VINA RESULT: -10.232632149      0.921      9.550
REMARK  16 active torsions:
REMARK  status: ('A' for Active; 'I' for Inactive)
REMARK       I    between atoms: C2_2  and  N1_4 
REMARK    1  A    between atoms: N1_4  and  C3_6 
REMARK    2  A    between atoms: C3_6  and  C4_7 
REMARK    3  A    between atoms: C3_6  and  C29_44 
REMARK       I    between atoms: C4_7  and  N2_9 
REMARK    4  A    between atoms: N2_9  and  C5_11 
REMARK    5  A    between atoms: C5_11  and  C6_12 
REMARK    6  A    between atoms: C5_11  and  C13_19 
REMARK    7  A    between atoms: C6_12  and  C7_13 
REMARK    8  A    between atoms: C13_19  and  O3_20 
REMARK    9  A    between atoms: C13_19  and  C14_22 
REMARK   10  A    between atoms: C14_22  and  N3_23 
REMARK   11  A    between atoms: N3_23  and  C15_24 
REMARK   12  A    between atoms: N3_23  and  N4_31 
REMARK   13  A    between atoms: C15_24  and  C16_25 
REMARK       I    between atoms: N4_31  and  C22_33 
REMARK   14  A    between atoms: C22_33  and  C23_35 
REMARK   15  A    between atoms: C23_35  and  N5_36 
REMARK   16  A    between atoms: C23_35  and  C26_41 
REMARK       I    between atoms: N5_36  and  C24_38 
ROOT
HETATM    1  C13 UNL     1      16.549  30.089  13.144  1.00  0.00     0.156 C 
ENDROOT
BRANCH   1   2
HETATM    2  C5  UNL     1      15.244  29.433  12.963  1.00  0.00     0.118 C 
BRANCH   2   3
HETATM    3  N2  UNL     1      15.294  28.553  11.776  1.00  0.00    -0.352 N 
HETATM    4  C4  UNL     1      14.376  28.767  10.712  1.00  0.00     0.241 C 
HETATM    5  O2  UNL     1      13.548  29.701  10.829  1.00  0.00    -0.271 OA
ATOM      6  H2  UNL     1      15.980  27.800  11.720  1.00  0.00     0.163 HD
BRANCH   4   7
HETATM    7  C3  UNL     1      14.364  27.935   9.495  1.00  0.00     0.179 C 
BRANCH   7   8
HETATM    8  N1  UNL     1      13.094  27.295   9.252  1.00  0.00    -0.348 N 
HETATM    9  C2  UNL     1      12.863  25.919   9.524  1.00  0.00     0.214 C 
HETATM   10  C1  UNL     1      11.590  25.225   9.294  1.00  0.00     0.117 C 
HETATM   11  O1  UNL     1      13.862  25.292  10.000  1.00  0.00    -0.274 OA
ATOM     12  H1  UNL     1      12.331  27.853   8.869  1.00  0.00     0.163 HD
ENDBRANCH   7   8
BRANCH   7  13
HETATM   13  C29 UNL     1      14.672  28.761   8.241  1.00  0.00     0.009 C 
HETATM   14  C30 UNL     1      14.775  27.835   7.056  1.00  0.00     0.012 C 
HETATM   15  C31 UNL     1      15.967  29.483   8.422  1.00  0.00     0.012 C 
ENDBRANCH   7  13
ENDBRANCH   4   7
ENDBRANCH   2   3
BRANCH   2  16
HETATM   16  C6  UNL     1      14.857  28.492  14.106  1.00  0.00     0.066 C 
BRANCH  16  17
HETATM   17  C7  UNL     1      13.431  28.393  14.335  1.00  0.00    -0.056 A 
HETATM   18  C8  UNL     1      12.705  29.487  14.819  1.00  0.00     0.007 A 
HETATM   19  C9  UNL     1      11.352  29.387  15.055  1.00  0.00     0.001 A 
HETATM   20  C10 UNL     1      10.669  28.217  14.824  1.00  0.00     0.000 A 
HETATM   21  C11 UNL     1      11.371  27.146  14.352  1.00  0.00     0.001 A 
HETATM   22  C12 UNL     1      12.725  27.241  14.115  1.00  0.00     0.007 A 
ENDBRANCH  16  17
ENDBRANCH   2  16
ENDBRANCH   1   2
BRANCH   1  23
HETATM   23  O3  UNL     1      17.588  29.144  13.206  1.00  0.00    -0.392 OA
ATOM     24  H3  UNL     1      18.404  29.509  12.883  1.00  0.00     0.210 HD
ENDBRANCH   1  23
BRANCH   1  25
HETATM   25  C14 UNL     1      16.856  31.072  11.995  1.00  0.00     0.147 C 
BRANCH  25  26
HETATM   26  N3  UNL     1      17.122  32.383  12.478  1.00  0.00    -0.226 NA
BRANCH  26  27
HETATM   27  C15 UNL     1      18.070  33.158  11.732  1.00  0.00     0.118 C 
BRANCH  27  28
HETATM   28  C16 UNL     1      17.618  34.471  11.219  1.00  0.00     0.000 C 
HETATM   29  C17 UNL     1      18.099  35.538  12.224  1.00  0.00     0.006 C 
HETATM   30  C18 UNL     1      17.898  36.912  11.673  1.00  0.00     0.000 C 
HETATM   31  C19 UNL     1      16.977  36.932  10.473  1.00  0.00     0.000 C 
HETATM   32  C20 UNL     1      17.537  36.087   9.379  1.00  0.00     0.000 C 
HETATM   33  C21 UNL     1      18.227  34.861   9.911  1.00  0.00     0.006 C 
ENDBRANCH  27  28
ENDBRANCH  26  27
BRANCH  26  34
HETATM   34  N4  UNL     1      17.419  32.392  13.845  1.00  0.00    -0.287 N 
HETATM   35  C22 UNL     1      16.620  33.218  14.718  1.00  0.00     0.255 C 
HETATM   36  O4  UNL     1      15.688  33.896  14.193  1.00  0.00    -0.270 OA
ATOM     37  H4  UNL     1      18.182  31.827  14.217  1.00  0.00     0.184 HD
BRANCH  35  38
HETATM   38  C23 UNL     1      16.852  33.296  16.168  1.00  0.00     0.181 C 
BRANCH  38  39
HETATM   39  N5  UNL     1      16.942  34.689  16.560  1.00  0.00    -0.348 N 
HETATM   40  C24 UNL     1      18.118  35.465  16.333  1.00  0.00     0.214 C 
HETATM   41  C25 UNL     1      18.171  36.889  16.742  1.00  0.00     0.117 C 
HETATM   42  O5  UNL     1      19.109  34.954  15.786  1.00  0.00    -0.274 OA
ATOM     43  H5  UNL     1      16.140  35.128  17.014  1.00  0.00     0.163 HD
ENDBRANCH  38  39
BRANCH  38  44
HETATM   44  C26 UNL     1      15.665  32.622  16.881  1.00  0.00     0.009 C 
HETATM   45  C27 UNL     1      15.839  32.703  18.376  1.00  0.00     0.012 C 
HETATM   46  C28 UNL     1      15.489  31.209  16.416  1.00  0.00     0.012 C 
ENDBRANCH  38  44
ENDBRANCH  35  38
ENDBRANCH  26  34
ENDBRANCH  25  26
ENDBRANCH   1  25
TORSDOF 16
ENDMDL
