MODEL 2
REMARK VINA RESULT: -10.249161485      0.958      1.582
REMARK  16 active torsions:
REMARK  status: ('A' for Active; 'I' for Inactive)
REMARK       I    between atoms: C2_2  and  N1_4 
REMARK    1  A    between atoms: N1_4  and  C3_6 
REMARK    2  A    between atoms: C3_6  and  C4_7 
REMARK    3  A    between atoms: C3_6  and  C29_44 
REMARK       I    between atoms: C4_7  and  N2_9 
REMARK    4  A    between atoms: N2_9  and  C5_11 
REMARK    5  A    between atoms: C5_11  and  C6_12 
REMARK    6  A    between atoms: C5_11  and  C13_19 
REMARK    7  A    between atoms: C6_12  and  C7_13 
REMARK    8  A    between atoms: C13_19  and  O3_20 
REMARK    9  A    between atoms: C13_19  and  C14_22 
REMARK   10  A    between atoms: C14_22  and  N3_23 
REMARK   11  A    between atoms: N3_23  and  C15_24 
REMARK   12  A    between atoms: N3_23  and  N4_31 
REMARK   13  A    between atoms: C15_24  and  C16_25 
REMARK       I    between atoms: N4_31  and  C22_33 
REMARK   14  A    between atoms: C22_33  and  C23_35 
REMARK   15  A    between atoms: C23_35  and  N5_36 
REMARK   16  A    between atoms: C23_35  and  C26_41 
REMARK       I    between atoms: N5_36  and  C24_38 
ROOT
HETATM    1  C13 UNL     1      17.170  30.205  12.619  1.00  0.00     0.156 C 
ENDROOT
BRANCH   1   2
HETATM    2  C5  UNL     1      17.122  31.674  12.546  1.00  0.00     0.118 C 
BRANCH   2   3
HETATM    3  N2  UNL     1      17.519  32.247  13.850  1.00  0.00    -0.352 N 
HETATM    4  C4  UNL     1      16.613  33.095  14.543  1.00  0.00     0.241 C 
HETATM    5  O2  UNL     1      15.502  33.329  14.010  1.00  0.00    -0.271 OA
ATOM      6  H2  UNL     1      18.434  32.037  14.249  1.00  0.00     0.163 HD
BRANCH   4   7
HETATM    7  C3  UNL     1      16.934  33.702  15.847  1.00  0.00     0.179 C 
BRANCH   7   8
HETATM    8  N1  UNL     1      17.017  35.142  15.803  1.00  0.00    -0.348 N 
HETATM    9  C2  UNL     1      18.254  35.837  15.723  1.00  0.00     0.214 C 
HETATM   10  C1  UNL     1      18.390  37.298  15.676  1.00  0.00     0.117 C 
HETATM   11  O1  UNL     1      19.286  35.093  15.693  1.00  0.00    -0.274 OA
ATOM     12  H1  UNL     1      16.153  35.682  15.831  1.00  0.00     0.163 HD
ENDBRANCH   7   8
BRANCH   7  13
HETATM   13  C29 UNL     1      15.873  33.369  16.903  1.00  0.00     0.009 C 
HETATM   14  C30 UNL     1      16.350  33.856  18.249  1.00  0.00     0.012 C 
HETATM   15  C31 UNL     1      15.664  31.891  16.955  1.00  0.00     0.012 C 
ENDBRANCH   7  13
ENDBRANCH   4   7
ENDBRANCH   2   3
BRANCH   2  16
HETATM   16  C6  UNL     1      18.118  32.281  11.556  1.00  0.00     0.066 C 
BRANCH  16  17
HETATM   17  C7  UNL     1      17.731  33.581  11.048  1.00  0.00    -0.056 A 
HETATM   18  C8  UNL     1      16.920  33.694   9.913  1.00  0.00     0.007 A 
HETATM   19  C9  UNL     1      16.567  34.930   9.418  1.00  0.00     0.001 A 
HETATM   20  C10 UNL     1      16.997  36.090  10.018  1.00  0.00     0.000 A 
HETATM   21  C11 UNL     1      17.789  35.987  11.125  1.00  0.00     0.001 A 
HETATM   22  C12 UNL     1      18.144  34.752  11.623  1.00  0.00     0.007 A 
ENDBRANCH  16  17
ENDBRANCH   2  16
ENDBRANCH   1   2
BRANCH   1  23
HETATM   23  O3  UNL     1      18.274  29.771  13.376  1.00  0.00    -0.392 OA
ATOM     24  H3  UNL     1      18.008  29.504  14.248  1.00  0.00     0.210 HD
ENDBRANCH   1  23
BRANCH   1  25
HETATM   25  C14 UNL     1      15.890  29.624  13.254  1.00  0.00     0.147 C 
BRANCH  25  26
HETATM   26  N3  UNL     1      14.739  29.889  12.460  1.00  0.00    -0.226 NA
BRANCH  26  27
HETATM   27  C15 UNL     1      13.551  30.268  13.167  1.00  0.00     0.118 C 
BRANCH  27  28
HETATM   28  C16 UNL     1      12.937  29.254  14.053  1.00  0.00     0.000 C 
HETATM   29  C17 UNL     1      12.707  29.929  15.421  1.00  0.00     0.006 C 
HETATM   30  C18 UNL     1      11.875  29.060  16.307  1.00  0.00     0.000 C 
HETATM   31  C19 UNL     1      11.775  27.638  15.802  1.00  0.00     0.000 C 
HETATM   32  C20 UNL     1      11.159  27.614  14.445  1.00  0.00     0.000 C 
HETATM   33  C21 UNL     1      11.585  28.791  13.612  1.00  0.00     0.006 C 
ENDBRANCH  27  28
ENDBRANCH  26  27
BRANCH  26  34
HETATM   34  N4  UNL     1      14.484  28.864  11.543  1.00  0.00    -0.287 N 
HETATM   35  C22 UNL     1      14.715  29.119  10.142  1.00  0.00     0.255 C 
HETATM   36  O4  UNL     1      15.138  30.268   9.818  1.00  0.00    -0.270 OA
ATOM     37  H4  UNL     1      14.142  27.955  11.858  1.00  0.00     0.184 HD
BRANCH  35  38
HETATM   38  C23 UNL     1      14.477  28.109   9.102  1.00  0.00     0.181 C 
BRANCH  38  39
HETATM   39  N5  UNL     1      13.182  27.493   9.324  1.00  0.00    -0.348 N 
HETATM   40  C24 UNL     1      12.975  26.090   9.167  1.00  0.00     0.214 C 
HETATM   41  C25 UNL     1      11.639  25.495   9.410  1.00  0.00     0.117 C 
HETATM   42  O5  UNL     1      13.914  25.353   8.827  1.00  0.00    -0.274 OA
ATOM     43  H5  UNL     1      12.396  28.081   9.601  1.00  0.00     0.163 HD
ENDBRANCH  38  39
BRANCH  38  44
HETATM   44  C26 UNL     1      14.497  28.814   7.733  1.00  0.00     0.009 C 
HETATM   45  C27 UNL     1      13.126  29.340   7.396  1.00  0.00     0.012 C 
HETATM   46  C28 UNL     1      15.023  27.905   6.666  1.00  0.00     0.012 C 
ENDBRANCH  38  44
ENDBRANCH  35  38
ENDBRANCH  26  34
ENDBRANCH  25  26
ENDBRANCH   1  25
TORSDOF 16
ENDMDL
