MODEL 4
REMARK VINA RESULT: -10.078776479      1.810      7.539
REMARK  16 active torsions:
REMARK  status: ('A' for Active; 'I' for Inactive)
REMARK       I    between atoms: C2_2  and  N1_4 
REMARK    1  A    between atoms: N1_4  and  C3_6 
REMARK    2  A    between atoms: C3_6  and  C4_7 
REMARK    3  A    between atoms: C3_6  and  C29_44 
REMARK       I    between atoms: C4_7  and  N2_9 
REMARK    4  A    between atoms: N2_9  and  C5_11 
REMARK    5  A    between atoms: C5_11  and  C6_12 
REMARK    6  A    between atoms: C5_11  and  C13_19 
REMARK    7  A    between atoms: C6_12  and  C7_13 
REMARK    8  A    between atoms: C13_19  and  O3_20 
REMARK    9  A    between atoms: C13_19  and  C14_22 
REMARK   10  A    between atoms: C14_22  and  N3_23 
REMARK   11  A    between atoms: N3_23  and  C15_24 
REMARK   12  A    between atoms: N3_23  and  N4_31 
REMARK   13  A    between atoms: C15_24  and  C16_25 
REMARK       I    between atoms: N4_31  and  C22_33 
REMARK   14  A    between atoms: C22_33  and  C23_35 
REMARK   15  A    between atoms: C23_35  and  N5_36 
REMARK   16  A    between atoms: C23_35  and  C26_41 
REMARK       I    between atoms: N5_36  and  C24_38 
ROOT
HETATM    1  C13 UNL     1      16.585  29.816  12.638  1.00  0.00     0.156 C 
ENDROOT
BRANCH   1   2
HETATM    2  C5  UNL     1      15.386  30.058  13.457  1.00  0.00     0.118 C 
BRANCH   2   3
HETATM    3  N2  UNL     1      14.427  28.949  13.269  1.00  0.00    -0.352 N 
HETATM    4  C4  UNL     1      13.033  29.226  13.276  1.00  0.00     0.241 C 
HETATM    5  O2  UNL     1      12.670  30.414  13.448  1.00  0.00    -0.271 OA
ATOM      6  H2  UNL     1      14.761  27.994  13.136  1.00  0.00     0.163 HD
BRANCH   4   7
HETATM    7  C3  UNL     1      12.014  28.176  13.092  1.00  0.00     0.179 C 
BRANCH   7   8
HETATM    8  N1  UNL     1      12.476  26.861  13.462  1.00  0.00    -0.348 N 
HETATM    9  C2  UNL     1      12.708  25.832  12.508  1.00  0.00     0.214 C 
HETATM   10  C1  UNL     1      13.177  24.480  12.834  1.00  0.00     0.117 C 
HETATM   11  O1  UNL     1      12.477  26.160  11.301  1.00  0.00    -0.274 OA
ATOM     12  H1  UNL     1      12.643  26.660  14.447  1.00  0.00     0.163 HD
ENDBRANCH   7   8
BRANCH   7  13
HETATM   13  C29 UNL     1      10.766  28.443  13.942  1.00  0.00     0.009 C 
HETATM   14  C30 UNL     1      11.005  27.934  15.341  1.00  0.00     0.012 C 
HETATM   15  C31 UNL     1       9.594  27.732  13.348  1.00  0.00     0.012 C 
ENDBRANCH   7  13
ENDBRANCH   4   7
ENDBRANCH   2   3
BRANCH   2  16
HETATM   16  C6  UNL     1      15.653  30.065  14.964  1.00  0.00     0.066 C 
BRANCH  16  17
HETATM   17  C7  UNL     1      15.462  31.355  15.594  1.00  0.00    -0.056 A 
HETATM   18  C8  UNL     1      15.094  32.474  14.839  1.00  0.00     0.007 A 
HETATM   19  C9  UNL     1      14.930  33.705  15.434  1.00  0.00     0.001 A 
HETATM   20  C10 UNL     1      15.121  33.877  16.785  1.00  0.00     0.000 A 
HETATM   21  C11 UNL     1      15.480  32.789  17.527  1.00  0.00     0.001 A 
HETATM   22  C12 UNL     1      15.645  31.557  16.935  1.00  0.00     0.007 A 
ENDBRANCH  16  17
ENDBRANCH   2  16
ENDBRANCH   1   2
BRANCH   1  23
HETATM   23  O3  UNL     1      17.418  28.851  13.230  1.00  0.00    -0.392 OA
ATOM     24  H3  UNL     1      17.489  28.076  12.684  1.00  0.00     0.210 HD
ENDBRANCH   1  23
BRANCH   1  25
HETATM   25  C14 UNL     1      16.217  29.333  11.219  1.00  0.00     0.147 C 
BRANCH  25  26
HETATM   26  N3  UNL     1      16.003  30.421  10.329  1.00  0.00    -0.226 NA
BRANCH  26  27
HETATM   27  C15 UNL     1      15.999  30.109   8.930  1.00  0.00     0.118 C 
BRANCH  27  28
HETATM   28  C16 UNL     1      15.350  28.843   8.519  1.00  0.00     0.000 C 
HETATM   29  C17 UNL     1      13.830  29.036   8.699  1.00  0.00     0.006 C 
HETATM   30  C18 UNL     1      13.078  27.899   8.088  1.00  0.00     0.000 C 
HETATM   31  C19 UNL     1      13.961  26.712   7.779  1.00  0.00     0.000 C 
HETATM   32  C20 UNL     1      15.037  27.103   6.823  1.00  0.00     0.000 C 
HETATM   33  C21 UNL     1      15.534  28.499   7.076  1.00  0.00     0.006 C 
ENDBRANCH  27  28
ENDBRANCH  26  27
BRANCH  26  34
HETATM   34  N4  UNL     1      16.843  31.504  10.609  1.00  0.00    -0.287 N 
HETATM   35  C22 UNL     1      16.248  32.737  11.065  1.00  0.00     0.255 C 
HETATM   36  O4  UNL     1      14.987  32.770  11.187  1.00  0.00    -0.270 OA
ATOM     37  H4  UNL     1      17.853  31.425  10.493  1.00  0.00     0.184 HD
BRANCH  35  38
HETATM   38  C23 UNL     1      17.043  33.931  11.385  1.00  0.00     0.181 C 
BRANCH  38  39
HETATM   39  N5  UNL     1      17.648  33.762  12.693  1.00  0.00    -0.348 N 
HETATM   40  C24 UNL     1      17.864  34.863  13.575  1.00  0.00     0.214 C 
HETATM   41  C25 UNL     1      18.479  34.651  14.907  1.00  0.00     0.117 C 
HETATM   42  O5  UNL     1      17.535  36.011  13.234  1.00  0.00    -0.274 OA
ATOM     43  H5  UNL     1      17.928  32.828  12.991  1.00  0.00     0.163 HD
ENDBRANCH  38  39
BRANCH  38  44
HETATM   44  C26 UNL     1      18.138  34.080  10.313  1.00  0.00     0.009 C 
HETATM   45  C27 UNL     1      19.503  34.052  10.951  1.00  0.00     0.012 C 
HETATM   46  C28 UNL     1      17.930  35.320   9.498  1.00  0.00     0.012 C 
ENDBRANCH  38  44
ENDBRANCH  35  38
ENDBRANCH  26  34
ENDBRANCH  25  26
ENDBRANCH   1  25
TORSDOF 16
ENDMDL
