MODEL 5
REMARK VINA RESULT: -10.055502838      2.045      7.752
REMARK  16 active torsions:
REMARK  status: ('A' for Active; 'I' for Inactive)
REMARK       I    between atoms: C2_2  and  N1_4 
REMARK    1  A    between atoms: N1_4  and  C3_6 
REMARK    2  A    between atoms: C3_6  and  C4_7 
REMARK    3  A    between atoms: C3_6  and  C29_44 
REMARK       I    between atoms: C4_7  and  N2_9 
REMARK    4  A    between atoms: N2_9  and  C5_11 
REMARK    5  A    between atoms: C5_11  and  C6_12 
REMARK    6  A    between atoms: C5_11  and  C13_19 
REMARK    7  A    between atoms: C6_12  and  C7_13 
REMARK    8  A    between atoms: C13_19  and  O3_20 
REMARK    9  A    between atoms: C13_19  and  C14_22 
REMARK   10  A    between atoms: C14_22  and  N3_23 
REMARK   11  A    between atoms: N3_23  and  C15_24 
REMARK   12  A    between atoms: N3_23  and  N4_31 
REMARK   13  A    between atoms: C15_24  and  C16_25 
REMARK       I    between atoms: N4_31  and  C22_33 
REMARK   14  A    between atoms: C22_33  and  C23_35 
REMARK   15  A    between atoms: C23_35  and  N5_36 
REMARK   16  A    between atoms: C23_35  and  C26_41 
REMARK       I    between atoms: N5_36  and  C24_38 
ROOT
HETATM    1  C13 UNL     1      16.447  29.706  12.652  1.00  0.00     0.156 C 
ENDROOT
BRANCH   1   2
HETATM    2  C5  UNL     1      15.176  29.773  13.391  1.00  0.00     0.118 C 
BRANCH   2   3
HETATM    3  N2  UNL     1      14.422  28.517  13.191  1.00  0.00    -0.352 N 
HETATM    4  C4  UNL     1      13.001  28.555  13.173  1.00  0.00     0.241 C 
HETATM    5  O2  UNL     1      12.440  29.664  13.334  1.00  0.00    -0.271 OA
ATOM      6  H2  UNL     1      14.915  27.633  13.068  1.00  0.00     0.163 HD
BRANCH   4   7
HETATM    7  C3  UNL     1      12.179  27.347  12.976  1.00  0.00     0.179 C 
BRANCH   7   8
HETATM    8  N1  UNL     1      10.933  27.607  12.298  1.00  0.00    -0.348 N 
HETATM    9  C2  UNL     1       9.673  27.531  12.952  1.00  0.00     0.214 C 
HETATM   10  C1  UNL     1       8.379  27.787  12.306  1.00  0.00     0.117 C 
HETATM   11  O1  UNL     1       9.726  27.215  14.183  1.00  0.00    -0.274 OA
ATOM     12  H1  UNL     1      10.957  27.857  11.310  1.00  0.00     0.163 HD
ENDBRANCH   7   8
BRANCH   7  13
HETATM   13  C29 UNL     1      12.910  26.295  12.134  1.00  0.00     0.009 C 
HETATM   14  C30 UNL     1      12.128  26.050  10.867  1.00  0.00     0.012 C 
HETATM   15  C31 UNL     1      13.016  25.020  12.905  1.00  0.00     0.012 C 
ENDBRANCH   7  13
ENDBRANCH   4   7
ENDBRANCH   2   3
BRANCH   2  16
HETATM   16  C6  UNL     1      15.343  29.867  14.910  1.00  0.00     0.066 C 
BRANCH  16  17
HETATM   17  C7  UNL     1      15.272  31.216  15.432  1.00  0.00    -0.056 A 
HETATM   18  C8  UNL     1      15.575  31.482  16.771  1.00  0.00     0.007 A 
HETATM   19  C9  UNL     1      15.489  32.762  17.273  1.00  0.00     0.001 A 
HETATM   20  C10 UNL     1      15.106  33.818  16.480  1.00  0.00     0.000 A 
HETATM   21  C11 UNL     1      14.810  33.564  15.172  1.00  0.00     0.001 A 
HETATM   22  C12 UNL     1      14.894  32.286  14.666  1.00  0.00     0.007 A 
ENDBRANCH  16  17
ENDBRANCH   2  16
ENDBRANCH   1   2
BRANCH   1  23
HETATM   23  O3  UNL     1      17.336  28.796  13.252  1.00  0.00    -0.392 OA
ATOM     24  H3  UNL     1      18.087  29.244  13.623  1.00  0.00     0.210 HD
ENDBRANCH   1  23
BRANCH   1  25
HETATM   25  C14 UNL     1      16.232  29.278  11.186  1.00  0.00     0.147 C 
BRANCH  25  26
HETATM   26  N3  UNL     1      16.001  30.395  10.337  1.00  0.00    -0.226 NA
BRANCH  26  27
HETATM   27  C15 UNL     1      15.970  30.130   8.928  1.00  0.00     0.118 C 
BRANCH  27  28
HETATM   28  C16 UNL     1      15.316  28.877   8.489  1.00  0.00     0.000 C 
HETATM   29  C17 UNL     1      13.793  29.108   8.575  1.00  0.00     0.006 C 
HETATM   30  C18 UNL     1      13.051  27.985   7.927  1.00  0.00     0.000 C 
HETATM   31  C19 UNL     1      13.922  26.773   7.681  1.00  0.00     0.000 C 
HETATM   32  C20 UNL     1      15.062  27.130   6.790  1.00  0.00     0.000 C 
HETATM   33  C21 UNL     1      15.578  28.516   7.062  1.00  0.00     0.006 C 
ENDBRANCH  27  28
ENDBRANCH  26  27
BRANCH  26  34
HETATM   34  N4  UNL     1      16.847  31.469  10.637  1.00  0.00    -0.287 N 
HETATM   35  C22 UNL     1      16.257  32.705  11.091  1.00  0.00     0.255 C 
HETATM   36  O4  UNL     1      14.995  32.749  11.193  1.00  0.00    -0.270 OA
ATOM     37  H4  UNL     1      17.858  31.380  10.536  1.00  0.00     0.184 HD
BRANCH  35  38
HETATM   38  C23 UNL     1      17.059  33.888  11.431  1.00  0.00     0.181 C 
BRANCH  38  39
HETATM   39  N5  UNL     1      17.628  33.713  12.753  1.00  0.00    -0.348 N 
HETATM   40  C24 UNL     1      17.839  34.812  13.639  1.00  0.00     0.214 C 
HETATM   41  C25 UNL     1      18.418  34.593  14.986  1.00  0.00     0.117 C 
HETATM   42  O5  UNL     1      17.537  35.965  13.288  1.00  0.00    -0.274 OA
ATOM     43  H5  UNL     1      17.886  32.775  13.060  1.00  0.00     0.163 HD
ENDBRANCH  38  39
BRANCH  38  44
HETATM   44  C26 UNL     1      18.182  34.024  10.386  1.00  0.00     0.009 C 
HETATM   45  C27 UNL     1      19.528  34.032  11.065  1.00  0.00     0.012 C 
HETATM   46  C28 UNL     1      17.981  35.237   9.532  1.00  0.00     0.012 C 
ENDBRANCH  38  44
ENDBRANCH  35  38
ENDBRANCH  26  34
ENDBRANCH  25  26
ENDBRANCH   1  25
TORSDOF 16
ENDMDL
