MODEL 1
REMARK VINA RESULT: -11.125027421      0.000      0.000
REMARK  15 active torsions:
REMARK  status: ('A' for Active; 'I' for Inactive)
REMARK    1  A    between atoms: C1_2  and  C2_4 
REMARK    2  A    between atoms: N2_8  and  C6_9 
REMARK    3  A    between atoms: C7_11  and  C8_12 
REMARK    4  A    between atoms: C8_12  and  O3_13 
REMARK    5  A    between atoms: O3_13  and  P1_14 
REMARK    6  A    between atoms: P1_14  and  O6_17 
REMARK    7  A    between atoms: O6_17  and  P2_18 
REMARK    8  A    between atoms: P2_18  and  O9_21 
REMARK    9  A    between atoms: O9_21  and  C9_22 
REMARK   10  A    between atoms: C9_22  and  C10_23 
REMARK   11  A    between atoms: C11_25  and  N3_26 
REMARK   12  A    between atoms: C17_39  and  O11_40 
REMARK   13  A    between atoms: C18_42  and  O12_43 
REMARK   14  A    between atoms: C19_45  and  O13_46 
REMARK   15  A    between atoms: C20_48  and  O14_49 
ROOT
HETATM    1  P2  UNL     1       1.901  25.238  27.311  1.00  0.00     0.417 P 
HETATM    2  O7  UNL     1       1.666  26.466  28.138  1.00  0.00    -0.624 OA
HETATM    3  O8  UNL     1       0.684  24.093  27.827  1.00  0.00    -0.624 OA
ENDROOT
BRANCH   1   4
HETATM    4  O6  UNL     1       1.786  25.477  25.720  1.00  0.00    -0.180 OA
BRANCH   4   5
HETATM    5  P1  UNL     1       2.828  26.549  25.014  1.00  0.00     0.417 P 
HETATM    6  O4  UNL     1       2.797  26.564  23.545  1.00  0.00    -0.624 OA
HETATM    7  O5  UNL     1       4.483  25.967  25.389  1.00  0.00    -0.624 OA
BRANCH   5   8
HETATM    8  O3  UNL     1       2.753  28.013  25.744  1.00  0.00    -0.287 OA
BRANCH   8   9
HETATM    9  C8  UNL     1       2.015  28.975  25.021  1.00  0.00     0.216 C 
BRANCH   9  10
HETATM   10  C7  UNL     1       0.844  29.232  26.017  1.00  0.00     0.180 C 
HETATM   11  O2  UNL     1       0.660  30.587  26.147  1.00  0.00    -0.353 OA
HETATM   12  C6  UNL     1      -0.670  30.921  26.041  1.00  0.00     0.259 C 
HETATM   13  C20 UNL     1      -1.401  29.607  26.337  1.00  0.00     0.198 C 
HETATM   14  C19 UNL     1      -0.432  28.620  25.620  1.00  0.00     0.182 C 
BRANCH  12  15
HETATM   15  N2  UNL     1      -0.879  31.190  24.602  1.00  0.00    -0.336 N 
HETATM   16  C5  UNL     1       0.058  31.776  23.854  1.00  0.00     0.093 A 
HETATM   17  C4  UNL     1      -0.224  32.118  22.533  1.00  0.00     0.018 A 
HETATM   18  C3  UNL     1      -1.458  31.856  22.012  1.00  0.00     0.019 A 
HETATM   19  C2  UNL     1      -2.396  31.256  22.810  1.00  0.00     0.044 A 
HETATM   20  C21 UNL     1      -2.096  30.924  24.113  1.00  0.00     0.110 A 
BRANCH  19  21
HETATM   21  C1  UNL     1      -3.737  30.999  22.317  1.00  0.00     0.266 C 
HETATM   22  N1  UNL     1      -3.982  29.894  21.471  1.00  0.00    -0.057 NA
HETATM   23  O1  UNL     1      -4.737  31.739  22.609  1.00  0.00    -0.271 OA
ENDBRANCH  19  21
ENDBRANCH  12  15
BRANCH  13  24
HETATM   24  O14 UNL     1      -1.294  29.304  27.694  1.00  0.00    -0.388 OA
ATOM     25  H14 UNL     1      -1.908  28.615  27.918  1.00  0.00     0.210 HD
ENDBRANCH  13  24
BRANCH  14  26
HETATM   26  O13 UNL     1      -0.637  27.317  26.087  1.00  0.00    -0.390 OA
ATOM     27  H13 UNL     1      -1.546  27.050  26.153  1.00  0.00     0.210 HD
ENDBRANCH  14  26
ENDBRANCH   9  10
ENDBRANCH   8   9
ENDBRANCH   5   8
ENDBRANCH   4   5
ENDBRANCH   1   4
BRANCH   1  28
HETATM   28  O9  UNL     1       3.349  24.526  27.932  1.00  0.00    -0.287 OA
BRANCH  28  29
HETATM   29  C9  UNL     1       3.817  25.528  28.844  1.00  0.00     0.216 C 
BRANCH  29  30
HETATM   30  C10 UNL     1       4.113  24.895  30.136  1.00  0.00     0.180 C 
HETATM   31  O10 UNL     1       2.914  24.823  30.899  1.00  0.00    -0.353 OA
HETATM   32  C11 UNL     1       3.407  24.137  32.029  1.00  0.00     0.262 C 
HETATM   33  C17 UNL     1       3.853  22.859  31.266  1.00  0.00     0.198 C 
HETATM   34  C18 UNL     1       4.650  23.529  30.111  1.00  0.00     0.182 C 
BRANCH  32  35
HETATM   35  N3  UNL     1       2.352  23.907  32.937  1.00  0.00    -0.297 N 
HETATM   36  C12 UNL     1       1.167  23.238  32.726  1.00  0.00     0.188 A 
HETATM   37  N4  UNL     1       0.431  23.226  33.838  1.00  0.00    -0.346 N 
HETATM   38  C13 UNL     1       1.154  23.888  34.789  1.00  0.00     0.119 A 
ATOM     39  H4  UNL     1      -0.490  22.805  33.955  1.00  0.00     0.167 HD
HETATM   40  C14 UNL     1       0.872  24.175  36.093  1.00  0.00     0.148 A 
HETATM   41  C16 UNL     1       2.340  24.305  34.206  1.00  0.00     0.142 A 
HETATM   42  N5  UNL     1      -0.330  23.716  36.703  1.00  0.00    -0.080 NA
HETATM   43  N6  UNL     1       1.746  24.883  36.826  1.00  0.00    -0.339 N 
HETATM   44  C15 UNL     1       2.892  25.307  36.285  1.00  0.00     0.183 A 
ATOM     45  H6  UNL     1       1.535  25.098  37.800  1.00  0.00     0.167 HD
HETATM   46  N7  UNL     1       3.175  25.009  34.980  1.00  0.00    -0.336 N 
ATOM     47  H7  UNL     1       4.055  25.337  34.582  1.00  0.00     0.168 HD
ENDBRANCH  32  35
BRANCH  33  48
HETATM   48  O11 UNL     1       4.565  21.987  32.013  1.00  0.00    -0.388 OA
ATOM     49  H11 UNL     1       4.230  21.098  32.002  1.00  0.00     0.210 HD
ENDBRANCH  33  48
BRANCH  34  50
HETATM   50  O12 UNL     1       6.006  23.543  30.563  1.00  0.00    -0.390 OA
ATOM     51  H12 UNL     1       6.554  23.095  29.930  1.00  0.00     0.210 HD
ENDBRANCH  34  50
ENDBRANCH  29  30
ENDBRANCH  28  29
ENDBRANCH   1  28
TORSDOF 15
ENDMDL
