MODEL 7
REMARK VINA RESULT: -10.144498406      2.494      4.110
REMARK  15 active torsions:
REMARK  status: ('A' for Active; 'I' for Inactive)
REMARK    1  A    between atoms: C1_2  and  C2_4 
REMARK    2  A    between atoms: N2_8  and  C6_9 
REMARK    3  A    between atoms: C7_11  and  C8_12 
REMARK    4  A    between atoms: C8_12  and  O3_13 
REMARK    5  A    between atoms: O3_13  and  P1_14 
REMARK    6  A    between atoms: P1_14  and  O6_17 
REMARK    7  A    between atoms: O6_17  and  P2_18 
REMARK    8  A    between atoms: P2_18  and  O9_21 
REMARK    9  A    between atoms: O9_21  and  C9_22 
REMARK   10  A    between atoms: C9_22  and  C10_23 
REMARK   11  A    between atoms: C11_25  and  N3_26 
REMARK   12  A    between atoms: C17_39  and  O11_40 
REMARK   13  A    between atoms: C18_42  and  O12_43 
REMARK   14  A    between atoms: C19_45  and  O13_46 
REMARK   15  A    between atoms: C20_48  and  O14_49 
ROOT
HETATM    1  P2  UNL     1      -0.969  28.138  26.514  1.00  0.00     0.417 P 
HETATM    2  O7  UNL     1      -0.977  29.274  27.492  1.00  0.00    -0.624 OA
HETATM    3  O8  UNL     1      -2.640  27.641  26.369  1.00  0.00    -0.624 OA
ENDROOT
BRANCH   1   4
HETATM    4  O6  UNL     1      -0.384  28.517  25.060  1.00  0.00    -0.180 OA
BRANCH   4   5
HETATM    5  P1  UNL     1       0.992  29.431  24.986  1.00  0.00     0.417 P 
HETATM    6  O4  UNL     1       1.946  29.029  23.944  1.00  0.00    -0.624 OA
HETATM    7  O5  UNL     1       1.887  29.122  26.510  1.00  0.00    -0.624 OA
BRANCH   5   8
HETATM    8  O3  UNL     1       0.643  31.030  25.056  1.00  0.00    -0.287 OA
BRANCH   8   9
HETATM    9  C8  UNL     1       0.267  31.587  23.814  1.00  0.00     0.216 C 
BRANCH   9  10
HETATM   10  C7  UNL     1      -1.049  32.316  24.224  1.00  0.00     0.180 C 
HETATM   11  O2  UNL     1      -1.250  33.379  23.378  1.00  0.00    -0.353 OA
HETATM   12  C6  UNL     1      -2.545  33.409  22.918  1.00  0.00     0.259 C 
HETATM   13  C20 UNL     1      -3.315  32.562  23.936  1.00  0.00     0.198 C 
HETATM   14  C19 UNL     1      -2.244  31.462  24.199  1.00  0.00     0.182 C 
BRANCH  12  15
HETATM   15  N2  UNL     1      -2.521  32.622  21.666  1.00  0.00    -0.336 N 
HETATM   16  C5  UNL     1      -1.381  32.154  21.154  1.00  0.00     0.093 A 
HETATM   17  C4  UNL     1      -1.388  31.519  19.913  1.00  0.00     0.018 A 
HETATM   18  C3  UNL     1      -2.560  31.383  19.227  1.00  0.00     0.019 A 
HETATM   19  C2  UNL     1      -3.710  31.878  19.782  1.00  0.00     0.044 A 
HETATM   20  C21 UNL     1      -3.681  32.501  21.010  1.00  0.00     0.110 A 
BRANCH  19  21
HETATM   21  C1  UNL     1      -4.972  31.800  19.071  1.00  0.00     0.266 C 
HETATM   22  N1  UNL     1      -5.029  32.107  17.692  1.00  0.00    -0.057 NA
HETATM   23  O1  UNL     1      -6.068  31.464  19.636  1.00  0.00    -0.271 OA
ENDBRANCH  19  21
ENDBRANCH  12  15
BRANCH  13  24
HETATM   24  O14 UNL     1      -3.428  33.258  25.138  1.00  0.00    -0.388 OA
ATOM     25  H14 UNL     1      -2.917  32.823  25.811  1.00  0.00     0.210 HD
ENDBRANCH  13  24
BRANCH  14  26
HETATM   26  O13 UNL     1      -2.523  30.793  25.397  1.00  0.00    -0.390 OA
ATOM     27  H13 UNL     1      -1.826  30.232  25.718  1.00  0.00     0.210 HD
ENDBRANCH  14  26
ENDBRANCH   9  10
ENDBRANCH   8   9
ENDBRANCH   5   8
ENDBRANCH   4   5
ENDBRANCH   1   4
BRANCH   1  28
HETATM   28  O9  UNL     1      -0.270  26.799  27.358  1.00  0.00    -0.287 OA
BRANCH  28  29
HETATM   29  C9  UNL     1       0.215  25.980  26.285  1.00  0.00     0.216 C 
BRANCH  29  30
HETATM   30  C10 UNL     1       1.499  25.388  26.680  1.00  0.00     0.180 C 
HETATM   31  O10 UNL     1       1.621  25.455  28.097  1.00  0.00    -0.353 OA
HETATM   32  C11 UNL     1       2.853  24.785  28.250  1.00  0.00     0.262 C 
HETATM   33  C17 UNL     1       2.389  23.439  27.630  1.00  0.00     0.198 C 
HETATM   34  C18 UNL     1       1.731  23.981  26.328  1.00  0.00     0.182 C 
BRANCH  32  35
HETATM   35  N3  UNL     1       3.170  24.689  29.621  1.00  0.00    -0.297 N 
HETATM   36  C12 UNL     1       4.300  25.126  30.274  1.00  0.00     0.188 A 
HETATM   37  N4  UNL     1       4.220  24.858  31.578  1.00  0.00    -0.346 N 
HETATM   38  C13 UNL     1       3.015  24.247  31.777  1.00  0.00     0.119 A 
ATOM     39  H4  UNL     1       4.921  25.068  32.288  1.00  0.00     0.167 HD
HETATM   40  C14 UNL     1       2.431  23.758  32.909  1.00  0.00     0.148 A 
HETATM   41  C16 UNL     1       2.382  24.150  30.547  1.00  0.00     0.142 A 
HETATM   42  N5  UNL     1       3.064  23.890  34.178  1.00  0.00    -0.080 NA
HETATM   43  N6  UNL     1       1.232  23.159  32.837  1.00  0.00    -0.339 N 
HETATM   44  C15 UNL     1       0.605  23.042  31.663  1.00  0.00     0.183 A 
ATOM     45  H6  UNL     1       0.796  22.792  33.684  1.00  0.00     0.167 HD
HETATM   46  N7  UNL     1       1.189  23.542  30.532  1.00  0.00    -0.336 N 
ATOM     47  H7  UNL     1       0.698  23.447  29.643  1.00  0.00     0.168 HD
ENDBRANCH  32  35
BRANCH  33  48
HETATM   48  O11 UNL     1       3.384  22.547  27.430  1.00  0.00    -0.388 OA
ATOM     49  H11 UNL     1       3.245  21.705  27.849  1.00  0.00     0.210 HD
ENDBRANCH  33  48
BRANCH  34  50
HETATM   50  O12 UNL     1       2.760  23.902  25.340  1.00  0.00    -0.390 OA
ATOM     51  H12 UNL     1       3.389  23.236  25.591  1.00  0.00     0.210 HD
ENDBRANCH  34  50
ENDBRANCH  29  30
ENDBRANCH  28  29
ENDBRANCH   1  28
TORSDOF 15
ENDMDL
