MODEL 9
REMARK VINA RESULT: -10.124415555      4.295     10.886
REMARK  15 active torsions:
REMARK  status: ('A' for Active; 'I' for Inactive)
REMARK    1  A    between atoms: C1_2  and  C2_4 
REMARK    2  A    between atoms: N2_8  and  C6_9 
REMARK    3  A    between atoms: C7_11  and  C8_12 
REMARK    4  A    between atoms: C8_12  and  O3_13 
REMARK    5  A    between atoms: O3_13  and  P1_14 
REMARK    6  A    between atoms: P1_14  and  O6_17 
REMARK    7  A    between atoms: O6_17  and  P2_18 
REMARK    8  A    between atoms: P2_18  and  O9_21 
REMARK    9  A    between atoms: O9_21  and  C9_22 
REMARK   10  A    between atoms: C9_22  and  C10_23 
REMARK   11  A    between atoms: C11_25  and  N3_26 
REMARK   12  A    between atoms: C17_39  and  O11_40 
REMARK   13  A    between atoms: C18_42  and  O12_43 
REMARK   14  A    between atoms: C19_45  and  O13_46 
REMARK   15  A    between atoms: C20_48  and  O14_49 
ROOT
HETATM    1  P2  UNL     1       3.102  28.028  23.963  1.00  0.00     0.417 P 
HETATM    2  O7  UNL     1       3.639  28.476  22.637  1.00  0.00    -0.624 OA
HETATM    3  O8  UNL     1       2.545  26.389  23.706  1.00  0.00    -0.624 OA
ENDROOT
BRANCH   1   4
HETATM    4  O6  UNL     1       4.181  28.056  25.161  1.00  0.00    -0.180 OA
BRANCH   4   5
HETATM    5  P1  UNL     1       3.620  28.040  26.716  1.00  0.00     0.417 P 
HETATM    6  O4  UNL     1       2.509  28.963  26.983  1.00  0.00    -0.624 OA
HETATM    7  O5  UNL     1       4.947  28.682  27.739  1.00  0.00    -0.624 OA
BRANCH   5   8
HETATM    8  O3  UNL     1       3.420  26.506  27.255  1.00  0.00    -0.287 OA
BRANCH   8   9
HETATM    9  C8  UNL     1       2.353  26.357  28.169  1.00  0.00     0.216 C 
BRANCH   9  10
HETATM   10  C7  UNL     1       2.453  24.829  28.465  1.00  0.00     0.180 C 
HETATM   11  O2  UNL     1       1.188  24.297  28.482  1.00  0.00    -0.353 OA
HETATM   12  C6  UNL     1       1.125  23.142  27.738  1.00  0.00     0.259 C 
HETATM   13  C20 UNL     1       2.585  22.687  27.645  1.00  0.00     0.198 C 
HETATM   14  C19 UNL     1       3.266  24.080  27.498  1.00  0.00     0.182 C 
BRANCH  12  15
HETATM   15  N2  UNL     1       0.747  23.587  26.380  1.00  0.00    -0.336 N 
HETATM   16  C5  UNL     1      -0.134  24.569  26.183  1.00  0.00     0.093 A 
HETATM   17  C4  UNL     1      -0.551  24.877  24.888  1.00  0.00     0.018 A 
HETATM   18  C3  UNL     1      -0.057  24.171  23.830  1.00  0.00     0.019 A 
HETATM   19  C2  UNL     1       0.845  23.168  24.070  1.00  0.00     0.044 A 
HETATM   20  C21 UNL     1       1.244  22.880  25.357  1.00  0.00     0.110 A 
BRANCH  19  21
HETATM   21  C1  UNL     1       1.362  22.357  22.984  1.00  0.00     0.266 C 
HETATM   22  N1  UNL     1       1.228  20.951  23.022  1.00  0.00    -0.057 NA
HETATM   23  O1  UNL     1       1.953  22.856  21.966  1.00  0.00    -0.271 OA
ENDBRANCH  19  21
ENDBRANCH  12  15
BRANCH  13  24
HETATM   24  O14 UNL     1       3.007  22.202  28.882  1.00  0.00    -0.388 OA
ATOM     25  H14 UNL     1       3.566  21.444  28.756  1.00  0.00     0.210 HD
ENDBRANCH  13  24
BRANCH  14  26
HETATM   26  O13 UNL     1       4.628  23.987  27.811  1.00  0.00    -0.390 OA
ATOM     27  H13 UNL     1       4.832  23.451  28.568  1.00  0.00     0.210 HD
ENDBRANCH  14  26
ENDBRANCH   9  10
ENDBRANCH   8   9
ENDBRANCH   5   8
ENDBRANCH   4   5
ENDBRANCH   1   4
BRANCH   1  28
HETATM   28  O9  UNL     1       1.613  28.882  24.177  1.00  0.00    -0.287 OA
BRANCH  28  29
HETATM   29  C9  UNL     1       1.866  30.116  23.492  1.00  0.00     0.216 C 
BRANCH  29  30
HETATM   30  C10 UNL     1       0.746  31.034  23.735  1.00  0.00     0.180 C 
HETATM   31  O10 UNL     1      -0.269  30.790  22.768  1.00  0.00    -0.353 OA
HETATM   32  C11 UNL     1      -1.242  31.703  23.226  1.00  0.00     0.262 C 
HETATM   33  C17 UNL     1      -1.419  31.065  24.632  1.00  0.00     0.198 C 
HETATM   34  C18 UNL     1       0.078  30.953  25.040  1.00  0.00     0.182 C 
BRANCH  32  35
HETATM   35  N3  UNL     1      -2.395  31.606  22.419  1.00  0.00    -0.297 N 
HETATM   36  C12 UNL     1      -3.712  31.517  22.810  1.00  0.00     0.188 A 
HETATM   37  N4  UNL     1      -4.513  31.451  21.746  1.00  0.00    -0.346 N 
HETATM   38  C13 UNL     1      -3.705  31.507  20.646  1.00  0.00     0.119 A 
ATOM     39  H4  UNL     1      -5.530  31.373  21.751  1.00  0.00     0.167 HD
HETATM   40  C14 UNL     1      -3.996  31.468  19.314  1.00  0.00     0.148 A 
HETATM   41  C16 UNL     1      -2.394  31.599  21.089  1.00  0.00     0.142 A 
HETATM   42  N5  UNL     1      -5.344  31.410  18.858  1.00  0.00    -0.080 NA
HETATM   43  N6  UNL     1      -3.003  31.505  18.412  1.00  0.00    -0.339 N 
HETATM   44  C15 UNL     1      -1.730  31.582  18.811  1.00  0.00     0.183 A 
ATOM     45  H6  UNL     1      -3.220  31.475  17.415  1.00  0.00     0.167 HD
HETATM   46  N7  UNL     1      -1.443  31.630  20.148  1.00  0.00    -0.336 N 
ATOM     47  H7  UNL     1      -0.467  31.692  20.438  1.00  0.00     0.168 HD
ENDBRANCH  32  35
BRANCH  33  48
HETATM   48  O11 UNL     1      -2.182  31.792  25.479  1.00  0.00    -0.388 OA
ATOM     49  H11 UNL     1      -2.042  32.730  25.424  1.00  0.00     0.210 HD
ENDBRANCH  33  48
BRANCH  34  50
HETATM   50  O12 UNL     1       0.344  32.143  25.785  1.00  0.00    -0.390 OA
ATOM     51  H12 UNL     1       1.114  32.012  26.325  1.00  0.00     0.210 HD
ENDBRANCH  34  50
ENDBRANCH  29  30
ENDBRANCH  28  29
ENDBRANCH   1  28
TORSDOF 15
ENDMDL
