MODEL 5
REMARK VINA RESULT: -10.223584718      3.328      5.451
REMARK  15 active torsions:
REMARK  status: ('A' for Active; 'I' for Inactive)
REMARK    1  A    between atoms: C1_2  and  C2_4 
REMARK    2  A    between atoms: N2_8  and  C6_9 
REMARK    3  A    between atoms: C7_11  and  C8_12 
REMARK    4  A    between atoms: C8_12  and  O3_13 
REMARK    5  A    between atoms: O3_13  and  P1_14 
REMARK    6  A    between atoms: P1_14  and  O6_17 
REMARK    7  A    between atoms: O6_17  and  P2_18 
REMARK    8  A    between atoms: P2_18  and  O9_21 
REMARK    9  A    between atoms: O9_21  and  C9_22 
REMARK   10  A    between atoms: C9_22  and  C10_23 
REMARK   11  A    between atoms: C11_25  and  N3_26 
REMARK   12  A    between atoms: C17_39  and  O11_40 
REMARK   13  A    between atoms: C18_42  and  O12_43 
REMARK   14  A    between atoms: C19_45  and  O13_46 
REMARK   15  A    between atoms: C20_48  and  O14_49 
ROOT
HETATM    1  P2  UNL     1       0.956  29.951  26.919  1.00  0.00     0.417 P 
HETATM    2  O7  UNL     1       1.205  30.158  25.455  1.00  0.00    -0.624 OA
HETATM    3  O8  UNL     1       1.918  31.167  27.728  1.00  0.00    -0.624 OA
ENDROOT
BRANCH   1   4
HETATM    4  O6  UNL     1      -0.589  30.097  27.357  1.00  0.00    -0.180 OA
BRANCH   4   5
HETATM    5  P1  UNL     1      -1.711  29.154  26.590  1.00  0.00     0.417 P 
HETATM    6  O4  UNL     1      -2.417  28.204  27.459  1.00  0.00    -0.624 OA
HETATM    7  O5  UNL     1      -0.797  28.092  25.470  1.00  0.00    -0.624 OA
BRANCH   5   8
HETATM    8  O3  UNL     1      -2.655  30.051  25.596  1.00  0.00    -0.287 OA
BRANCH   8   9
HETATM    9  C8  UNL     1      -2.181  30.119  24.267  1.00  0.00     0.216 C 
BRANCH   9  10
HETATM   10  C7  UNL     1      -1.728  31.610  24.211  1.00  0.00     0.180 C 
HETATM   11  O2  UNL     1      -0.748  31.741  23.258  1.00  0.00    -0.353 OA
HETATM   12  C6  UNL     1      -0.994  32.816  22.437  1.00  0.00     0.259 C 
HETATM   13  C20 UNL     1      -1.957  33.686  23.252  1.00  0.00     0.198 C 
HETATM   14  C19 UNL     1      -2.809  32.558  23.908  1.00  0.00     0.182 C 
BRANCH  12  15
HETATM   15  N2  UNL     1      -1.787  32.265  21.318  1.00  0.00    -0.336 N 
HETATM   16  C5  UNL     1      -1.206  31.712  20.251  1.00  0.00     0.093 A 
HETATM   17  C4  UNL     1      -1.985  31.312  19.167  1.00  0.00     0.018 A 
HETATM   18  C3  UNL     1      -3.338  31.491  19.200  1.00  0.00     0.019 A 
HETATM   19  C2  UNL     1      -3.900  32.064  20.310  1.00  0.00     0.044 A 
HETATM   20  C21 UNL     1      -3.111  32.451  21.372  1.00  0.00     0.110 A 
BRANCH  19  21
HETATM   21  C1  UNL     1      -5.327  32.319  20.374  1.00  0.00     0.266 C 
HETATM   22  N1  UNL     1      -6.128  31.633  21.315  1.00  0.00    -0.057 NA
HETATM   23  O1  UNL     1      -5.919  33.149  19.604  1.00  0.00    -0.271 OA
ENDBRANCH  19  21
ENDBRANCH  12  15
BRANCH  13  24
HETATM   24  O14 UNL     1      -1.272  34.288  24.306  1.00  0.00    -0.388 OA
ATOM     25  H14 UNL     1      -1.876  34.799  24.831  1.00  0.00     0.210 HD
ENDBRANCH  13  24
BRANCH  14  26
HETATM   26  O13 UNL     1      -3.493  33.056  25.023  1.00  0.00    -0.390 OA
ATOM     27  H13 UNL     1      -4.247  32.546  25.295  1.00  0.00     0.210 HD
ENDBRANCH  14  26
ENDBRANCH   9  10
ENDBRANCH   8   9
ENDBRANCH   5   8
ENDBRANCH   4   5
ENDBRANCH   1   4
BRANCH   1  28
HETATM   28  O9  UNL     1       1.794  28.496  27.336  1.00  0.00    -0.287 OA
BRANCH  28  29
HETATM   29  C9  UNL     1       3.006  28.614  26.579  1.00  0.00     0.216 C 
BRANCH  29  30
HETATM   30  C10 UNL     1       3.365  27.293  26.046  1.00  0.00     0.180 C 
HETATM   31  O10 UNL     1       3.862  26.486  27.108  1.00  0.00    -0.353 OA
HETATM   32  C11 UNL     1       4.065  25.283  26.401  1.00  0.00     0.262 C 
HETATM   33  C17 UNL     1       2.583  25.085  25.979  1.00  0.00     0.198 C 
HETATM   34  C18 UNL     1       2.296  26.506  25.417  1.00  0.00     0.182 C 
BRANCH  32  35
HETATM   35  N3  UNL     1       4.531  24.289  27.288  1.00  0.00    -0.297 N 
HETATM   36  C12 UNL     1       5.251  23.152  27.002  1.00  0.00     0.188 A 
HETATM   37  N4  UNL     1       5.511  22.469  28.117  1.00  0.00    -0.346 N 
HETATM   38  C13 UNL     1       4.960  23.179  29.145  1.00  0.00     0.119 A 
ATOM     39  H4  UNL     1       6.021  21.589  28.188  1.00  0.00     0.167 HD
HETATM   40  C14 UNL     1       4.921  22.934  30.487  1.00  0.00     0.148 A 
HETATM   41  C16 UNL     1       4.354  24.303  28.606  1.00  0.00     0.142 A 
HETATM   42  N5  UNL     1       5.574  21.799  31.046  1.00  0.00    -0.080 NA
HETATM   43  N6  UNL     1       4.276  23.783  31.303  1.00  0.00    -0.339 N 
HETATM   44  C15 UNL     1       3.673  24.868  30.808  1.00  0.00     0.183 A 
ATOM     45  H6  UNL     1       4.245  23.599  32.305  1.00  0.00     0.167 HD
HETATM   46  N7  UNL     1       3.723  25.115  29.463  1.00  0.00    -0.336 N 
ATOM     47  H7  UNL     1       3.261  25.949  29.101  1.00  0.00     0.168 HD
ENDBRANCH  32  35
BRANCH  33  48
HETATM   48  O11 UNL     1       2.386  24.079  25.099  1.00  0.00    -0.388 OA
ATOM     49  H11 UNL     1       1.692  23.477  25.342  1.00  0.00     0.210 HD
ENDBRANCH  33  48
BRANCH  34  50
HETATM   50  O12 UNL     1       2.546  26.401  24.014  1.00  0.00    -0.390 OA
ATOM     51  H12 UNL     1       2.593  27.272  23.636  1.00  0.00     0.210 HD
ENDBRANCH  34  50
ENDBRANCH  29  30
ENDBRANCH  28  29
ENDBRANCH   1  28
TORSDOF 15
ENDMDL
