MODEL 4
REMARK VINA RESULT: -10.258291129      1.190      1.459
REMARK  15 active torsions:
REMARK  status: ('A' for Active; 'I' for Inactive)
REMARK    1  A    between atoms: C1_2  and  C2_4 
REMARK    2  A    between atoms: N2_8  and  C6_9 
REMARK    3  A    between atoms: C7_11  and  C8_12 
REMARK    4  A    between atoms: C8_12  and  O3_13 
REMARK    5  A    between atoms: O3_13  and  P1_14 
REMARK    6  A    between atoms: P1_14  and  O6_17 
REMARK    7  A    between atoms: O6_17  and  P2_18 
REMARK    8  A    between atoms: P2_18  and  O9_21 
REMARK    9  A    between atoms: O9_21  and  C9_22 
REMARK   10  A    between atoms: C9_22  and  C10_23 
REMARK   11  A    between atoms: C11_25  and  N3_26 
REMARK   12  A    between atoms: C17_39  and  O11_40 
REMARK   13  A    between atoms: C18_42  and  O12_43 
REMARK   14  A    between atoms: C19_45  and  O13_46 
REMARK   15  A    between atoms: C20_48  and  O14_49 
ROOT
HETATM    1  P2  UNL     1       1.992  24.784  27.653  1.00  0.00     0.417 P 
HETATM    2  O7  UNL     1       1.692  26.181  28.108  1.00  0.00    -0.624 OA
HETATM    3  O8  UNL     1       1.230  23.740  28.834  1.00  0.00    -0.624 OA
ENDROOT
BRANCH   1   4
HETATM    4  O6  UNL     1       1.441  24.432  26.179  1.00  0.00    -0.180 OA
BRANCH   4   5
HETATM    5  P1  UNL     1       1.627  25.562  24.986  1.00  0.00     0.417 P 
HETATM    6  O4  UNL     1       1.593  25.028  23.619  1.00  0.00    -0.624 OA
HETATM    7  O5  UNL     1       3.300  26.192  25.144  1.00  0.00    -0.624 OA
BRANCH   5   8
HETATM    8  O3  UNL     1       0.687  26.874  25.264  1.00  0.00    -0.287 OA
BRANCH   8   9
HETATM    9  C8  UNL     1      -0.697  26.617  25.161  1.00  0.00     0.216 C 
BRANCH   9  10
HETATM   10  C7  UNL     1      -1.228  27.468  26.355  1.00  0.00     0.180 C 
HETATM   11  O2  UNL     1      -0.274  28.396  26.696  1.00  0.00    -0.353 OA
HETATM   12  C6  UNL     1      -0.830  29.645  26.848  1.00  0.00     0.259 C 
HETATM   13  C20 UNL     1      -2.318  29.359  27.072  1.00  0.00     0.198 C 
HETATM   14  C19 UNL     1      -2.490  28.168  26.083  1.00  0.00     0.182 C 
BRANCH  12  15
HETATM   15  N2  UNL     1      -0.730  30.268  25.511  1.00  0.00    -0.336 N 
HETATM   16  C5  UNL     1       0.410  30.263  24.817  1.00  0.00     0.093 A 
HETATM   17  C4  UNL     1       0.493  30.963  23.614  1.00  0.00     0.018 A 
HETATM   18  C3  UNL     1      -0.591  31.654  23.155  1.00  0.00     0.019 A 
HETATM   19  C2  UNL     1      -1.744  31.640  23.894  1.00  0.00     0.044 A 
HETATM   20  C21 UNL     1      -1.805  30.940  25.080  1.00  0.00     0.110 A 
BRANCH  19  21
HETATM   21  C1  UNL     1      -2.907  32.397  23.472  1.00  0.00     0.266 C 
HETATM   22  N1  UNL     1      -4.032  31.728  22.940  1.00  0.00    -0.057 NA
HETATM   23  O1  UNL     1      -2.973  33.670  23.553  1.00  0.00    -0.271 OA
ENDBRANCH  19  21
ENDBRANCH  12  15
BRANCH  13  24
HETATM   24  O14 UNL     1      -2.506  28.812  28.341  1.00  0.00    -0.388 OA
ATOM     25  H14 UNL     1      -1.882  29.190  28.949  1.00  0.00     0.210 HD
ENDBRANCH  13  24
BRANCH  14  26
HETATM   26  O13 UNL     1      -3.649  27.447  26.393  1.00  0.00    -0.390 OA
ATOM     27  H13 UNL     1      -4.365  27.964  26.744  1.00  0.00     0.210 HD
ENDBRANCH  14  26
ENDBRANCH   9  10
ENDBRANCH   8   9
ENDBRANCH   5   8
ENDBRANCH   4   5
ENDBRANCH   1   4
BRANCH   1  28
HETATM   28  O9  UNL     1       3.670  24.533  27.985  1.00  0.00    -0.287 OA
BRANCH  28  29
HETATM   29  C9  UNL     1       3.932  25.513  28.999  1.00  0.00     0.216 C 
BRANCH  29  30
HETATM   30  C10 UNL     1       4.189  24.825  30.271  1.00  0.00     0.180 C 
HETATM   31  O10 UNL     1       2.993  24.819  31.042  1.00  0.00    -0.353 OA
HETATM   32  C11 UNL     1       3.441  24.068  32.149  1.00  0.00     0.262 C 
HETATM   33  C17 UNL     1       3.788  22.783  31.348  1.00  0.00     0.198 C 
HETATM   34  C18 UNL     1       4.625  23.424  30.204  1.00  0.00     0.182 C 
BRANCH  32  35
HETATM   35  N3  UNL     1       2.378  23.891  33.059  1.00  0.00    -0.297 N 
HETATM   36  C12 UNL     1       1.182  23.239  32.865  1.00  0.00     0.188 A 
HETATM   37  N4  UNL     1       0.441  23.280  33.973  1.00  0.00    -0.346 N 
HETATM   38  C13 UNL     1       1.172  23.960  34.905  1.00  0.00     0.119 A 
ATOM     39  H4  UNL     1      -0.489  22.881  34.101  1.00  0.00     0.167 HD
HETATM   40  C14 UNL     1       0.890  24.298  36.197  1.00  0.00     0.148 A 
HETATM   41  C16 UNL     1       2.369  24.333  34.313  1.00  0.00     0.142 A 
HETATM   42  N5  UNL     1      -0.323  23.884  36.816  1.00  0.00    -0.080 NA
HETATM   43  N6  UNL     1       1.776  25.014  36.908  1.00  0.00    -0.339 N 
HETATM   44  C15 UNL     1       2.932  25.396  36.359  1.00  0.00     0.183 A 
ATOM     45  H6  UNL     1       1.565  25.267  37.873  1.00  0.00     0.167 HD
HETATM   46  N7  UNL     1       3.214  25.048  35.066  1.00  0.00    -0.336 N 
ATOM     47  H7  UNL     1       4.102  25.344  34.661  1.00  0.00     0.168 HD
ENDBRANCH  32  35
BRANCH  33  48
HETATM   48  O11 UNL     1       4.440  21.841  32.065  1.00  0.00    -0.388 OA
ATOM     49  H11 UNL     1       4.804  21.136  31.543  1.00  0.00     0.210 HD
ENDBRANCH  33  48
BRANCH  34  50
HETATM   50  O12 UNL     1       5.980  23.327  30.646  1.00  0.00    -0.390 OA
ATOM     51  H12 UNL     1       6.248  22.416  30.644  1.00  0.00     0.210 HD
ENDBRANCH  34  50
ENDBRANCH  29  30
ENDBRANCH  28  29
ENDBRANCH   1  28
TORSDOF 15
ENDMDL
