MODEL 11
REMARK VINA RESULT: -6.682280280      2.548      5.456
REMARK  4 active torsions:
REMARK  status: ('A' for Active; 'I' for Inactive)
REMARK    1  A    between atoms: O1_2  and  C2_3 
REMARK    2  A    between atoms: C9_12  and  O4_13 
REMARK    3  A    between atoms: C10_15  and  O5_16 
REMARK    4  A    between atoms: C11_18  and  C12_19 
ROOT
HETATM    1  C2  UNL     1      -9.218 -32.421  16.571  1.00  0.00     0.300 C 
HETATM    2  O2  UNL     1      -8.744 -32.815  15.343  1.00  0.00    -0.352 OA
HETATM    3  C3  UNL     1      -9.429 -32.377  14.250  1.00  0.00     0.127 C 
HETATM    4  C4  UNL     1     -10.103 -33.592  13.612  1.00  0.00     0.040 C 
HETATM    5  C5  UNL     1     -10.399 -31.265  14.457  1.00  0.00     0.097 C 
HETATM    6  C6  UNL     1      -9.877 -30.347  15.510  1.00  0.00     0.071 A 
HETATM    7  O3  UNL     1      -9.972 -29.038  15.439  1.00  0.00    -0.313 OA
HETATM    8  C7  UNL     1      -9.492 -28.284  16.402  1.00  0.00     0.093 A 
HETATM    9  C8  UNL     1      -9.621 -26.928  16.271  1.00  0.00     0.077 A 
HETATM   10  C9  UNL     1      -9.142 -26.063  17.239  1.00  0.00     0.102 A 
HETATM   11  C10 UNL     1      -8.533 -26.587  18.338  1.00  0.00     0.117 A 
HETATM   12  C11 UNL     1      -8.379 -27.997  18.512  1.00  0.00     0.093 A 
HETATM   13  C13 UNL     1      -8.864 -28.823  17.534  1.00  0.00     0.069 A 
HETATM   14  C14 UNL     1      -8.750 -30.195  17.633  1.00  0.00     0.199 A 
HETATM   15  O8  UNL     1      -8.214 -30.774  18.592  1.00  0.00    -0.287 OA
HETATM   16  C15 UNL     1      -9.278 -30.955  16.582  1.00  0.00     0.077 A 
ENDROOT
BRANCH  12  17
HETATM   17  C12 UNL     1      -7.724 -28.453  19.700  1.00  0.00     0.213 C 
HETATM   18  O6  UNL     1      -8.203 -28.837  20.745  1.00  0.00    -0.644 OA
HETATM   19  O7  UNL     1      -6.303 -28.476  19.692  1.00  0.00    -0.644 OA
ENDBRANCH  12  17
BRANCH  11  20
HETATM   20  O5  UNL     1      -8.048 -25.764  19.314  1.00  0.00    -0.357 OA
ATOM     21  H5  UNL     1      -7.328 -26.048  19.864  1.00  0.00     0.217 HD
ENDBRANCH  11  20
BRANCH  10  22
HETATM   22  O4  UNL     1      -9.301 -24.687  17.055  1.00  0.00    -0.358 OA
ATOM     23  H4  UNL     1      -8.610 -24.198  16.623  1.00  0.00     0.217 HD
ENDBRANCH  10  22
BRANCH   1  24
HETATM   24  O1  UNL     1      -8.437 -32.957  17.579  1.00  0.00    -0.362 OA
HETATM   25  C1  UNL     1      -8.418 -34.339  17.402  1.00  0.00     0.205 C 
ENDBRANCH   1  24
TORSDOF 4
ENDMDL
