MODEL 5
REMARK VINA RESULT: -7.246431711      1.855      2.596
REMARK  4 active torsions:
REMARK  status: ('A' for Active; 'I' for Inactive)
REMARK    1  A    between atoms: O1_2  and  C2_3 
REMARK    2  A    between atoms: C9_12  and  O4_13 
REMARK    3  A    between atoms: C10_15  and  O5_16 
REMARK    4  A    between atoms: C11_18  and  C12_19 
ROOT
HETATM    1  C2  UNL     1      -7.626 -26.560  18.954  1.00  0.00     0.300 C 
HETATM    2  O2  UNL     1      -8.383 -25.835  18.064  1.00  0.00    -0.352 OA
HETATM    3  C3  UNL     1      -8.543 -26.365  16.820  1.00  0.00     0.127 C 
HETATM    4  C4  UNL     1      -7.781 -25.473  15.839  1.00  0.00     0.040 C 
HETATM    5  C5  UNL     1      -8.183 -27.799  16.640  1.00  0.00     0.097 C 
HETATM    6  C6  UNL     1      -8.507 -28.547  17.889  1.00  0.00     0.071 A 
HETATM    7  O3  UNL     1      -9.038 -29.749  17.894  1.00  0.00    -0.313 OA
HETATM    8  C7  UNL     1      -9.299 -30.356  19.030  1.00  0.00     0.093 A 
HETATM    9  C8  UNL     1      -9.852 -31.607  18.970  1.00  0.00     0.077 A 
HETATM   10  C9  UNL     1     -10.158 -32.313  20.120  1.00  0.00     0.102 A 
HETATM   11  C10 UNL     1      -9.899 -31.740  21.326  1.00  0.00     0.117 A 
HETATM   12  C11 UNL     1      -9.323 -30.436  21.431  1.00  0.00     0.093 A 
HETATM   13  C13 UNL     1      -9.033 -29.765  20.274  1.00  0.00     0.069 A 
HETATM   14  C14 UNL     1      -8.477 -28.503  20.297  1.00  0.00     0.199 A 
HETATM   15  O8  UNL     1      -8.201 -27.891  21.342  1.00  0.00    -0.287 OA
HETATM   16  C15 UNL     1      -8.215 -27.899  19.061  1.00  0.00     0.077 A 
ENDROOT
BRANCH  12  17
HETATM   17  C12 UNL     1      -9.088 -29.916  22.744  1.00  0.00     0.213 C 
HETATM   18  O6  UNL     1      -8.041 -29.754  23.333  1.00  0.00    -0.644 OA
HETATM   19  O7  UNL     1     -10.224 -29.521  23.500  1.00  0.00    -0.644 OA
ENDBRANCH  12  17
BRANCH  11  20
HETATM   20  O5  UNL     1     -10.188 -32.408  22.482  1.00  0.00    -0.357 OA
ATOM     21  H5  UNL     1     -10.674 -31.976  23.174  1.00  0.00     0.217 HD
ENDBRANCH  11  20
BRANCH  10  22
HETATM   22  O4  UNL     1     -10.721 -33.587  20.000  1.00  0.00    -0.358 OA
ATOM     23  H4  UNL     1     -11.369 -33.742  19.322  1.00  0.00     0.217 HD
ENDBRANCH  10  22
BRANCH   1  24
HETATM   24  O1  UNL     1      -7.537 -25.890  20.161  1.00  0.00    -0.362 OA
HETATM   25  C1  UNL     1      -7.542 -24.524  19.882  1.00  0.00     0.205 C 
ENDBRANCH   1  24
TORSDOF 4
ENDMDL
