MODEL 2
REMARK VINA RESULT: -7.906794671      1.502      5.760
REMARK  4 active torsions:
REMARK  status: ('A' for Active; 'I' for Inactive)
REMARK    1  A    between atoms: O1_2  and  C2_3 
REMARK    2  A    between atoms: C9_12  and  O4_13 
REMARK    3  A    between atoms: C10_15  and  O5_16 
REMARK    4  A    between atoms: C11_18  and  C12_19 
ROOT
HETATM    1  C2  UNL     1      -9.959 -31.383  19.252  1.00  0.00     0.300 C 
HETATM    2  O2  UNL     1      -9.760 -32.453  18.413  1.00  0.00    -0.352 OA
HETATM    3  C3  UNL     1     -10.504 -32.486  17.273  1.00  0.00     0.127 C 
HETATM    4  C4  UNL     1     -11.487 -33.650  17.400  1.00  0.00     0.040 C 
HETATM    5  C5  UNL     1     -11.200 -31.230  16.878  1.00  0.00     0.097 C 
HETATM    6  C6  UNL     1     -10.358 -30.060  17.264  1.00  0.00     0.071 A 
HETATM    7  O3  UNL     1     -10.209 -28.996  16.508  1.00  0.00    -0.313 OA
HETATM    8  C7  UNL     1      -9.453 -27.997  16.907  1.00  0.00     0.093 A 
HETATM    9  C8  UNL     1      -9.337 -26.917  16.075  1.00  0.00     0.077 A 
HETATM   10  C9  UNL     1      -8.561 -25.824  16.419  1.00  0.00     0.102 A 
HETATM   11  C10 UNL     1      -7.906 -25.840  17.612  1.00  0.00     0.117 A 
HETATM   12  C11 UNL     1      -8.001 -26.949  18.508  1.00  0.00     0.093 A 
HETATM   13  C13 UNL     1      -8.778 -28.013  18.135  1.00  0.00     0.069 A 
HETATM   14  C14 UNL     1      -8.917 -29.119  18.949  1.00  0.00     0.199 A 
HETATM   15  O8  UNL     1      -8.364 -29.234  20.055  1.00  0.00    -0.287 OA
HETATM   16  C15 UNL     1      -9.733 -30.156  18.480  1.00  0.00     0.077 A 
ENDROOT
BRANCH  12  17
HETATM   17  C12 UNL     1      -7.276 -26.874  19.740  1.00  0.00     0.213 C 
HETATM   18  O6  UNL     1      -7.589 -26.354  20.789  1.00  0.00    -0.644 OA
HETATM   19  O7  UNL     1      -5.995 -27.489  19.779  1.00  0.00    -0.644 OA
ENDBRANCH  12  17
BRANCH  11  20
HETATM   20  O5  UNL     1      -7.130 -24.780  17.985  1.00  0.00    -0.357 OA
ATOM     21  H5  UNL     1      -6.360 -24.917  18.523  1.00  0.00     0.217 HD
ENDBRANCH  11  20
BRANCH  10  22
HETATM   22  O4  UNL     1      -8.478 -24.747  15.532  1.00  0.00    -0.358 OA
ATOM     23  H4  UNL     1      -7.894 -24.027  15.738  1.00  0.00     0.217 HD
ENDBRANCH  10  22
BRANCH   1  24
HETATM   24  O1  UNL     1      -9.153 -31.497  20.370  1.00  0.00    -0.362 OA
HETATM   25  C1  UNL     1      -9.876 -32.193  21.337  1.00  0.00     0.205 C 
ENDBRANCH   1  24
TORSDOF 4
ENDMDL
