MODEL 3
REMARK VINA RESULT: -7.701867459      2.741      5.523
REMARK  4 active torsions:
REMARK  status: ('A' for Active; 'I' for Inactive)
REMARK    1  A    between atoms: O1_2  and  C2_3 
REMARK    2  A    between atoms: C9_12  and  O4_13 
REMARK    3  A    between atoms: C10_15  and  O5_16 
REMARK    4  A    between atoms: C11_18  and  C12_19 
ROOT
HETATM    1  C2  UNL     1      -8.657 -31.114  17.123  1.00  0.00     0.300 C 
HETATM    2  O2  UNL     1      -8.408 -31.416  15.805  1.00  0.00    -0.352 OA
HETATM    3  C3  UNL     1      -9.318 -30.978  14.892  1.00  0.00     0.127 C 
HETATM    4  C4  UNL     1     -10.027 -32.207  14.324  1.00  0.00     0.040 C 
HETATM    5  C5  UNL     1     -10.295 -29.949  15.345  1.00  0.00     0.097 C 
HETATM    6  C6  UNL     1      -9.635 -29.045  16.332  1.00  0.00     0.071 A 
HETATM    7  O3  UNL     1      -9.822 -27.745  16.358  1.00  0.00    -0.313 OA
HETATM    8  C7  UNL     1      -9.210 -27.004  17.254  1.00  0.00     0.093 A 
HETATM    9  C8  UNL     1      -9.445 -25.655  17.230  1.00  0.00     0.077 A 
HETATM   10  C9  UNL     1      -8.840 -24.804  18.139  1.00  0.00     0.102 A 
HETATM   11  C10 UNL     1      -7.999 -25.334  19.067  1.00  0.00     0.117 A 
HETATM   12  C11 UNL     1      -7.727 -26.735  19.125  1.00  0.00     0.093 A 
HETATM   13  C13 UNL     1      -8.342 -27.548  18.211  1.00  0.00     0.069 A 
HETATM   14  C14 UNL     1      -8.128 -28.911  18.205  1.00  0.00     0.199 A 
HETATM   15  O8  UNL     1      -7.380 -29.494  19.008  1.00  0.00    -0.287 OA
HETATM   16  C15 UNL     1      -8.803 -29.658  17.232  1.00  0.00     0.077 A 
ENDROOT
BRANCH  12  17
HETATM   17  C12 UNL     1      -6.827 -27.198  20.137  1.00  0.00     0.213 C 
HETATM   18  O6  UNL     1      -5.630 -27.380  20.080  1.00  0.00    -0.644 OA
HETATM   19  O7  UNL     1      -7.380 -27.499  21.411  1.00  0.00    -0.644 OA
ENDBRANCH  12  17
BRANCH  11  20
HETATM   20  O5  UNL     1      -7.384 -24.524  19.979  1.00  0.00    -0.357 OA
ATOM     21  H5  UNL     1      -7.827 -23.751  20.307  1.00  0.00     0.217 HD
ENDBRANCH  11  20
BRANCH  10  22
HETATM   22  O4  UNL     1      -9.117 -23.436  18.069  1.00  0.00    -0.358 OA
ATOM     23  H4  UNL     1      -9.008 -22.905  18.851  1.00  0.00     0.217 HD
ENDBRANCH  10  22
BRANCH   1  24
HETATM   24  O1  UNL     1      -7.663 -31.639  17.929  1.00  0.00    -0.362 OA
HETATM   25  C1  UNL     1      -7.633 -33.015  17.712  1.00  0.00     0.205 C 
ENDBRANCH   1  24
TORSDOF 4
ENDMDL
