MODEL 6
REMARK VINA RESULT: -7.118871793      2.461      3.018
REMARK  4 active torsions:
REMARK  status: ('A' for Active; 'I' for Inactive)
REMARK    1  A    between atoms: O1_2  and  C2_3 
REMARK    2  A    between atoms: C9_12  and  O4_13 
REMARK    3  A    between atoms: C10_15  and  O5_16 
REMARK    4  A    between atoms: C11_18  and  C12_19 
ROOT
HETATM    1  C2  UNL     1      -6.947 -27.232  19.306  1.00  0.00     0.300 C 
HETATM    2  O2  UNL     1      -7.719 -26.203  19.791  1.00  0.00    -0.352 OA
HETATM    3  C3  UNL     1      -8.128 -25.266  18.892  1.00  0.00     0.127 C 
HETATM    4  C4  UNL     1      -7.403 -23.962  19.225  1.00  0.00     0.040 C 
HETATM    5  C5  UNL     1      -7.997 -25.605  17.448  1.00  0.00     0.097 C 
HETATM    6  C6  UNL     1      -8.235 -27.067  17.263  1.00  0.00     0.071 A 
HETATM    7  O3  UNL     1      -8.918 -27.565  16.258  1.00  0.00    -0.313 OA
HETATM    8  C7  UNL     1      -9.092 -28.864  16.152  1.00  0.00     0.093 A 
HETATM    9  C8  UNL     1      -9.813 -29.323  15.083  1.00  0.00     0.077 A 
HETATM   10  C9  UNL     1     -10.043 -30.675  14.898  1.00  0.00     0.102 A 
HETATM   11  C10 UNL     1      -9.536 -31.552  15.805  1.00  0.00     0.117 A 
HETATM   12  C11 UNL     1      -8.779 -31.113  16.935  1.00  0.00     0.093 A 
HETATM   13  C13 UNL     1      -8.571 -29.769  17.087  1.00  0.00     0.069 A 
HETATM   14  C14 UNL     1      -7.850 -29.271  18.153  1.00  0.00     0.199 A 
HETATM   15  O8  UNL     1      -7.345 -29.984  19.036  1.00  0.00    -0.287 OA
HETATM   16  C15 UNL     1      -7.691 -27.881  18.222  1.00  0.00     0.077 A 
ENDROOT
BRANCH  12  17
HETATM   17  C12 UNL     1      -8.287 -32.111  17.835  1.00  0.00     0.213 C 
HETATM   18  O6  UNL     1      -8.781 -32.539  18.856  1.00  0.00    -0.644 OA
HETATM   19  O7  UNL     1      -7.039 -32.713  17.521  1.00  0.00    -0.644 OA
ENDBRANCH  12  17
BRANCH  11  20
HETATM   20  O5  UNL     1      -9.743 -32.894  15.655  1.00  0.00    -0.357 OA
ATOM     21  H5  UNL     1      -9.225 -33.516  16.152  1.00  0.00     0.217 HD
ENDBRANCH  11  20
BRANCH  10  22
HETATM   22  O4  UNL     1     -10.785 -31.088  13.787  1.00  0.00    -0.358 OA
ATOM     23  H4  UNL     1     -11.420 -31.787  13.894  1.00  0.00     0.217 HD
ENDBRANCH  10  22
BRANCH   1  24
HETATM   24  O1  UNL     1      -6.593 -28.088  20.333  1.00  0.00    -0.362 OA
HETATM   25  C1  UNL     1      -7.156 -27.589  21.506  1.00  0.00     0.205 C 
ENDBRANCH   1  24
TORSDOF 4
ENDMDL
