MODEL 1
REMARK VINA RESULT: -7.985216116      0.000      0.000
REMARK  4 active torsions:
REMARK  status: ('A' for Active; 'I' for Inactive)
REMARK    1  A    between atoms: O1_2  and  C2_3 
REMARK    2  A    between atoms: C9_12  and  O4_13 
REMARK    3  A    between atoms: C10_15  and  O5_16 
REMARK    4  A    between atoms: C11_18  and  C12_19 
ROOT
HETATM    1  C2  UNL     1      -7.737 -27.655  17.684  1.00  0.00     0.300 C 
HETATM    2  O2  UNL     1      -8.148 -26.346  17.770  1.00  0.00    -0.352 OA
HETATM    3  C3  UNL     1      -9.029 -25.916  16.825  1.00  0.00     0.127 C 
HETATM    4  C4  UNL     1      -8.297 -24.906  15.941  1.00  0.00     0.040 C 
HETATM    5  C5  UNL     1      -9.713 -26.956  16.009  1.00  0.00     0.097 C 
HETATM    6  C6  UNL     1      -9.953 -28.164  16.852  1.00  0.00     0.071 A 
HETATM    7  O3  UNL     1     -11.059 -28.870  16.804  1.00  0.00    -0.313 OA
HETATM    8  C7  UNL     1     -11.208 -29.925  17.573  1.00  0.00     0.093 A 
HETATM    9  C8  UNL     1     -12.383 -30.620  17.478  1.00  0.00     0.077 A 
HETATM   10  C9  UNL     1     -12.620 -31.742  18.253  1.00  0.00     0.102 A 
HETATM   11  C10 UNL     1     -11.656 -32.149  19.122  1.00  0.00     0.117 A 
HETATM   12  C11 UNL     1     -10.416 -31.450  19.252  1.00  0.00     0.093 A 
HETATM   13  C13 UNL     1     -10.216 -30.345  18.470  1.00  0.00     0.069 A 
HETATM   14  C14 UNL     1      -9.043 -29.620  18.541  1.00  0.00     0.199 A 
HETATM   15  O8  UNL     1      -8.102 -29.905  19.299  1.00  0.00    -0.287 OA
HETATM   16  C15 UNL     1      -8.932 -28.505  17.700  1.00  0.00     0.077 A 
ENDROOT
BRANCH  12  17
HETATM   17  C12 UNL     1      -9.463 -31.954  20.194  1.00  0.00     0.213 C 
HETATM   18  O6  UNL     1      -8.573 -32.761  20.034  1.00  0.00    -0.644 OA
HETATM   19  O7  UNL     1      -9.539 -31.459  21.524  1.00  0.00    -0.644 OA
ENDBRANCH  12  17
BRANCH  11  20
HETATM   20  O5  UNL     1     -11.855 -33.251  19.904  1.00  0.00    -0.357 OA
ATOM     21  H5  UNL     1     -12.144 -33.154  20.803  1.00  0.00     0.217 HD
ENDBRANCH  11  20
BRANCH  10  22
HETATM   22  O4  UNL     1     -13.838 -32.414  18.114  1.00  0.00    -0.358 OA
ATOM     23  H4  UNL     1     -13.832 -33.360  18.021  1.00  0.00     0.217 HD
ENDBRANCH  10  22
BRANCH   1  24
HETATM   24  O1  UNL     1      -6.834 -27.939  18.692  1.00  0.00    -0.362 OA
HETATM   25  C1  UNL     1      -6.837 -26.859  19.572  1.00  0.00     0.205 C 
ENDBRANCH   1  24
TORSDOF 4
ENDMDL
