MODEL 6
REMARK VINA RESULT: -5.678448603      2.795      6.099
REMARK  15 active torsions:
REMARK  status: ('A' for Active; 'I' for Inactive)
REMARK    1  A    between atoms: C2_2  and  C3_3 
REMARK    2  A    between atoms: C3_3  and  C4_4 
REMARK    3  A    between atoms: C4_4  and  C5_5 
REMARK    4  A    between atoms: C5_5  and  C6_6 
REMARK    5  A    between atoms: C6_6  and  C7_7 
REMARK    6  A    between atoms: C7_7  and  C8_8 
REMARK    7  A    between atoms: C8_8  and  C9_9 
REMARK    8  A    between atoms: C10_10  and  C11_11 
REMARK    9  A    between atoms: C11_11  and  C12_12 
REMARK   10  A    between atoms: C12_12  and  C13_13 
REMARK   11  A    between atoms: C13_13  and  C14_14 
REMARK   12  A    between atoms: C14_14  and  C15_15 
REMARK   13  A    between atoms: C15_15  and  C16_16 
REMARK   14  A    between atoms: C16_16  and  C17_17 
REMARK   15  A    between atoms: C17_17  and  C18_18 
ROOT
HETATM    1  C9  UNL     1      20.454  35.942  61.769  1.00  0.00    -0.031 C 
HETATM    2  C10 UNL     1      19.182  36.119  61.556  1.00  0.00    -0.031 C 
ENDROOT
BRANCH   2   3
HETATM    3  C11 UNL     1      18.533  36.082  60.257  1.00  0.00     0.027 C 
BRANCH   3   4
HETATM    4  C12 UNL     1      17.972  34.654  60.091  1.00  0.00     0.007 C 
BRANCH   4   5
HETATM    5  C13 UNL     1      18.567  33.972  58.930  1.00  0.00     0.027 C 
BRANCH   5   6
HETATM    6  C14 UNL     1      17.630  33.571  57.879  1.00  0.00    -0.031 C 
BRANCH   6   7
HETATM    7  C15 UNL     1      17.125  34.477  56.851  1.00  0.00    -0.030 C 
BRANCH   7   8
HETATM    8  C16 UNL     1      17.925  35.590  56.320  1.00  0.00     0.037 C 
BRANCH   8   9
HETATM    9  C17 UNL     1      17.371  36.902  56.911  1.00  0.00     0.117 C 
BRANCH   9  10
HETATM   10  C18 UNL     1      17.598  38.074  56.066  1.00  0.00     0.172 C 
HETATM   11  O1  UNL     1      18.615  38.209  55.364  1.00  0.00    -0.648 OA
HETATM   12  O2  UNL     1      16.630  39.089  56.044  1.00  0.00    -0.648 OA
ENDBRANCH   9  10
ENDBRANCH   8   9
ENDBRANCH   7   8
ENDBRANCH   6   7
ENDBRANCH   5   6
ENDBRANCH   4   5
ENDBRANCH   3   4
ENDBRANCH   2   3
BRANCH   1  13
HETATM   13  C8  UNL     1      21.424  35.672  60.689  1.00  0.00     0.027 C 
BRANCH  13  14
HETATM   14  C7  UNL     1      21.872  34.217  60.861  1.00  0.00     0.004 C 
BRANCH  14  15
HETATM   15  C6  UNL     1      22.046  33.610  59.509  1.00  0.00     0.000 C 
BRANCH  15  16
HETATM   16  C5  UNL     1      23.376  33.935  58.870  1.00  0.00     0.000 C 
BRANCH  16  17
HETATM   17  C4  UNL     1      23.247  34.306  57.427  1.00  0.00     0.000 C 
BRANCH  17  18
HETATM   18  C3  UNL     1      21.809  34.640  57.060  1.00  0.00    -0.000 C 
BRANCH  18  19
HETATM   19  C2  UNL     1      21.506  34.192  55.670  1.00  0.00    -0.005 C 
HETATM   20  C1  UNL     1      22.793  33.612  55.076  1.00  0.00     0.005 C 
ENDBRANCH  18  19
ENDBRANCH  17  18
ENDBRANCH  16  17
ENDBRANCH  15  16
ENDBRANCH  14  15
ENDBRANCH  13  14
ENDBRANCH   1  13
TORSDOF 15
ENDMDL
