MODEL 4
REMARK VINA RESULT: -5.735119309      1.551      3.738
REMARK  16 active torsions:
REMARK  status: ('A' for Active; 'I' for Inactive)
REMARK    1  A    between atoms: C2_2  and  C3_3 
REMARK    2  A    between atoms: C3_3  and  C4_4 
REMARK    3  A    between atoms: C4_4  and  C5_5 
REMARK    4  A    between atoms: C5_5  and  C6_6 
REMARK    5  A    between atoms: C6_6  and  C7_7 
REMARK    6  A    between atoms: C7_7  and  C8_8 
REMARK    7  A    between atoms: C8_8  and  C9_9 
REMARK    8  A    between atoms: C9_9  and  C10_10 
REMARK    9  A    between atoms: C10_10  and  C11_11 
REMARK   10  A    between atoms: C11_11  and  C12_12 
REMARK   11  A    between atoms: C12_12  and  C13_13 
REMARK   12  A    between atoms: C13_13  and  C14_14 
REMARK   13  A    between atoms: C14_14  and  C15_15 
REMARK   14  A    between atoms: C15_15  and  C16_16 
REMARK   15  A    between atoms: C16_16  and  C17_17 
REMARK   16  A    between atoms: C17_17  and  C18_18 
ROOT
HETATM    1  C10 UNL     1      22.242  33.957  60.120  1.00  0.00     0.000 C 
ENDROOT
BRANCH   1   2
HETATM    2  C9  UNL     1      21.231  34.830  59.406  1.00  0.00     0.000 C 
BRANCH   2   3
HETATM    3  C8  UNL     1      20.044  34.038  58.947  1.00  0.00     0.000 C 
BRANCH   3   4
HETATM    4  C7  UNL     1      18.882  34.110  59.904  1.00  0.00     0.000 C 
BRANCH   4   5
HETATM    5  C6  UNL     1      18.247  35.458  59.984  1.00  0.00     0.000 C 
BRANCH   5   6
HETATM    6  C5  UNL     1      17.596  35.749  58.652  1.00  0.00     0.000 C 
BRANCH   6   7
HETATM    7  C4  UNL     1      16.132  35.404  58.658  1.00  0.00     0.000 C 
BRANCH   7   8
HETATM    8  C3  UNL     1      15.690  34.649  57.449  1.00  0.00    -0.000 C 
BRANCH   8   9
HETATM    9  C2  UNL     1      16.693  33.629  56.982  1.00  0.00    -0.005 C 
HETATM   10  C1  UNL     1      16.453  32.272  57.606  1.00  0.00     0.005 C 
ENDBRANCH   8   9
ENDBRANCH   7   8
ENDBRANCH   6   7
ENDBRANCH   5   6
ENDBRANCH   4   5
ENDBRANCH   3   4
ENDBRANCH   2   3
ENDBRANCH   1   2
BRANCH   1  11
HETATM   11  C11 UNL     1      23.473  33.890  59.288  1.00  0.00     0.000 C 
BRANCH  11  12
HETATM   12  C12 UNL     1      23.331  33.220  57.970  1.00  0.00     0.000 C 
BRANCH  12  13
HETATM   13  C13 UNL     1      23.667  34.091  56.785  1.00  0.00     0.000 C 
BRANCH  13  14
HETATM   14  C14 UNL     1      22.478  33.992  55.861  1.00  0.00     0.000 C 
BRANCH  14  15
HETATM   15  C15 UNL     1      22.726  33.314  54.565  1.00  0.00     0.001 C 
BRANCH  15  16
HETATM   16  C16 UNL     1      21.702  33.701  53.555  1.00  0.00     0.010 C 
BRANCH  16  17
HETATM   17  C17 UNL     1      20.646  32.630  53.353  1.00  0.00     0.113 C 
BRANCH  17  18
HETATM   18  C18 UNL     1      19.379  33.155  52.838  1.00  0.00     0.172 C 
HETATM   19  O1  UNL     1      18.623  32.416  52.149  1.00  0.00    -0.648 OA
HETATM   20  O2  UNL     1      18.978  34.468  53.094  1.00  0.00    -0.648 OA
ENDBRANCH  17  18
ENDBRANCH  16  17
ENDBRANCH  15  16
ENDBRANCH  14  15
ENDBRANCH  13  14
ENDBRANCH  12  13
ENDBRANCH  11  12
ENDBRANCH   1  11
TORSDOF 16
ENDMDL
