MODEL 2
REMARK VINA RESULT: -5.788499820      2.947      4.670
REMARK  16 active torsions:
REMARK  status: ('A' for Active; 'I' for Inactive)
REMARK    1  A    between atoms: C2_2  and  C3_3 
REMARK    2  A    between atoms: C3_3  and  C4_4 
REMARK    3  A    between atoms: C4_4  and  C5_5 
REMARK    4  A    between atoms: C5_5  and  C6_6 
REMARK    5  A    between atoms: C6_6  and  C7_7 
REMARK    6  A    between atoms: C7_7  and  C8_8 
REMARK    7  A    between atoms: C8_8  and  C9_9 
REMARK    8  A    between atoms: C9_9  and  C10_10 
REMARK    9  A    between atoms: C10_10  and  C11_11 
REMARK   10  A    between atoms: C11_11  and  C12_12 
REMARK   11  A    between atoms: C12_12  and  C13_13 
REMARK   12  A    between atoms: C13_13  and  C14_14 
REMARK   13  A    between atoms: C14_14  and  C15_15 
REMARK   14  A    between atoms: C15_15  and  C16_16 
REMARK   15  A    between atoms: C16_16  and  C17_17 
REMARK   16  A    between atoms: C17_17  and  C18_18 
ROOT
HETATM    1  C10 UNL     1      20.466  35.142  56.827  1.00  0.00     0.000 C 
ENDROOT
BRANCH   1   2
HETATM    2  C9  UNL     1      21.285  34.214  57.702  1.00  0.00     0.000 C 
BRANCH   2   3
HETATM    3  C8  UNL     1      22.305  34.967  58.501  1.00  0.00     0.000 C 
BRANCH   3   4
HETATM    4  C7  UNL     1      22.689  34.264  59.777  1.00  0.00     0.000 C 
BRANCH   4   5
HETATM    5  C6  UNL     1      21.558  34.087  60.735  1.00  0.00     0.000 C 
BRANCH   5   6
HETATM    6  C5  UNL     1      21.053  35.458  61.120  1.00  0.00     0.000 C 
BRANCH   6   7
HETATM    7  C4  UNL     1      19.560  35.564  60.976  1.00  0.00     0.000 C 
BRANCH   7   8
HETATM    8  C3  UNL     1      18.898  34.272  60.630  1.00  0.00    -0.000 C 
BRANCH   8   9
HETATM    9  C2  UNL     1      17.906  34.391  59.506  1.00  0.00    -0.005 C 
HETATM   10  C1  UNL     1      17.633  35.835  59.142  1.00  0.00     0.005 C 
ENDBRANCH   8   9
ENDBRANCH   7   8
ENDBRANCH   6   7
ENDBRANCH   5   6
ENDBRANCH   4   5
ENDBRANCH   3   4
ENDBRANCH   2   3
ENDBRANCH   1   2
BRANCH   1  11
HETATM   11  C11 UNL     1      19.568  34.313  55.978  1.00  0.00     0.000 C 
BRANCH  11  12
HETATM   12  C12 UNL     1      19.828  34.362  54.517  1.00  0.00     0.000 C 
BRANCH  12  13
HETATM   13  C13 UNL     1      20.616  33.193  53.981  1.00  0.00     0.000 C 
BRANCH  13  14
HETATM   14  C14 UNL     1      21.987  33.740  53.668  1.00  0.00     0.000 C 
BRANCH  14  15
HETATM   15  C15 UNL     1      23.051  33.405  54.645  1.00  0.00     0.001 C 
BRANCH  15  16
HETATM   16  C16 UNL     1      23.943  34.573  54.887  1.00  0.00     0.010 C 
BRANCH  16  17
HETATM   17  C17 UNL     1      23.275  35.897  54.561  1.00  0.00     0.113 C 
BRANCH  17  18
HETATM   18  C18 UNL     1      23.863  37.034  55.272  1.00  0.00     0.172 C 
HETATM   19  O1  UNL     1      23.230  37.586  56.213  1.00  0.00    -0.648 OA
HETATM   20  O2  UNL     1      25.124  37.530  54.933  1.00  0.00    -0.648 OA
ENDBRANCH  17  18
ENDBRANCH  16  17
ENDBRANCH  15  16
ENDBRANCH  14  15
ENDBRANCH  13  14
ENDBRANCH  12  13
ENDBRANCH  11  12
ENDBRANCH   1  11
TORSDOF 16
ENDMDL
