MODEL 2
REMARK VINA RESULT: -5.563336405      1.696      2.944
REMARK  4 active torsions:
REMARK  status: ('A' for Active; 'I' for Inactive)
REMARK    1  A    between atoms: C5_8  and  C6_9 
REMARK    2  A    between atoms: C6_9  and  O2_10 
REMARK    3  A    between atoms: C7_12  and  O3_13 
REMARK    4  A    between atoms: C8_15  and  O4_16 
ROOT
HETATM    1  C1  UNL     1      -5.107  69.740  14.305  1.00  0.00     0.076 C 
HETATM    2  C2  UNL     1      -5.199  69.155  12.924  1.00  0.00     0.041 C 
HETATM    3  N1  UNL     1      -6.053  68.414  12.426  1.00  0.00    -0.378 N 
ATOM      4  H1  UNL     1      -6.840  68.128  13.009  1.00  0.00     0.160 HD
HETATM    5  C3  UNL     1      -6.003  67.957  11.140  1.00  0.00     0.152 C 
HETATM    6  C4  UNL     1      -4.903  68.550  10.336  1.00  0.00     0.214 C 
HETATM    7  O1  UNL     1      -4.101  67.675   9.665  1.00  0.00    -0.363 OA
HETATM    8  C5  UNL     1      -4.883  66.826   8.900  1.00  0.00     0.178 C 
HETATM    9  C7  UNL     1      -5.824  65.984   9.742  1.00  0.00     0.180 C 
HETATM   10  C8  UNL     1      -5.713  66.443  11.184  1.00  0.00     0.175 C 
HETATM   11  S1  UNL     1      -3.988  69.449  11.642  1.00  0.00    -0.083 SA
ENDROOT
BRANCH   8  12
HETATM   12  C6  UNL     1      -5.622  67.630   7.855  1.00  0.00     0.198 C 
BRANCH  12  13
HETATM   13  O2  UNL     1      -6.967  67.201   7.758  1.00  0.00    -0.398 OA
ATOM     14  H2  UNL     1      -7.264  67.235   6.857  1.00  0.00     0.209 HD
ENDBRANCH  12  13
ENDBRANCH   8  12
BRANCH   9  15
HETATM   15  O3  UNL     1      -5.592  64.634   9.603  1.00  0.00    -0.390 OA
ATOM     16  H3  UNL     1      -5.792  64.146  10.393  1.00  0.00     0.210 HD
ENDBRANCH   9  15
BRANCH  10  17
HETATM   17  O4  UNL     1      -6.567  65.781  12.024  1.00  0.00    -0.391 OA
ATOM     18  H4  UNL     1      -7.446  65.726  11.668  1.00  0.00     0.210 HD
ENDBRANCH  10  17
TORSDOF 4
ENDMDL
