MODEL 6
REMARK VINA RESULT: -5.002410301      1.800      2.099
REMARK  4 active torsions:
REMARK  status: ('A' for Active; 'I' for Inactive)
REMARK    1  A    between atoms: C5_8  and  C6_9 
REMARK    2  A    between atoms: C6_9  and  O2_10 
REMARK    3  A    between atoms: C7_12  and  O3_13 
REMARK    4  A    between atoms: C8_15  and  O4_16 
ROOT
HETATM    1  C1  UNL     1      -6.001  68.681  15.231  1.00  0.00     0.076 C 
HETATM    2  C2  UNL     1      -5.716  68.087  13.880  1.00  0.00     0.041 C 
HETATM    3  N1  UNL     1      -4.838  68.363  13.056  1.00  0.00    -0.378 N 
ATOM      4  H1  UNL     1      -4.178  69.106  13.287  1.00  0.00     0.160 HD
HETATM    5  C3  UNL     1      -4.701  67.729  11.853  1.00  0.00     0.152 C 
HETATM    6  C4  UNL     1      -5.613  66.569  11.681  1.00  0.00     0.214 C 
HETATM    7  O1  UNL     1      -6.345  66.537  10.531  1.00  0.00    -0.363 OA
HETATM    8  C5  UNL     1      -5.500  66.679   9.443  1.00  0.00     0.178 C 
HETATM    9  C7  UNL     1      -4.766  68.008   9.446  1.00  0.00     0.180 C 
HETATM   10  C8  UNL     1      -5.088  68.727  10.743  1.00  0.00     0.175 C 
HETATM   11  S1  UNL     1      -6.676  66.762  13.159  1.00  0.00    -0.083 SA
ENDROOT
BRANCH   8  12
HETATM   12  C6  UNL     1      -4.549  65.506   9.388  1.00  0.00     0.198 C 
BRANCH  12  13
HETATM   13  O2  UNL     1      -5.235  64.328   9.007  1.00  0.00    -0.398 OA
ATOM     14  H2  UNL     1      -4.656  63.577   9.051  1.00  0.00     0.209 HD
ENDBRANCH  12  13
ENDBRANCH   8  12
BRANCH   9  15
HETATM   15  O3  UNL     1      -5.055  68.773   8.337  1.00  0.00    -0.390 OA
ATOM     16  H3  UNL     1      -4.306  68.879   7.763  1.00  0.00     0.210 HD
ENDBRANCH   9  15
BRANCH  10  17
HETATM   17  O4  UNL     1      -4.427  69.920  10.872  1.00  0.00    -0.391 OA
ATOM     18  H4  UNL     1      -4.156  70.081  11.767  1.00  0.00     0.210 HD
ENDBRANCH  10  17
TORSDOF 4
ENDMDL
