MODEL 3
REMARK VINA RESULT: -5.526193515      2.389      4.405
REMARK  4 active torsions:
REMARK  status: ('A' for Active; 'I' for Inactive)
REMARK    1  A    between atoms: C5_8  and  C6_9 
REMARK    2  A    between atoms: C6_9  and  O2_10 
REMARK    3  A    between atoms: C7_12  and  O3_13 
REMARK    4  A    between atoms: C8_15  and  O4_16 
ROOT
HETATM    1  C1  UNL     1      -7.322  63.278   7.359  1.00  0.00     0.076 C 
HETATM    2  C2  UNL     1      -6.811  64.345   8.286  1.00  0.00     0.041 C 
HETATM    3  N1  UNL     1      -7.209  65.500   8.469  1.00  0.00    -0.378 N 
ATOM      4  H1  UNL     1      -8.010  65.824   7.926  1.00  0.00     0.160 HD
HETATM    5  C3  UNL     1      -6.638  66.367   9.357  1.00  0.00     0.152 C 
HETATM    6  C4  UNL     1      -5.580  65.750  10.199  1.00  0.00     0.214 C 
HETATM    7  O1  UNL     1      -4.387  66.408  10.256  1.00  0.00    -0.363 OA
HETATM    8  C5  UNL     1      -4.607  67.729  10.610  1.00  0.00     0.178 C 
HETATM    9  C7  UNL     1      -5.456  68.471   9.594  1.00  0.00     0.180 C 
HETATM   10  C8  UNL     1      -5.930  67.475   8.551  1.00  0.00     0.175 C 
HETATM   11  S1  UNL     1      -5.419  64.119   9.384  1.00  0.00    -0.083 SA
ENDROOT
BRANCH   8  12
HETATM   12  C6  UNL     1      -5.203  67.785  11.997  1.00  0.00     0.198 C 
BRANCH  12  13
HETATM   13  O2  UNL     1      -6.379  68.571  12.001  1.00  0.00    -0.398 OA
ATOM     14  H2  UNL     1      -6.786  68.559  12.860  1.00  0.00     0.209 HD
ENDBRANCH  12  13
ENDBRANCH   8  12
BRANCH   9  15
HETATM   15  O3  UNL     1      -4.795  69.541   9.034  1.00  0.00    -0.390 OA
ATOM     16  H3  UNL     1      -3.932  69.309   8.714  1.00  0.00     0.210 HD
ENDBRANCH   9  15
BRANCH  10  17
HETATM   17  O4  UNL     1      -6.756  68.034   7.613  1.00  0.00    -0.391 OA
ATOM     18  H4  UNL     1      -6.595  68.964   7.506  1.00  0.00     0.210 HD
ENDBRANCH  10  17
TORSDOF 4
ENDMDL
