MODEL 4
REMARK VINA RESULT: -5.284489742      2.036      3.571
REMARK  4 active torsions:
REMARK  status: ('A' for Active; 'I' for Inactive)
REMARK    1  A    between atoms: C5_8  and  C6_9 
REMARK    2  A    between atoms: C6_9  and  O2_10 
REMARK    3  A    between atoms: C7_12  and  O3_13 
REMARK    4  A    between atoms: C8_15  and  O4_16 
ROOT
HETATM    1  C1  UNL     1      -5.248  70.049  15.324  1.00  0.00     0.076 C 
HETATM    2  C2  UNL     1      -5.214  69.497  13.926  1.00  0.00     0.041 C 
HETATM    3  N1  UNL     1      -6.054  68.833  13.310  1.00  0.00    -0.378 N 
ATOM      4  H1  UNL     1      -6.925  68.598  13.787  1.00  0.00     0.160 HD
HETATM    5  C3  UNL     1      -5.883  68.396  12.027  1.00  0.00     0.152 C 
HETATM    6  C4  UNL     1      -4.653  68.918  11.376  1.00  0.00     0.214 C 
HETATM    7  O1  UNL     1      -3.842  67.996  10.783  1.00  0.00    -0.363 OA
HETATM    8  C5  UNL     1      -4.587  67.224   9.907  1.00  0.00     0.178 C 
HETATM    9  C7  UNL     1      -5.682  66.441  10.608  1.00  0.00     0.180 C 
HETATM   10  C8  UNL     1      -5.712  66.864  12.065  1.00  0.00     0.175 C 
HETATM   11  S1  UNL     1      -3.839  69.721  12.806  1.00  0.00    -0.083 SA
ENDROOT
BRANCH   8  12
HETATM   12  C6  UNL     1      -5.132  68.100   8.804  1.00  0.00     0.198 C 
BRANCH  12  13
HETATM   13  O2  UNL     1      -4.109  68.442   7.888  1.00  0.00    -0.398 OA
ATOM     14  H2  UNL     1      -3.253  68.308   8.279  1.00  0.00     0.209 HD
ENDBRANCH  12  13
ENDBRANCH   8  12
BRANCH   9  15
HETATM   15  O3  UNL     1      -5.534  65.079  10.461  1.00  0.00    -0.390 OA
ATOM     16  H3  UNL     1      -4.712  64.845  10.047  1.00  0.00     0.210 HD
ENDBRANCH   9  15
BRANCH  10  17
HETATM   17  O4  UNL     1      -6.709  66.254  12.779  1.00  0.00    -0.391 OA
ATOM     18  H4  UNL     1      -6.685  66.491  13.698  1.00  0.00     0.210 HD
ENDBRANCH  10  17
TORSDOF 4
ENDMDL
