MODEL 8
REMARK VINA RESULT: -8.884312416      2.723      6.103
REMARK  7 active torsions:
REMARK  status: ('A' for Active; 'I' for Inactive)
REMARK    1  A    between atoms: C5_6  and  S1_7 
REMARK    2  A    between atoms: S1_7  and  N2_10 
REMARK    3  A    between atoms: N2_10  and  C6_12 
REMARK    4  A    between atoms: C10_16  and  C11_17 
REMARK    5  A    between atoms: C11_17  and  C12_18 
REMARK    6  A    between atoms: C11_17  and  C23_33 
REMARK    7  A    between atoms: C13_19  and  O3_20 
ROOT
HETATM    1  N1  UNL     1      20.712  22.124  10.098  1.00  0.00    -0.191 NA
HETATM    2  C1  UNL     1      20.293  21.360   9.326  1.00  0.00     0.099 C 
HETATM    3  C2  UNL     1      19.769  20.419   8.362  1.00  0.00     0.044 A 
HETATM    4  C3  UNL     1      19.466  19.141   8.763  1.00  0.00     0.024 A 
HETATM    5  C4  UNL     1      18.963  18.246   7.825  1.00  0.00     0.027 A 
HETATM    6  C5  UNL     1      18.760  18.594   6.519  1.00  0.00     0.080 A 
HETATM    7  C27 UNL     1      19.067  19.870   6.131  1.00  0.00     0.027 A 
HETATM    8  C28 UNL     1      19.571  20.796   7.036  1.00  0.00     0.024 A 
ENDROOT
BRANCH   6   9
HETATM    9  S1  UNL     1      18.129  17.449   5.366  1.00  0.00     0.263 S 
HETATM   10  O1  UNL     1      18.402  16.038   5.845  1.00  0.00    -0.200 OA
HETATM   11  O2  UNL     1      18.812  17.603   4.028  1.00  0.00    -0.200 OA
BRANCH   9  12
HETATM   12  N2  UNL     1      16.441  17.611   5.136  1.00  0.00    -0.281 N 
ATOM     13  H2  UNL     1      15.836  16.825   5.374  1.00  0.00     0.179 HD
BRANCH  12  14
HETATM   14  C6  UNL     1      15.844  18.807   4.623  1.00  0.00     0.043 A 
HETATM   15  C7  UNL     1      15.613  18.935   3.276  1.00  0.00     0.030 A 
HETATM   16  C8  UNL     1      15.034  20.111   2.842  1.00  0.00     0.003 A 
HETATM   17  C9  UNL     1      14.693  21.138   3.729  1.00  0.00     0.008 A 
HETATM   18  C10 UNL     1      14.924  21.013   5.077  1.00  0.00    -0.047 A 
HETATM   19  C26 UNL     1      15.503  19.830   5.494  1.00  0.00     0.038 A 
BRANCH  18  20
HETATM   20  C11 UNL     1      14.572  22.053   6.085  1.00  0.00     0.065 C 
BRANCH  20  21
HETATM   21  C12 UNL     1      13.285  22.717   5.783  1.00  0.00     0.060 A 
HETATM   22  C13 UNL     1      13.233  23.985   5.184  1.00  0.00     0.087 A 
HETATM   23  C14 UNL     1      12.009  24.577   4.931  1.00  0.00     0.006 A 
HETATM   24  C15 UNL     1      10.888  23.861   5.293  1.00  0.00     0.066 A 
HETATM   25  C22 UNL     1      12.361  25.866   4.316  1.00  0.00     0.044 C 
HETATM   26  O4  UNL     1      10.976  22.683   5.848  1.00  0.00    -0.279 OA
HETATM   27  C17 UNL     1       9.434  24.122   5.201  1.00  0.00     0.066 C 
HETATM   28  C16 UNL     1      12.106  22.087   6.105  1.00  0.00     0.297 A 
HETATM   29  O5  UNL     1      12.110  20.929   6.652  1.00  0.00    -0.259 OA
HETATM   30  C18 UNL     1       9.044  25.550   5.380  1.00  0.00     0.006 C 
HETATM   31  C19 UNL     1       8.801  26.199   4.035  1.00  0.00     0.000 C 
HETATM   32  C20 UNL     1      10.084  25.963   3.229  1.00  0.00     0.000 C 
HETATM   33  C21 UNL     1      11.165  26.712   3.934  1.00  0.00     0.005 C 
BRANCH  22  34
HETATM   34  O3  UNL     1      14.414  24.610   4.861  1.00  0.00    -0.359 OA
ATOM     35  H3  UNL     1      14.451  25.132   4.068  1.00  0.00     0.217 HD
ENDBRANCH  22  34
ENDBRANCH  20  21
BRANCH  20  36
HETATM   36  C23 UNL     1      14.725  21.558   7.477  1.00  0.00    -0.001 A 
HETATM   37  C24 UNL     1      15.957  21.830   8.233  1.00  0.00     0.006 A 
HETATM   38  C25 UNL     1      14.667  22.516   8.628  1.00  0.00     0.006 A 
ENDBRANCH  20  36
ENDBRANCH  18  20
ENDBRANCH  12  14
ENDBRANCH   9  12
ENDBRANCH   6   9
TORSDOF 7
ENDMDL
