MODEL 2
REMARK VINA RESULT: -9.327400487      6.602     10.296
REMARK  7 active torsions:
REMARK  status: ('A' for Active; 'I' for Inactive)
REMARK    1  A    between atoms: C5_6  and  S1_7 
REMARK    2  A    between atoms: S1_7  and  N2_10 
REMARK    3  A    between atoms: N2_10  and  C6_12 
REMARK    4  A    between atoms: C10_16  and  C11_17 
REMARK    5  A    between atoms: C11_17  and  C12_18 
REMARK    6  A    between atoms: C11_17  and  C23_33 
REMARK    7  A    between atoms: C13_19  and  O3_20 
ROOT
HETATM    1  N1  UNL     1       8.267  29.676   9.816  1.00  0.00    -0.191 NA
HETATM    2  C1  UNL     1       7.920  29.281   8.778  1.00  0.00     0.099 C 
HETATM    3  C2  UNL     1       7.494  28.797   7.484  1.00  0.00     0.044 A 
HETATM    4  C3  UNL     1       6.324  28.085   7.381  1.00  0.00     0.024 A 
HETATM    5  C4  UNL     1       5.927  27.625   6.130  1.00  0.00     0.027 A 
HETATM    6  C5  UNL     1       6.661  27.857   5.001  1.00  0.00     0.080 A 
HETATM    7  C27 UNL     1       7.826  28.566   5.116  1.00  0.00     0.027 A 
HETATM    8  C28 UNL     1       8.259  29.044   6.347  1.00  0.00     0.024 A 
ENDROOT
BRANCH   6   9
HETATM    9  S1  UNL     1       6.137  27.266   3.447  1.00  0.00     0.263 S 
HETATM   10  O1  UNL     1       5.449  28.377   2.681  1.00  0.00    -0.200 OA
HETATM   11  O2  UNL     1       5.132  26.150   3.608  1.00  0.00    -0.200 OA
BRANCH   9  12
HETATM   12  N2  UNL     1       7.436  26.692   2.490  1.00  0.00    -0.281 N 
ATOM     13  H2  UNL     1       7.683  27.201   1.642  1.00  0.00     0.179 HD
BRANCH  12  14
HETATM   14  C6  UNL     1       8.189  25.523   2.835  1.00  0.00     0.043 A 
HETATM   15  C7  UNL     1       8.206  24.444   1.988  1.00  0.00     0.030 A 
HETATM   16  C8  UNL     1       8.951  23.348   2.374  1.00  0.00     0.003 A 
HETATM   17  C9  UNL     1       9.664  23.326   3.578  1.00  0.00     0.008 A 
HETATM   18  C10 UNL     1       9.649  24.405   4.427  1.00  0.00    -0.047 A 
HETATM   19  C26 UNL     1       8.899  25.493   4.025  1.00  0.00     0.038 A 
BRANCH  18  20
HETATM   20  C11 UNL     1      10.396  24.465   5.715  1.00  0.00     0.065 C 
BRANCH  20  21
HETATM   21  C12 UNL     1      11.799  24.018   5.574  1.00  0.00     0.060 A 
HETATM   22  C13 UNL     1      12.214  22.746   5.997  1.00  0.00     0.087 A 
HETATM   23  C14 UNL     1      13.538  22.373   5.859  1.00  0.00     0.006 A 
HETATM   24  C15 UNL     1      14.388  23.301   5.298  1.00  0.00     0.066 A 
HETATM   25  C22 UNL     1      13.578  21.008   6.406  1.00  0.00     0.044 C 
HETATM   26  O4  UNL     1      13.966  24.475   4.914  1.00  0.00    -0.279 OA
HETATM   27  C17 UNL     1      15.834  23.304   4.980  1.00  0.00     0.066 C 
HETATM   28  C16 UNL     1      12.729  24.870   5.025  1.00  0.00     0.297 A 
HETATM   29  O5  UNL     1      12.391  26.039   4.625  1.00  0.00    -0.259 OA
HETATM   30  C18 UNL     1      16.685  22.547   5.942  1.00  0.00     0.006 C 
HETATM   31  C19 UNL     1      17.013  21.178   5.386  1.00  0.00     0.000 C 
HETATM   32  C20 UNL     1      15.660  20.535   5.057  1.00  0.00     0.000 C 
HETATM   33  C21 UNL     1      14.949  20.366   6.357  1.00  0.00     0.005 C 
BRANCH  22  34
HETATM   34  O3  UNL     1      11.281  21.897   6.543  1.00  0.00    -0.359 OA
ATOM     35  H3  UNL     1      10.907  22.113   7.389  1.00  0.00     0.217 HD
ENDBRANCH  22  34
ENDBRANCH  20  21
BRANCH  20  36
HETATM   36  C23 UNL     1      10.205  25.762   6.414  1.00  0.00    -0.001 A 
HETATM   37  C24 UNL     1       9.377  25.839   7.627  1.00  0.00     0.006 A 
HETATM   38  C25 UNL     1      10.877  26.016   7.729  1.00  0.00     0.006 A 
ENDBRANCH  20  36
ENDBRANCH  18  20
ENDBRANCH  12  14
ENDBRANCH   9  12
ENDBRANCH   6   9
TORSDOF 7
ENDMDL
