MODEL 3
REMARK VINA RESULT: -9.278208353      8.213     12.380
REMARK  7 active torsions:
REMARK  status: ('A' for Active; 'I' for Inactive)
REMARK    1  A    between atoms: C5_6  and  S1_7 
REMARK    2  A    between atoms: S1_7  and  N2_10 
REMARK    3  A    between atoms: N2_10  and  C6_12 
REMARK    4  A    between atoms: C10_16  and  C11_17 
REMARK    5  A    between atoms: C11_17  and  C12_18 
REMARK    6  A    between atoms: C11_17  and  C23_33 
REMARK    7  A    between atoms: C13_19  and  O3_20 
ROOT
HETATM    1  N1  UNL     1      12.465  22.863   6.971  1.00  0.00    -0.191 NA
HETATM    2  C1  UNL     1      11.792  23.813   6.983  1.00  0.00     0.099 C 
HETATM    3  C2  UNL     1      10.955  24.991   6.989  1.00  0.00     0.044 A 
HETATM    4  C3  UNL     1      11.142  25.948   7.956  1.00  0.00     0.024 A 
HETATM    5  C4  UNL     1      10.329  27.075   7.950  1.00  0.00     0.027 A 
HETATM    6  C5  UNL     1       9.350  27.265   7.015  1.00  0.00     0.080 A 
HETATM    7  C27 UNL     1       9.173  26.304   6.057  1.00  0.00     0.027 A 
HETATM    8  C28 UNL     1       9.963  25.162   6.026  1.00  0.00     0.024 A 
ENDROOT
BRANCH   6   9
HETATM    9  S1  UNL     1       8.346  28.690   7.034  1.00  0.00     0.263 S 
HETATM   10  O1  UNL     1       8.194  29.229   5.627  1.00  0.00    -0.200 OA
HETATM   11  O2  UNL     1       8.981  29.782   7.861  1.00  0.00    -0.200 OA
BRANCH   9  12
HETATM   12  N2  UNL     1       6.780  28.381   7.653  1.00  0.00    -0.281 N 
ATOM     13  H2  UNL     1       6.638  28.406   8.662  1.00  0.00     0.179 HD
BRANCH  12  14
HETATM   14  C6  UNL     1       5.662  28.089   6.807  1.00  0.00     0.043 A 
HETATM   15  C7  UNL     1       4.386  28.174   7.304  1.00  0.00     0.030 A 
HETATM   16  C8  UNL     1       3.349  27.881   6.440  1.00  0.00     0.003 A 
HETATM   17  C9  UNL     1       3.577  27.512   5.110  1.00  0.00     0.008 A 
HETATM   18  C10 UNL     1       4.854  27.427   4.610  1.00  0.00    -0.047 A 
HETATM   19  C26 UNL     1       5.879  27.723   5.488  1.00  0.00     0.038 A 
BRANCH  18  20
HETATM   20  C11 UNL     1       5.177  27.059   3.202  1.00  0.00     0.065 C 
BRANCH  20  21
HETATM   21  C12 UNL     1       6.283  26.082   3.115  1.00  0.00     0.060 A 
HETATM   22  C13 UNL     1       7.566  26.457   2.688  1.00  0.00     0.087 A 
HETATM   23  C14 UNL     1       8.569  25.508   2.607  1.00  0.00     0.006 A 
HETATM   24  C15 UNL     1       8.234  24.220   2.963  1.00  0.00     0.066 A 
HETATM   25  C22 UNL     1       9.735  26.269   2.131  1.00  0.00     0.044 C 
HETATM   26  O4  UNL     1       7.029  23.908   3.356  1.00  0.00    -0.279 OA
HETATM   27  C17 UNL     1       8.985  22.945   3.018  1.00  0.00     0.066 C 
HETATM   28  C16 UNL     1       6.053  24.767   3.447  1.00  0.00     0.297 A 
HETATM   29  O5  UNL     1       4.897  24.384   3.842  1.00  0.00    -0.259 OA
HETATM   30  C18 UNL     1      10.023  22.786   1.959  1.00  0.00     0.006 C 
HETATM   31  C19 UNL     1      11.392  23.110   2.515  1.00  0.00     0.000 C 
HETATM   32  C20 UNL     1      11.269  24.518   3.111  1.00  0.00     0.000 C 
HETATM   33  C21 UNL     1      10.988  25.434   1.967  1.00  0.00     0.005 C 
BRANCH  22  34
HETATM   34  O3  UNL     1       7.793  27.772   2.359  1.00  0.00    -0.359 OA
ATOM     35  H3  UNL     1       8.534  28.219   2.751  1.00  0.00     0.217 HD
ENDBRANCH  22  34
ENDBRANCH  20  21
BRANCH  20  36
HETATM   36  C23 UNL     1       3.961  26.721   2.419  1.00  0.00    -0.001 A 
HETATM   37  C24 UNL     1       3.362  27.709   1.509  1.00  0.00     0.006 A 
HETATM   38  C25 UNL     1       4.056  26.489   0.941  1.00  0.00     0.006 A 
ENDBRANCH  20  36
ENDBRANCH  18  20
ENDBRANCH  12  14
ENDBRANCH   9  12
ENDBRANCH   6   9
TORSDOF 7
ENDMDL
