MODEL 3
REMARK VINA RESULT: -9.961945651      1.606      4.895
REMARK  18 active torsions:
REMARK  status: ('A' for Active; 'I' for Inactive)
REMARK    1  A    between atoms: C2_2  and  C4_4 
REMARK    2  A    between atoms: C4_4  and  C5_6 
REMARK    3  A    between atoms: C7_10  and  C8_11 
REMARK    4  A    between atoms: C8_11  and  C9_12 
REMARK    5  A    between atoms: C8_11  and  C16_19 
REMARK    6  A    between atoms: C9_12  and  C10_13 
REMARK    7  A    between atoms: C16_19  and  C17_20 
REMARK    8  A    between atoms: C17_20  and  O2_21 
REMARK    9  A    between atoms: C17_20  and  C18_23 
REMARK   10  A    between atoms: C18_23  and  C19_24 
REMARK   11  A    between atoms: C18_23  and  N2_31 
REMARK   12  A    between atoms: C19_24  and  C20_25 
REMARK       I    between atoms: N2_31  and  C26_33 
REMARK   13  A    between atoms: C26_33  and  C27_35 
REMARK   14  A    between atoms: C27_35  and  N3_36 
REMARK   15  A    between atoms: C27_35  and  C36_48 
REMARK       I    between atoms: N3_36  and  C28_38 
REMARK   16  A    between atoms: C28_38  and  O5_40 
REMARK   17  A    between atoms: O5_40  and  C29_41 
REMARK   18  A    between atoms: C29_41  and  C30_42 
ROOT
HETATM    1  C18 UNL     1      -9.979  16.962  26.555  1.00  0.00     0.117 C 
ENDROOT
BRANCH   1   2
HETATM    2  C17 UNL     1      -9.543  18.073  27.328  1.00  0.00     0.142 C 
BRANCH   2   3
HETATM    3  C16 UNL     1      -8.204  18.499  27.685  1.00  0.00     0.046 C 
BRANCH   3   4
HETATM    4  C8  UNL     1      -7.348  17.622  28.553  1.00  0.00     0.060 C 
BRANCH   4   5
HETATM    5  C7  UNL     1      -5.969  17.509  28.003  1.00  0.00     0.086 A 
HETATM    6  N1  UNL     1      -4.844  17.379  28.680  1.00  0.00    -0.353 N 
HETATM    7  C6  UNL     1      -3.799  17.306  27.817  1.00  0.00     0.122 A 
ATOM      8  H1  UNL     1      -4.772  17.339  29.697  1.00  0.00     0.166 HD
HETATM    9  C5  UNL     1      -4.328  17.399  26.541  1.00  0.00     0.095 A 
HETATM   10  N4  UNL     1      -5.667  17.522  26.701  1.00  0.00    -0.342 N 
ATOM     11  H4  UNL     1      -6.343  17.612  25.942  1.00  0.00     0.167 HD
BRANCH   9  12
HETATM   12  C4  UNL     1      -3.596  17.367  25.292  1.00  0.00     0.180 C 
HETATM   13  O1  UNL     1      -2.826  16.377  25.061  1.00  0.00    -0.290 OA
BRANCH  12  14
HETATM   14  C2  UNL     1      -3.704  18.431  24.282  1.00  0.00     0.054 C 
HETATM   15  C1  UNL     1      -3.973  19.789  24.917  1.00  0.00     0.018 C 
HETATM   16  C3  UNL     1      -4.749  18.114  23.221  1.00  0.00     0.018 C 
ENDBRANCH  12  14
ENDBRANCH   9  12
ENDBRANCH   4   5
BRANCH   4  17
HETATM   17  C9  UNL     1      -7.811  16.224  28.775  1.00  0.00     0.051 C 
BRANCH  17  18
HETATM   18  C10 UNL     1      -8.162  16.138  30.242  1.00  0.00    -0.057 A 
HETATM   19  C11 UNL     1      -7.882  17.149  31.126  1.00  0.00     0.007 A 
HETATM   20  C12 UNL     1      -8.215  17.053  32.473  1.00  0.00     0.001 A 
HETATM   21  C13 UNL     1      -8.840  15.937  32.964  1.00  0.00     0.000 A 
HETATM   22  C14 UNL     1      -9.123  14.923  32.082  1.00  0.00     0.001 A 
HETATM   23  C15 UNL     1      -8.797  15.008  30.750  1.00  0.00     0.007 A 
ENDBRANCH  17  18
ENDBRANCH   4  17
ENDBRANCH   3   4
ENDBRANCH   2   3
BRANCH   2  24
HETATM   24  O2  UNL     1     -10.272  18.093  28.572  1.00  0.00    -0.393 OA
ATOM     25  H2  UNL     1     -10.812  17.313  28.543  1.00  0.00     0.210 HD
ENDBRANCH   2  24
ENDBRANCH   1   2
BRANCH   1  26
HETATM   26  C19 UNL     1     -10.516  16.992  25.200  1.00  0.00     0.066 C 
BRANCH  26  27
HETATM   27  C20 UNL     1      -9.763  16.330  24.114  1.00  0.00    -0.056 A 
HETATM   28  C21 UNL     1     -10.269  15.170  23.503  1.00  0.00     0.007 A 
HETATM   29  C22 UNL     1      -9.615  14.549  22.488  1.00  0.00     0.001 A 
HETATM   30  C23 UNL     1      -8.415  15.038  22.010  1.00  0.00     0.000 A 
HETATM   31  C24 UNL     1      -7.873  16.175  22.575  1.00  0.00     0.001 A 
HETATM   32  C25 UNL     1      -8.566  16.772  23.599  1.00  0.00     0.007 A 
ENDBRANCH  26  27
ENDBRANCH   1  26
BRANCH   1  33
HETATM   33  N2  UNL     1     -11.011  16.237  27.374  1.00  0.00    -0.352 N 
HETATM   34  C26 UNL     1     -10.978  14.827  27.509  1.00  0.00     0.241 C 
HETATM   35  O3  UNL     1     -10.060  14.178  26.903  1.00  0.00    -0.271 OA
ATOM     36  H2  UNL     1     -11.746  16.769  27.840  1.00  0.00     0.163 HD
BRANCH  34  37
HETATM   37  C27 UNL     1     -11.934  14.037  28.302  1.00  0.00     0.182 C 
BRANCH  37  38
HETATM   38  N3  UNL     1     -12.377  14.812  29.480  1.00  0.00    -0.323 N 
HETATM   39  C28 UNL     1     -12.421  14.159  30.736  1.00  0.00     0.361 C 
HETATM   40  O4  UNL     1     -12.082  12.950  30.803  1.00  0.00    -0.238 OA
ATOM     41  H3  UNL     1     -12.644  15.792  29.390  1.00  0.00     0.165 HD
BRANCH  39  42
HETATM   42  O5  UNL     1     -12.830  14.828  31.885  1.00  0.00    -0.299 OA
BRANCH  42  43
HETATM   43  C29 UNL     1     -13.753  14.272  32.791  1.00  0.00     0.219 C 
BRANCH  43  44
HETATM   44  C30 UNL     1     -12.983  13.531  33.831  1.00  0.00    -0.034 A 
HETATM   45  C31 UNL     1     -11.996  14.148  34.538  1.00  0.00     0.009 A 
HETATM   46  C32 UNL     1     -11.318  13.399  35.498  1.00  0.00     0.001 A 
HETATM   47  C33 UNL     1     -11.606  12.084  35.753  1.00  0.00     0.000 A 
HETATM   48  C34 UNL     1     -12.610  11.484  35.023  1.00  0.00     0.001 A 
HETATM   49  C35 UNL     1     -13.295  12.198  34.069  1.00  0.00     0.009 A 
ENDBRANCH  43  44
ENDBRANCH  42  43
ENDBRANCH  39  42
ENDBRANCH  37  38
BRANCH  37  50
HETATM   50  C36 UNL     1     -13.215  13.881  27.489  1.00  0.00     0.009 C 
HETATM   51  C37 UNL     1     -14.298  14.817  27.872  1.00  0.00     0.012 C 
HETATM   52  C38 UNL     1     -13.719  12.461  27.542  1.00  0.00     0.012 C 
ENDBRANCH  37  50
ENDBRANCH  34  37
ENDBRANCH   1  33
TORSDOF 18
ENDMDL
