MODEL 2
REMARK VINA RESULT: -10.143556789      1.538      4.698
REMARK  18 active torsions:
REMARK  status: ('A' for Active; 'I' for Inactive)
REMARK    1  A    between atoms: C2_2  and  C4_4 
REMARK    2  A    between atoms: C4_4  and  C5_6 
REMARK    3  A    between atoms: C7_10  and  C8_11 
REMARK    4  A    between atoms: C8_11  and  C9_12 
REMARK    5  A    between atoms: C8_11  and  C16_19 
REMARK    6  A    between atoms: C9_12  and  C10_13 
REMARK    7  A    between atoms: C16_19  and  C17_20 
REMARK    8  A    between atoms: C17_20  and  O2_21 
REMARK    9  A    between atoms: C17_20  and  C18_23 
REMARK   10  A    between atoms: C18_23  and  C19_24 
REMARK   11  A    between atoms: C18_23  and  N2_31 
REMARK   12  A    between atoms: C19_24  and  C20_25 
REMARK       I    between atoms: N2_31  and  C26_33 
REMARK   13  A    between atoms: C26_33  and  C27_35 
REMARK   14  A    between atoms: C27_35  and  N3_36 
REMARK   15  A    between atoms: C27_35  and  C36_48 
REMARK       I    between atoms: N3_36  and  C28_38 
REMARK   16  A    between atoms: C28_38  and  O5_40 
REMARK   17  A    between atoms: O5_40  and  C29_41 
REMARK   18  A    between atoms: C29_41  and  C30_42 
ROOT
HETATM    1  C18 UNL     1     -10.301  16.301  26.253  1.00  0.00     0.117 C 
ENDROOT
BRANCH   1   2
HETATM    2  C17 UNL     1      -9.796  17.385  27.022  1.00  0.00     0.142 C 
BRANCH   2   3
HETATM    3  C16 UNL     1      -9.765  17.583  28.458  1.00  0.00     0.046 C 
BRANCH   3   4
HETATM    4  C8  UNL     1      -8.459  17.513  29.195  1.00  0.00     0.060 C 
BRANCH   4   5
HETATM    5  C7  UNL     1      -7.352  18.077  28.374  1.00  0.00     0.086 A 
HETATM    6  N1  UNL     1      -7.353  19.210  27.698  1.00  0.00    -0.353 N 
HETATM    7  C6  UNL     1      -6.156  19.371  27.080  1.00  0.00     0.122 A 
ATOM      8  H1  UNL     1      -8.134  19.864  27.648  1.00  0.00     0.166 HD
HETATM    9  C5  UNL     1      -5.388  18.267  27.403  1.00  0.00     0.095 A 
HETATM   10  N4  UNL     1      -6.162  17.495  28.202  1.00  0.00    -0.342 N 
ATOM     11  H4  UNL     1      -5.879  16.604  28.610  1.00  0.00     0.167 HD
BRANCH   9  12
HETATM   12  C4  UNL     1      -4.030  17.997  26.975  1.00  0.00     0.180 C 
HETATM   13  O1  UNL     1      -3.074  18.258  27.777  1.00  0.00    -0.290 OA
BRANCH  12  14
HETATM   14  C2  UNL     1      -3.713  17.434  25.653  1.00  0.00     0.054 C 
HETATM   15  C1  UNL     1      -2.566  18.178  24.981  1.00  0.00     0.018 C 
HETATM   16  C3  UNL     1      -4.932  17.383  24.741  1.00  0.00     0.018 C 
ENDBRANCH  12  14
ENDBRANCH   9  12
ENDBRANCH   4   5
BRANCH   4  17
HETATM   17  C9  UNL     1      -7.995  16.165  29.629  1.00  0.00     0.051 C 
BRANCH  17  18
HETATM   18  C10 UNL     1      -8.259  16.102  31.115  1.00  0.00    -0.057 A 
HETATM   19  C11 UNL     1      -8.108  17.190  31.936  1.00  0.00     0.007 A 
HETATM   20  C12 UNL     1      -8.359  17.113  33.303  1.00  0.00     0.001 A 
HETATM   21  C13 UNL     1      -8.771  15.938  33.876  1.00  0.00     0.000 A 
HETATM   22  C14 UNL     1      -8.925  14.847  33.057  1.00  0.00     0.001 A 
HETATM   23  C15 UNL     1      -8.678  14.913  31.706  1.00  0.00     0.007 A 
ENDBRANCH  17  18
ENDBRANCH   4  17
ENDBRANCH   3   4
ENDBRANCH   2   3
BRANCH   2  24
HETATM   24  O2  UNL     1     -10.331  18.619  26.500  1.00  0.00    -0.393 OA
ATOM     25  H2  UNL     1      -9.568  19.104  26.209  1.00  0.00     0.210 HD
ENDBRANCH   2  24
ENDBRANCH   1   2
BRANCH   1  26
HETATM   26  C19 UNL     1     -10.772  16.347  24.875  1.00  0.00     0.066 C 
BRANCH  26  27
HETATM   27  C20 UNL     1      -9.835  16.010  23.782  1.00  0.00    -0.056 A 
HETATM   28  C21 UNL     1     -10.018  14.843  23.023  1.00  0.00     0.007 A 
HETATM   29  C22 UNL     1      -9.189  14.514  21.999  1.00  0.00     0.001 A 
HETATM   30  C23 UNL     1      -8.123  15.324  21.658  1.00  0.00     0.000 A 
HETATM   31  C24 UNL     1      -7.897  16.483  22.372  1.00  0.00     0.001 A 
HETATM   32  C25 UNL     1      -8.759  16.778  23.401  1.00  0.00     0.007 A 
ENDBRANCH  26  27
ENDBRANCH   1  26
BRANCH   1  33
HETATM   33  N2  UNL     1     -11.431  15.696  27.039  1.00  0.00    -0.352 N 
HETATM   34  C26 UNL     1     -11.304  14.419  27.639  1.00  0.00     0.241 C 
HETATM   35  O3  UNL     1     -10.209  13.779  27.484  1.00  0.00    -0.271 OA
ATOM     36  H2  UNL     1     -12.304  16.214  27.142  1.00  0.00     0.163 HD
BRANCH  34  37
HETATM   37  C27 UNL     1     -12.349  13.758  28.438  1.00  0.00     0.182 C 
BRANCH  37  38
HETATM   38  N3  UNL     1     -12.731  14.615  29.579  1.00  0.00    -0.323 N 
HETATM   39  C28 UNL     1     -12.247  14.276  30.866  1.00  0.00     0.361 C 
HETATM   40  O4  UNL     1     -11.513  13.263  30.990  1.00  0.00    -0.238 OA
ATOM     41  H3  UNL     1     -13.329  15.431  29.443  1.00  0.00     0.165 HD
BRANCH  39  42
HETATM   42  O5  UNL     1     -12.570  15.038  31.985  1.00  0.00    -0.299 OA
BRANCH  42  43
HETATM   43  C29 UNL     1     -13.579  14.656  32.889  1.00  0.00     0.219 C 
BRANCH  43  44
HETATM   44  C30 UNL     1     -12.972  13.723  33.882  1.00  0.00    -0.034 A 
HETATM   45  C31 UNL     1     -13.293  12.401  33.881  1.00  0.00     0.009 A 
HETATM   46  C32 UNL     1     -12.687  11.583  34.833  1.00  0.00     0.001 A 
HETATM   47  C33 UNL     1     -11.791  12.056  35.756  1.00  0.00     0.000 A 
HETATM   48  C34 UNL     1     -11.484  13.399  35.735  1.00  0.00     0.001 A 
HETATM   49  C35 UNL     1     -12.067  14.230  34.807  1.00  0.00     0.009 A 
ENDBRANCH  43  44
ENDBRANCH  42  43
ENDBRANCH  39  42
ENDBRANCH  37  38
BRANCH  37  50
HETATM   50  C36 UNL     1     -13.624  13.704  27.604  1.00  0.00     0.009 C 
HETATM   51  C37 UNL     1     -14.773  14.429  28.198  1.00  0.00     0.012 C 
HETATM   52  C38 UNL     1     -14.014  12.278  27.304  1.00  0.00     0.012 C 
ENDBRANCH  37  50
ENDBRANCH  34  37
ENDBRANCH   1  33
TORSDOF 18
ENDMDL
