MODEL 1
REMARK VINA RESULT: -10.148168305      0.000      0.000
REMARK  18 active torsions:
REMARK  status: ('A' for Active; 'I' for Inactive)
REMARK    1  A    between atoms: C2_2  and  C4_4 
REMARK    2  A    between atoms: C4_4  and  C5_6 
REMARK    3  A    between atoms: C7_10  and  C8_11 
REMARK    4  A    between atoms: C8_11  and  C9_12 
REMARK    5  A    between atoms: C8_11  and  C16_19 
REMARK    6  A    between atoms: C9_12  and  C10_13 
REMARK    7  A    between atoms: C16_19  and  C17_20 
REMARK    8  A    between atoms: C17_20  and  O2_21 
REMARK    9  A    between atoms: C17_20  and  C18_23 
REMARK   10  A    between atoms: C18_23  and  C19_24 
REMARK   11  A    between atoms: C18_23  and  N2_31 
REMARK   12  A    between atoms: C19_24  and  C20_25 
REMARK       I    between atoms: N2_31  and  C26_33 
REMARK   13  A    between atoms: C26_33  and  C27_35 
REMARK   14  A    between atoms: C27_35  and  N3_36 
REMARK   15  A    between atoms: C27_35  and  C36_48 
REMARK       I    between atoms: N3_36  and  C28_38 
REMARK   16  A    between atoms: C28_38  and  O5_40 
REMARK   17  A    between atoms: O5_40  and  C29_41 
REMARK   18  A    between atoms: C29_41  and  C30_42 
ROOT
HETATM    1  C18 UNL     1     -10.216  16.788  26.372  1.00  0.00     0.117 C 
ENDROOT
BRANCH   1   2
HETATM    2  C17 UNL     1      -9.863  17.980  27.062  1.00  0.00     0.142 C 
BRANCH   2   3
HETATM    3  C16 UNL     1      -8.594  18.393  27.631  1.00  0.00     0.046 C 
BRANCH   3   4
HETATM    4  C8  UNL     1      -7.588  17.359  28.044  1.00  0.00     0.060 C 
BRANCH   4   5
HETATM    5  C7  UNL     1      -8.026  16.651  29.279  1.00  0.00     0.086 A 
HETATM    6  N1  UNL     1      -8.393  15.388  29.391  1.00  0.00    -0.353 N 
HETATM    7  C6  UNL     1      -8.720  15.123  30.682  1.00  0.00     0.122 A 
ATOM      8  H1  UNL     1      -8.425  14.715  28.626  1.00  0.00     0.166 HD
HETATM    9  C5  UNL     1      -8.541  16.299  31.389  1.00  0.00     0.095 A 
HETATM   10  N4  UNL     1      -8.113  17.214  30.487  1.00  0.00    -0.342 N 
ATOM     11  H4  UNL     1      -7.890  18.187  30.699  1.00  0.00     0.167 HD
BRANCH   9  12
HETATM   12  C4  UNL     1      -8.763  16.504  32.805  1.00  0.00     0.180 C 
HETATM   13  O1  UNL     1      -8.182  17.483  33.378  1.00  0.00    -0.290 OA
BRANCH  12  14
HETATM   14  C2  UNL     1      -9.631  15.627  33.607  1.00  0.00     0.054 C 
HETATM   15  C1  UNL     1     -10.079  16.300  34.897  1.00  0.00     0.018 C 
HETATM   16  C3  UNL     1      -8.980  14.281  33.896  1.00  0.00     0.018 C 
ENDBRANCH  12  14
ENDBRANCH   9  12
ENDBRANCH   4   5
BRANCH   4  17
HETATM   17  C9  UNL     1      -6.202  17.829  28.318  1.00  0.00     0.051 C 
BRANCH  17  18
HETATM   18  C10 UNL     1      -5.646  18.261  26.982  1.00  0.00    -0.057 A 
HETATM   19  C11 UNL     1      -5.589  17.419  25.901  1.00  0.00     0.007 A 
HETATM   20  C12 UNL     1      -5.076  17.837  24.677  1.00  0.00     0.001 A 
HETATM   21  C13 UNL     1      -4.609  19.114  24.510  1.00  0.00     0.000 A 
HETATM   22  C14 UNL     1      -4.666  19.961  25.590  1.00  0.00     0.001 A 
HETATM   23  C15 UNL     1      -5.170  19.557  26.803  1.00  0.00     0.007 A 
ENDBRANCH  17  18
ENDBRANCH   4  17
ENDBRANCH   3   4
ENDBRANCH   2   3
BRANCH   2  24
HETATM   24  O2  UNL     1     -10.823  18.216  28.112  1.00  0.00    -0.393 OA
ATOM     25  H2  UNL     1     -11.623  18.445  27.654  1.00  0.00     0.210 HD
ENDBRANCH   2  24
ENDBRANCH   1   2
BRANCH   1  26
HETATM   26  C19 UNL     1     -10.729  16.680  25.012  1.00  0.00     0.066 C 
BRANCH  26  27
HETATM   27  C20 UNL     1      -9.839  16.172  23.946  1.00  0.00    -0.056 A 
HETATM   28  C21 UNL     1     -10.154  14.988  23.260  1.00  0.00     0.007 A 
HETATM   29  C22 UNL     1      -9.371  14.505  22.261  1.00  0.00     0.001 A 
HETATM   30  C23 UNL     1      -8.222  15.168  21.876  1.00  0.00     0.000 A 
HETATM   31  C24 UNL     1      -7.864  16.336  22.517  1.00  0.00     0.001 A 
HETATM   32  C25 UNL     1      -8.684  16.789  23.522  1.00  0.00     0.007 A 
ENDBRANCH  26  27
ENDBRANCH   1  26
BRANCH   1  33
HETATM   33  N2  UNL     1     -11.216  16.065  27.231  1.00  0.00    -0.352 N 
HETATM   34  C26 UNL     1     -11.051  14.695  27.551  1.00  0.00     0.241 C 
HETATM   35  O3  UNL     1     -10.038  14.076  27.078  1.00  0.00    -0.271 OA
ATOM     36  H2  UNL     1     -12.027  16.570  27.589  1.00  0.00     0.163 HD
BRANCH  34  37
HETATM   37  C27 UNL     1     -11.968  13.913  28.396  1.00  0.00     0.182 C 
BRANCH  37  38
HETATM   38  N3  UNL     1     -12.200  14.616  29.676  1.00  0.00    -0.323 N 
HETATM   39  C28 UNL     1     -12.285  13.844  30.861  1.00  0.00     0.361 C 
HETATM   40  O4  UNL     1     -12.160  12.596  30.781  1.00  0.00    -0.238 OA
ATOM     41  H3  UNL     1     -12.297  15.631  29.704  1.00  0.00     0.165 HD
BRANCH  39  42
HETATM   42  O5  UNL     1     -12.504  14.441  32.098  1.00  0.00    -0.299 OA
BRANCH  42  43
HETATM   43  C29 UNL     1     -13.579  14.074  32.930  1.00  0.00     0.219 C 
BRANCH  43  44
HETATM   44  C30 UNL     1     -13.044  13.188  34.003  1.00  0.00    -0.034 A 
HETATM   45  C31 UNL     1     -13.174  11.835  33.919  1.00  0.00     0.009 A 
HETATM   46  C32 UNL     1     -12.647  11.065  34.954  1.00  0.00     0.001 A 
HETATM   47  C33 UNL     1     -12.011  11.612  36.037  1.00  0.00     0.000 A 
HETATM   48  C34 UNL     1     -11.893  12.983  36.097  1.00  0.00     0.001 A 
HETATM   49  C35 UNL     1     -12.403  13.769  35.091  1.00  0.00     0.009 A 
ENDBRANCH  43  44
ENDBRANCH  42  43
ENDBRANCH  39  42
ENDBRANCH  37  38
BRANCH  37  50
HETATM   50  C36 UNL     1     -13.345  13.922  27.742  1.00  0.00     0.009 C 
HETATM   51  C37 UNL     1     -14.373  14.682  28.494  1.00  0.00     0.012 C 
HETATM   52  C38 UNL     1     -13.830  12.518  27.482  1.00  0.00     0.012 C 
ENDBRANCH  37  50
ENDBRANCH  34  37
ENDBRANCH   1  33
TORSDOF 18
ENDMDL
