MODEL 1
REMARK VINA RESULT: -8.999683059      0.000      0.000
REMARK  13 active torsions:
REMARK  status: ('A' for Active; 'I' for Inactive)
REMARK    1  A    between atoms: C2_2  and  C4_4 
REMARK    2  A    between atoms: C4_4  and  N1_5 
REMARK    3  A    between atoms: N1_5  and  C5_6 
REMARK    4  A    between atoms: N1_5  and  S1_28 
REMARK    5  A    between atoms: C5_6  and  C6_7 
REMARK    6  A    between atoms: C6_7  and  O1_8 
REMARK    7  A    between atoms: C6_7  and  C7_10 
REMARK    8  A    between atoms: C7_10  and  C8_11 
REMARK    9  A    between atoms: C7_10  and  N2_18 
REMARK   10  A    between atoms: C8_11  and  C9_12 
REMARK       I    between atoms: N2_18  and  C15_20 
REMARK   11  A    between atoms: C15_20  and  O3_22 
REMARK   12  A    between atoms: O3_22  and  C16_23 
REMARK   13  A    between atoms: S1_28  and  C20_31 
ROOT
HETATM    1  C6  UNL     1       9.827  17.683  10.171  1.00  0.00     0.160 C 
ENDROOT
BRANCH   1   2
HETATM    2  C5  UNL     1       8.357  17.845  10.260  1.00  0.00     0.174 C 
BRANCH   2   3
HETATM    3  N1  UNL     1       7.652  18.289   9.119  1.00  0.00    -0.283 N 
BRANCH   3   4
HETATM    4  C4  UNL     1       6.628  19.233   9.317  1.00  0.00     0.080 C 
BRANCH   4   5
HETATM    5  C2  UNL     1       5.770  19.036  10.538  1.00  0.00     0.017 C 
HETATM    6  C1  UNL     1       4.619  18.107  10.371  1.00  0.00     0.015 C 
HETATM    7  C3  UNL     1       5.357  20.369  11.142  1.00  0.00     0.015 C 
ENDBRANCH   4   5
ENDBRANCH   3   4
BRANCH   3   8
HETATM    8  S1  UNL     1       7.267  17.099   7.995  1.00  0.00     0.264 S 
HETATM    9  O5  UNL     1       6.732  15.867   8.682  1.00  0.00    -0.200 OA
HETATM   10  O6  UNL     1       6.097  17.590   7.122  1.00  0.00    -0.200 OA
BRANCH   8  11
HETATM   11  C20 UNL     1       8.564  16.623   6.923  1.00  0.00     0.080 A 
HETATM   12  C21 UNL     1       9.590  17.459   6.549  1.00  0.00     0.027 A 
HETATM   13  C22 UNL     1      10.606  17.021   5.702  1.00  0.00     0.028 A 
HETATM   14  C23 UNL     1      10.633  15.736   5.201  1.00  0.00     0.046 A 
HETATM   15  N3  UNL     1      11.682  15.311   4.337  1.00  0.00    -0.102 NA
HETATM   16  C24 UNL     1       9.606  14.895   5.575  1.00  0.00     0.028 A 
HETATM   17  C25 UNL     1       8.599  15.323   6.412  1.00  0.00     0.027 A 
ENDBRANCH   8  11
ENDBRANCH   3   8
ENDBRANCH   2   3
ENDBRANCH   1   2
BRANCH   1  18
HETATM   18  O1  UNL     1      10.570  18.663  10.802  1.00  0.00    -0.392 OA
ATOM     19  H1  UNL     1      11.031  18.383  11.584  1.00  0.00     0.210 HD
ENDBRANCH   1  18
BRANCH   1  20
HETATM   20  C7  UNL     1      10.285  16.336  10.769  1.00  0.00     0.121 C 
BRANCH  20  21
HETATM   21  C8  UNL     1      10.081  15.281   9.712  1.00  0.00     0.066 C 
BRANCH  21  22
HETATM   22  C9  UNL     1      11.387  14.796   9.172  1.00  0.00    -0.056 A 
HETATM   23  C10 UNL     1      11.742  13.470   9.264  1.00  0.00     0.007 A 
HETATM   24  C11 UNL     1      12.965  13.019   8.758  1.00  0.00     0.001 A 
HETATM   25  C12 UNL     1      13.816  13.915   8.163  1.00  0.00     0.000 A 
HETATM   26  C13 UNL     1      13.487  15.239   8.059  1.00  0.00     0.001 A 
HETATM   27  C14 UNL     1      12.271  15.661   8.567  1.00  0.00     0.007 A 
ENDBRANCH  21  22
ENDBRANCH  20  21
BRANCH  20  28
HETATM   28  N2  UNL     1       9.268  16.054  11.797  1.00  0.00    -0.329 N 
HETATM   29  C15 UNL     1       9.629  15.910  13.150  1.00  0.00     0.361 C 
HETATM   30  O2  UNL     1      10.850  16.028  13.440  1.00  0.00    -0.238 OA
ATOM     31  H2  UNL     1       8.289  15.961  11.525  1.00  0.00     0.165 HD
BRANCH  29  32
HETATM   32  O3  UNL     1       8.713  15.647  14.173  1.00  0.00    -0.296 OA
BRANCH  32  33
HETATM   33  C16 UNL     1       7.643  16.551  14.429  1.00  0.00     0.159 C 
HETATM   34  C17 UNL     1       7.243  16.528  15.891  1.00  0.00     0.061 C 
HETATM   35  C18 UNL     1       7.730  17.848  16.425  1.00  0.00     0.170 C 
HETATM   36  O4  UNL     1       7.552  18.687  15.314  1.00  0.00    -0.389 OA
HETATM   37  C19 UNL     1       8.162  17.961  14.275  1.00  0.00     0.200 C 
ENDBRANCH  32  33
ENDBRANCH  29  32
ENDBRANCH  20  28
ENDBRANCH   1  20
TORSDOF 13
ENDMDL
