MODEL 7
REMARK VINA RESULT: -8.435280654      2.785      7.427
REMARK  13 active torsions:
REMARK  status: ('A' for Active; 'I' for Inactive)
REMARK    1  A    between atoms: C2_2  and  C4_4 
REMARK    2  A    between atoms: C4_4  and  N1_5 
REMARK    3  A    between atoms: N1_5  and  C5_6 
REMARK    4  A    between atoms: N1_5  and  S1_28 
REMARK    5  A    between atoms: C5_6  and  C6_7 
REMARK    6  A    between atoms: C6_7  and  O1_8 
REMARK    7  A    between atoms: C6_7  and  C7_10 
REMARK    8  A    between atoms: C7_10  and  C8_11 
REMARK    9  A    between atoms: C7_10  and  N2_18 
REMARK   10  A    between atoms: C8_11  and  C9_12 
REMARK       I    between atoms: N2_18  and  C15_20 
REMARK   11  A    between atoms: C15_20  and  O3_22 
REMARK   12  A    between atoms: O3_22  and  C16_23 
REMARK   13  A    between atoms: S1_28  and  C20_31 
ROOT
HETATM    1  C6  UNL     1      10.538  17.764   8.042  1.00  0.00     0.160 C 
ENDROOT
BRANCH   1   2
HETATM    2  C5  UNL     1      10.080  17.688   9.449  1.00  0.00     0.174 C 
BRANCH   2   3
HETATM    3  N1  UNL     1       8.812  17.127   9.721  1.00  0.00    -0.283 N 
BRANCH   3   4
HETATM    4  C4  UNL     1       7.783  18.007  10.104  1.00  0.00     0.080 C 
BRANCH   4   5
HETATM    5  C2  UNL     1       7.026  18.672   8.985  1.00  0.00     0.017 C 
HETATM    6  C1  UNL     1       5.922  19.577   9.406  1.00  0.00     0.015 C 
HETATM    7  C3  UNL     1       6.579  17.658   7.944  1.00  0.00     0.015 C 
ENDBRANCH   4   5
ENDBRANCH   3   4
BRANCH   3   8
HETATM    8  S1  UNL     1       8.826  15.685  10.587  1.00  0.00     0.264 S 
HETATM    9  O5  UNL     1       7.551  14.911  10.360  1.00  0.00    -0.200 OA
HETATM   10  O6  UNL     1       9.935  14.773  10.030  1.00  0.00    -0.200 OA
BRANCH   8  11
HETATM   11  C20 UNL     1       9.086  15.842  12.310  1.00  0.00     0.080 A 
HETATM   12  C21 UNL     1      10.269  16.269  12.868  1.00  0.00     0.027 A 
HETATM   13  C22 UNL     1      10.414  16.388  14.248  1.00  0.00     0.028 A 
HETATM   14  C23 UNL     1       9.386  16.086  15.117  1.00  0.00     0.046 A 
HETATM   15  N3  UNL     1       9.559  16.215  16.525  1.00  0.00    -0.102 NA
HETATM   16  C24 UNL     1       8.199  15.658  14.561  1.00  0.00     0.028 A 
HETATM   17  C25 UNL     1       8.050  15.538  13.197  1.00  0.00     0.027 A 
ENDBRANCH   8  11
ENDBRANCH   3   8
ENDBRANCH   2   3
ENDBRANCH   1   2
BRANCH   1  18
HETATM   18  O1  UNL     1      11.635  18.574   7.820  1.00  0.00    -0.392 OA
ATOM     19  H1  UNL     1      12.271  18.601   8.525  1.00  0.00     0.210 HD
ENDBRANCH   1  18
BRANCH   1  20
HETATM   20  C7  UNL     1      10.907  16.370   7.492  1.00  0.00     0.121 C 
BRANCH  20  21
HETATM   21  C8  UNL     1      12.369  16.144   7.781  1.00  0.00     0.066 C 
BRANCH  21  22
HETATM   22  C9  UNL     1      12.792  14.764   7.393  1.00  0.00    -0.056 A 
HETATM   23  C10 UNL     1      12.250  13.660   8.009  1.00  0.00     0.007 A 
HETATM   24  C11 UNL     1      12.647  12.369   7.645  1.00  0.00     0.001 A 
HETATM   25  C12 UNL     1      13.589  12.211   6.660  1.00  0.00     0.000 A 
HETATM   26  C13 UNL     1      14.144  13.292   6.032  1.00  0.00     0.001 A 
HETATM   27  C14 UNL     1      13.733  14.559   6.410  1.00  0.00     0.007 A 
ENDBRANCH  21  22
ENDBRANCH  20  21
BRANCH  20  28
HETATM   28  N2  UNL     1      10.825  16.544   6.031  1.00  0.00    -0.329 N 
HETATM   29  C15 UNL     1      10.032  15.687   5.245  1.00  0.00     0.361 C 
HETATM   30  O2  UNL     1       9.405  14.769   5.839  1.00  0.00    -0.238 OA
ATOM     31  H2  UNL     1      11.350  17.296   5.584  1.00  0.00     0.165 HD
BRANCH  29  32
HETATM   32  O3  UNL     1       9.908  15.802   3.858  1.00  0.00    -0.296 OA
BRANCH  32  33
HETATM   33  C16 UNL     1      10.973  16.346   3.084  1.00  0.00     0.159 C 
HETATM   34  C17 UNL     1      12.081  15.331   2.885  1.00  0.00     0.061 C 
HETATM   35  C18 UNL     1      11.978  14.955   1.433  1.00  0.00     0.170 C 
HETATM   36  O4  UNL     1      11.564  16.165   0.855  1.00  0.00    -0.389 OA
HETATM   37  C19 UNL     1      10.483  16.546   1.670  1.00  0.00     0.200 C 
ENDBRANCH  32  33
ENDBRANCH  29  32
ENDBRANCH  20  28
ENDBRANCH   1  20
TORSDOF 13
ENDMDL
