MODEL 6
REMARK VINA RESULT: -8.449360981      2.928      7.677
REMARK  13 active torsions:
REMARK  status: ('A' for Active; 'I' for Inactive)
REMARK    1  A    between atoms: C2_2  and  C4_4 
REMARK    2  A    between atoms: C4_4  and  N1_5 
REMARK    3  A    between atoms: N1_5  and  C5_6 
REMARK    4  A    between atoms: N1_5  and  S1_28 
REMARK    5  A    between atoms: C5_6  and  C6_7 
REMARK    6  A    between atoms: C6_7  and  O1_8 
REMARK    7  A    between atoms: C6_7  and  C7_10 
REMARK    8  A    between atoms: C7_10  and  C8_11 
REMARK    9  A    between atoms: C7_10  and  N2_18 
REMARK   10  A    between atoms: C8_11  and  C9_12 
REMARK       I    between atoms: N2_18  and  C15_20 
REMARK   11  A    between atoms: C15_20  and  O3_22 
REMARK   12  A    between atoms: O3_22  and  C16_23 
REMARK   13  A    between atoms: S1_28  and  C20_31 
ROOT
HETATM    1  C6  UNL     1      10.249  17.586   7.354  1.00  0.00     0.160 C 
ENDROOT
BRANCH   1   2
HETATM    2  C5  UNL     1      10.162  17.289   8.803  1.00  0.00     0.174 C 
BRANCH   2   3
HETATM    3  N1  UNL     1       8.920  16.878   9.338  1.00  0.00    -0.283 N 
BRANCH   3   4
HETATM    4  C4  UNL     1       8.099  17.871   9.905  1.00  0.00     0.080 C 
BRANCH   4   5
HETATM    5  C2  UNL     1       6.741  18.045   9.279  1.00  0.00     0.017 C 
HETATM    6  C1  UNL     1       6.560  17.405   7.947  1.00  0.00     0.015 C 
HETATM    7  C3  UNL     1       6.316  19.505   9.282  1.00  0.00     0.015 C 
ENDBRANCH   4   5
ENDBRANCH   3   4
BRANCH   3   8
HETATM    8  S1  UNL     1       8.947  15.442  10.213  1.00  0.00     0.264 S 
HETATM    9  O5  UNL     1       7.713  14.621   9.932  1.00  0.00    -0.200 OA
HETATM   10  O6  UNL     1      10.112  14.569   9.713  1.00  0.00    -0.200 OA
BRANCH   8  11
HETATM   11  C20 UNL     1       9.121  15.616  11.945  1.00  0.00     0.080 A 
HETATM   12  C21 UNL     1       8.144  15.267  12.849  1.00  0.00     0.027 A 
HETATM   13  C22 UNL     1       8.344  15.415  14.220  1.00  0.00     0.028 A 
HETATM   14  C23 UNL     1       9.522  15.914  14.735  1.00  0.00     0.046 A 
HETATM   15  N3  UNL     1       9.703  16.056  16.140  1.00  0.00    -0.102 NA
HETATM   16  C24 UNL     1      10.503  16.264  13.831  1.00  0.00     0.028 A 
HETATM   17  C25 UNL     1      10.311  16.120  12.475  1.00  0.00     0.027 A 
ENDBRANCH   8  11
ENDBRANCH   3   8
ENDBRANCH   2   3
ENDBRANCH   1   2
BRANCH   1  18
HETATM   18  O1  UNL     1      11.206  18.517   6.997  1.00  0.00    -0.392 OA
ATOM     19  H1  UNL     1      11.440  18.528   6.077  1.00  0.00     0.210 HD
ENDBRANCH   1  18
BRANCH   1  20
HETATM   20  C7  UNL     1      10.550  16.315   6.533  1.00  0.00     0.121 C 
BRANCH  20  21
HETATM   21  C8  UNL     1      12.048  16.165   6.466  1.00  0.00     0.066 C 
BRANCH  21  22
HETATM   22  C9  UNL     1      12.501  14.917   7.152  1.00  0.00    -0.056 A 
HETATM   23  C10 UNL     1      13.468  14.958   8.128  1.00  0.00     0.007 A 
HETATM   24  C11 UNL     1      13.890  13.789   8.768  1.00  0.00     0.001 A 
HETATM   25  C12 UNL     1      13.326  12.590   8.414  1.00  0.00     0.000 A 
HETATM   26  C13 UNL     1      12.361  12.521   7.446  1.00  0.00     0.001 A 
HETATM   27  C14 UNL     1      11.961  13.693   6.827  1.00  0.00     0.007 A 
ENDBRANCH  21  22
ENDBRANCH  20  21
BRANCH  20  28
HETATM   28  N2  UNL     1      10.137  16.682   5.168  1.00  0.00    -0.329 N 
HETATM   29  C15 UNL     1       9.563  15.728   4.306  1.00  0.00     0.361 C 
HETATM   30  O2  UNL     1       9.423  14.556   4.748  1.00  0.00    -0.238 OA
ATOM     31  H2  UNL     1      10.269  17.640   4.842  1.00  0.00     0.165 HD
BRANCH  29  32
HETATM   32  O3  UNL     1       9.146  16.013   3.003  1.00  0.00    -0.296 OA
BRANCH  32  33
HETATM   33  C16 UNL     1      10.062  16.558   2.059  1.00  0.00     0.159 C 
HETATM   34  C17 UNL     1      11.442  15.950   2.218  1.00  0.00     0.061 C 
HETATM   35  C18 UNL     1      11.598  15.073   1.006  1.00  0.00     0.170 C 
HETATM   36  O4  UNL     1      10.892  15.801   0.036  1.00  0.00    -0.389 OA
HETATM   37  C19 UNL     1       9.673  16.078   0.681  1.00  0.00     0.200 C 
ENDBRANCH  32  33
ENDBRANCH  29  32
ENDBRANCH  20  28
ENDBRANCH   1  20
TORSDOF 13
ENDMDL
