MODEL 3
REMARK VINA RESULT: -8.653739313      3.125      8.631
REMARK  13 active torsions:
REMARK  status: ('A' for Active; 'I' for Inactive)
REMARK    1  A    between atoms: C2_2  and  C4_4 
REMARK    2  A    between atoms: C4_4  and  N1_5 
REMARK    3  A    between atoms: N1_5  and  C5_6 
REMARK    4  A    between atoms: N1_5  and  S1_28 
REMARK    5  A    between atoms: C5_6  and  C6_7 
REMARK    6  A    between atoms: C6_7  and  O1_8 
REMARK    7  A    between atoms: C6_7  and  C7_10 
REMARK    8  A    between atoms: C7_10  and  C8_11 
REMARK    9  A    between atoms: C7_10  and  N2_18 
REMARK   10  A    between atoms: C8_11  and  C9_12 
REMARK       I    between atoms: N2_18  and  C15_20 
REMARK   11  A    between atoms: C15_20  and  O3_22 
REMARK   12  A    between atoms: O3_22  and  C16_23 
REMARK   13  A    between atoms: S1_28  and  C20_31 
ROOT
HETATM    1  C6  UNL     1      10.375  17.266   7.309  1.00  0.00     0.160 C 
ENDROOT
BRANCH   1   2
HETATM    2  C5  UNL     1      11.431  16.236   7.172  1.00  0.00     0.174 C 
BRANCH   2   3
HETATM    3  N1  UNL     1      11.934  15.620   8.340  1.00  0.00    -0.283 N 
BRANCH   3   4
HETATM    4  C4  UNL     1      13.210  15.032   8.264  1.00  0.00     0.080 C 
BRANCH   4   5
HETATM    5  C2  UNL     1      13.525  14.290   6.992  1.00  0.00     0.017 C 
HETATM    6  C1  UNL     1      13.307  12.819   7.036  1.00  0.00     0.015 C 
HETATM    7  C3  UNL     1      14.905  14.656   6.469  1.00  0.00     0.015 C 
ENDBRANCH   4   5
ENDBRANCH   3   4
BRANCH   3   8
HETATM    8  S1  UNL     1      10.823  14.712   9.218  1.00  0.00     0.264 S 
HETATM    9  O5  UNL     1       9.901  13.955   8.294  1.00  0.00    -0.200 OA
HETATM   10  O6  UNL     1      11.573  13.614   9.997  1.00  0.00    -0.200 OA
BRANCH   8  11
HETATM   11  C20 UNL     1       9.854  15.607  10.366  1.00  0.00     0.080 A 
HETATM   12  C21 UNL     1       8.587  15.234  10.750  1.00  0.00     0.027 A 
HETATM   13  C22 UNL     1       7.866  15.980  11.681  1.00  0.00     0.028 A 
HETATM   14  C23 UNL     1       8.384  17.121  12.258  1.00  0.00     0.046 A 
HETATM   15  N3  UNL     1       7.628  17.867  13.207  1.00  0.00    -0.102 NA
HETATM   16  C24 UNL     1       9.654  17.497  11.875  1.00  0.00     0.028 A 
HETATM   17  C25 UNL     1      10.371  16.764  10.956  1.00  0.00     0.027 A 
ENDBRANCH   8  11
ENDBRANCH   3   8
ENDBRANCH   2   3
ENDBRANCH   1   2
BRANCH   1  18
HETATM   18  O1  UNL     1      10.768  18.558   7.017  1.00  0.00    -0.392 OA
ATOM     19  H1  UNL     1      10.612  19.196   7.704  1.00  0.00     0.210 HD
ENDBRANCH   1  18
BRANCH   1  20
HETATM   20  C7  UNL     1       9.167  16.961   6.398  1.00  0.00     0.121 C 
BRANCH  20  21
HETATM   21  C8  UNL     1       8.090  16.357   7.264  1.00  0.00     0.066 C 
BRANCH  21  22
HETATM   22  C9  UNL     1       7.190  17.411   7.824  1.00  0.00    -0.056 A 
HETATM   23  C10 UNL     1       5.879  17.507   7.422  1.00  0.00     0.007 A 
HETATM   24  C11 UNL     1       5.039  18.494   7.947  1.00  0.00     0.001 A 
HETATM   25  C12 UNL     1       5.537  19.373   8.876  1.00  0.00     0.000 A 
HETATM   26  C13 UNL     1       6.838  19.299   9.293  1.00  0.00     0.001 A 
HETATM   27  C14 UNL     1       7.649  18.312   8.758  1.00  0.00     0.007 A 
ENDBRANCH  21  22
ENDBRANCH  20  21
BRANCH  20  28
HETATM   28  N2  UNL     1       9.646  15.856   5.551  1.00  0.00    -0.329 N 
HETATM   29  C15 UNL     1       9.631  15.964   4.147  1.00  0.00     0.361 C 
HETATM   30  O2  UNL     1       9.190  17.035   3.652  1.00  0.00    -0.238 OA
ATOM     31  H2  UNL     1       9.993  15.001   5.986  1.00  0.00     0.165 HD
BRANCH  29  32
HETATM   32  O3  UNL     1      10.075  14.955   3.288  1.00  0.00    -0.296 OA
BRANCH  32  33
HETATM   33  C16 UNL     1      11.248  15.145   2.503  1.00  0.00     0.159 C 
HETATM   34  C17 UNL     1      12.474  15.313   3.379  1.00  0.00     0.061 C 
HETATM   35  C18 UNL     1      13.241  14.034   3.185  1.00  0.00     0.170 C 
HETATM   36  O4  UNL     1      12.959  13.734   1.843  1.00  0.00    -0.389 OA
HETATM   37  C19 UNL     1      11.558  13.852   1.786  1.00  0.00     0.200 C 
ENDBRANCH  32  33
ENDBRANCH  29  32
ENDBRANCH  20  28
ENDBRANCH   1  20
TORSDOF 13
ENDMDL
