MODEL 2
REMARK VINA RESULT: -8.820056608      2.496      7.092
REMARK  13 active torsions:
REMARK  status: ('A' for Active; 'I' for Inactive)
REMARK    1  A    between atoms: C2_2  and  C4_4 
REMARK    2  A    between atoms: C4_4  and  N1_5 
REMARK    3  A    between atoms: N1_5  and  C5_6 
REMARK    4  A    between atoms: N1_5  and  S1_28 
REMARK    5  A    between atoms: C5_6  and  C6_7 
REMARK    6  A    between atoms: C6_7  and  O1_8 
REMARK    7  A    between atoms: C6_7  and  C7_10 
REMARK    8  A    between atoms: C7_10  and  C8_11 
REMARK    9  A    between atoms: C7_10  and  N2_18 
REMARK   10  A    between atoms: C8_11  and  C9_12 
REMARK       I    between atoms: N2_18  and  C15_20 
REMARK   11  A    between atoms: C15_20  and  O3_22 
REMARK   12  A    between atoms: O3_22  and  C16_23 
REMARK   13  A    between atoms: S1_28  and  C20_31 
ROOT
HETATM    1  C6  UNL     1       9.582  18.131   8.991  1.00  0.00     0.160 C 
ENDROOT
BRANCH   1   2
HETATM    2  C5  UNL     1       8.785  17.781  10.190  1.00  0.00     0.174 C 
BRANCH   2   3
HETATM    3  N1  UNL     1       7.382  17.939  10.143  1.00  0.00    -0.283 N 
BRANCH   3   4
HETATM    4  C4  UNL     1       6.868  18.907   9.261  1.00  0.00     0.080 C 
BRANCH   4   5
HETATM    5  C2  UNL     1       6.059  18.388   8.103  1.00  0.00     0.017 C 
HETATM    6  C1  UNL     1       4.620  18.772   8.101  1.00  0.00     0.015 C 
HETATM    7  C3  UNL     1       6.259  16.891   7.919  1.00  0.00     0.015 C 
ENDBRANCH   4   5
ENDBRANCH   3   4
BRANCH   3   8
HETATM    8  S1  UNL     1       6.597  17.895  11.630  1.00  0.00     0.264 S 
HETATM    9  O5  UNL     1       6.073  19.260  12.000  1.00  0.00    -0.200 OA
HETATM   10  O6  UNL     1       5.335  17.019  11.508  1.00  0.00    -0.200 OA
BRANCH   8  11
HETATM   11  C20 UNL     1       7.542  17.277  12.966  1.00  0.00     0.080 A 
HETATM   12  C21 UNL     1       7.973  15.974  13.058  1.00  0.00     0.027 A 
HETATM   13  C22 UNL     1       8.736  15.541  14.140  1.00  0.00     0.028 A 
HETATM   14  C23 UNL     1       9.097  16.392  15.164  1.00  0.00     0.046 A 
HETATM   15  N3  UNL     1       9.877  15.926  16.260  1.00  0.00    -0.102 NA
HETATM   16  C24 UNL     1       8.667  17.699  15.074  1.00  0.00     0.028 A 
HETATM   17  C25 UNL     1       7.912  18.132  14.007  1.00  0.00     0.027 A 
ENDBRANCH   8  11
ENDBRANCH   3   8
ENDBRANCH   2   3
ENDBRANCH   1   2
BRANCH   1  18
HETATM   18  O1  UNL     1      10.678  18.940   9.224  1.00  0.00    -0.392 OA
ATOM     19  H1  UNL     1      10.923  19.509   8.504  1.00  0.00     0.210 HD
ENDBRANCH   1  18
BRANCH   1  20
HETATM   20  C7  UNL     1      10.115  16.870   8.278  1.00  0.00     0.121 C 
BRANCH  20  21
HETATM   21  C8  UNL     1      11.618  16.897   8.379  1.00  0.00     0.066 C 
BRANCH  21  22
HETATM   22  C9  UNL     1      12.176  15.519   8.535  1.00  0.00    -0.056 A 
HETATM   23  C10 UNL     1      11.413  14.504   9.064  1.00  0.00     0.007 A 
HETATM   24  C11 UNL     1      11.937  13.216   9.210  1.00  0.00     0.001 A 
HETATM   25  C12 UNL     1      13.228  12.969   8.817  1.00  0.00     0.000 A 
HETATM   26  C13 UNL     1      14.008  13.961   8.288  1.00  0.00     0.001 A 
HETATM   27  C14 UNL     1      13.466  15.227   8.154  1.00  0.00     0.007 A 
ENDBRANCH  21  22
ENDBRANCH  20  21
BRANCH  20  28
HETATM   28  N2  UNL     1       9.818  17.127   6.858  1.00  0.00    -0.329 N 
HETATM   29  C15 UNL     1       9.272  16.119   6.041  1.00  0.00     0.361 C 
HETATM   30  O2  UNL     1       9.055  14.997   6.570  1.00  0.00    -0.238 OA
ATOM     31  H2  UNL     1      10.011  18.047   6.462  1.00  0.00     0.165 HD
BRANCH  29  32
HETATM   32  O3  UNL     1       8.964  16.300   4.690  1.00  0.00    -0.296 OA
BRANCH  32  33
HETATM   33  C16 UNL     1       9.670  15.573   3.688  1.00  0.00     0.159 C 
HETATM   34  C17 UNL     1       9.268  16.024   2.298  1.00  0.00     0.061 C 
HETATM   35  C18 UNL     1      10.471  16.773   1.794  1.00  0.00     0.170 C 
HETATM   36  O4  UNL     1      11.522  16.057   2.389  1.00  0.00    -0.389 OA
HETATM   37  C19 UNL     1      11.123  15.981   3.736  1.00  0.00     0.200 C 
ENDBRANCH  32  33
ENDBRANCH  29  32
ENDBRANCH  20  28
ENDBRANCH   1  20
TORSDOF 13
ENDMDL
