MODEL 5
REMARK VINA RESULT: -8.542446198      1.717      5.291
REMARK  13 active torsions:
REMARK  status: ('A' for Active; 'I' for Inactive)
REMARK    1  A    between atoms: C2_2  and  C4_4 
REMARK    2  A    between atoms: C4_4  and  N1_5 
REMARK    3  A    between atoms: N1_5  and  C5_6 
REMARK    4  A    between atoms: N1_5  and  S1_28 
REMARK    5  A    between atoms: C5_6  and  C6_7 
REMARK    6  A    between atoms: C6_7  and  O1_8 
REMARK    7  A    between atoms: C6_7  and  C7_10 
REMARK    8  A    between atoms: C7_10  and  C8_11 
REMARK    9  A    between atoms: C7_10  and  N2_18 
REMARK   10  A    between atoms: C8_11  and  C9_12 
REMARK       I    between atoms: N2_18  and  C15_20 
REMARK   11  A    between atoms: C15_20  and  O3_22 
REMARK   12  A    between atoms: O3_22  and  C16_23 
REMARK   13  A    between atoms: S1_28  and  C20_31 
ROOT
HETATM    1  C6  UNL     1       9.464  17.544  10.403  1.00  0.00     0.160 C 
ENDROOT
BRANCH   1   2
HETATM    2  C5  UNL     1       8.022  17.885  10.419  1.00  0.00     0.174 C 
BRANCH   2   3
HETATM    3  N1  UNL     1       7.434  18.405   9.243  1.00  0.00    -0.283 N 
BRANCH   3   4
HETATM    4  C4  UNL     1       6.425  19.373   9.398  1.00  0.00     0.080 C 
BRANCH   4   5
HETATM    5  C2  UNL     1       5.586  19.265  10.643  1.00  0.00     0.017 C 
HETATM    6  C1  UNL     1       4.415  18.349  10.552  1.00  0.00     0.015 C 
HETATM    7  C3  UNL     1       5.206  20.639  11.173  1.00  0.00     0.015 C 
ENDBRANCH   4   5
ENDBRANCH   3   4
BRANCH   3   8
HETATM    8  S1  UNL     1       7.113  17.281   8.034  1.00  0.00     0.264 S 
HETATM    9  O5  UNL     1       6.513  16.025   8.616  1.00  0.00    -0.200 OA
HETATM   10  O6  UNL     1       6.017  17.837   7.107  1.00  0.00    -0.200 OA
BRANCH   8  11
HETATM   11  C20 UNL     1       8.478  16.837   7.034  1.00  0.00     0.080 A 
HETATM   12  C21 UNL     1       9.651  17.555   6.982  1.00  0.00     0.027 A 
HETATM   13  C22 UNL     1      10.711  17.146   6.176  1.00  0.00     0.028 A 
HETATM   14  C23 UNL     1      10.638  16.009   5.397  1.00  0.00     0.046 A 
HETATM   15  N3  UNL     1      11.736  15.612   4.581  1.00  0.00    -0.102 NA
HETATM   16  C24 UNL     1       9.464  15.288   5.448  1.00  0.00     0.028 A 
HETATM   17  C25 UNL     1       8.413  15.688   6.243  1.00  0.00     0.027 A 
ENDBRANCH   8  11
ENDBRANCH   3   8
ENDBRANCH   2   3
ENDBRANCH   1   2
BRANCH   1  18
HETATM   18  O1  UNL     1      10.300  18.478  10.985  1.00  0.00    -0.392 OA
ATOM     19  H1  UNL     1       9.896  19.030  11.644  1.00  0.00     0.210 HD
ENDBRANCH   1  18
BRANCH   1  20
HETATM   20  C7  UNL     1       9.736  16.207  11.123  1.00  0.00     0.121 C 
BRANCH  20  21
HETATM   21  C8  UNL     1      10.579  16.510  12.335  1.00  0.00     0.066 C 
BRANCH  21  22
HETATM   22  C9  UNL     1       9.800  16.323  13.597  1.00  0.00    -0.056 A 
HETATM   23  C10 UNL     1      10.388  16.515  14.825  1.00  0.00     0.007 A 
HETATM   24  C11 UNL     1       9.658  16.339  16.005  1.00  0.00     0.001 A 
HETATM   25  C12 UNL     1       8.339  15.971  15.928  1.00  0.00     0.000 A 
HETATM   26  C13 UNL     1       7.730  15.773  14.719  1.00  0.00     0.001 A 
HETATM   27  C14 UNL     1       8.474  15.954  13.566  1.00  0.00     0.007 A 
ENDBRANCH  21  22
ENDBRANCH  20  21
BRANCH  20  28
HETATM   28  N2  UNL     1      10.634  15.495  10.197  1.00  0.00    -0.329 N 
HETATM   29  C15 UNL     1      10.132  14.528   9.305  1.00  0.00     0.361 C 
HETATM   30  O2  UNL     1       8.894  14.297   9.336  1.00  0.00    -0.238 OA
ATOM     31  H2  UNL     1      11.632  15.705  10.203  1.00  0.00     0.165 HD
BRANCH  29  32
HETATM   32  O3  UNL     1      10.929  13.822   8.400  1.00  0.00    -0.296 OA
BRANCH  32  33
HETATM   33  C16 UNL     1      12.326  13.676   8.635  1.00  0.00     0.159 C 
HETATM   34  C17 UNL     1      12.876  12.450   7.932  1.00  0.00     0.061 C 
HETATM   35  C18 UNL     1      13.703  13.012   6.808  1.00  0.00     0.170 C 
HETATM   36  O4  UNL     1      14.205  14.189   7.385  1.00  0.00    -0.389 OA
HETATM   37  C19 UNL     1      13.050  14.791   7.918  1.00  0.00     0.200 C 
ENDBRANCH  32  33
ENDBRANCH  29  32
ENDBRANCH  20  28
ENDBRANCH   1  20
TORSDOF 13
ENDMDL
