MODEL 4
REMARK VINA RESULT: -8.640645433      2.751      7.501
REMARK  13 active torsions:
REMARK  status: ('A' for Active; 'I' for Inactive)
REMARK    1  A    between atoms: C2_2  and  C4_4 
REMARK    2  A    between atoms: C4_4  and  N1_5 
REMARK    3  A    between atoms: N1_5  and  C5_6 
REMARK    4  A    between atoms: N1_5  and  S1_28 
REMARK    5  A    between atoms: C5_6  and  C6_7 
REMARK    6  A    between atoms: C6_7  and  O1_8 
REMARK    7  A    between atoms: C6_7  and  C7_10 
REMARK    8  A    between atoms: C7_10  and  C8_11 
REMARK    9  A    between atoms: C7_10  and  N2_18 
REMARK   10  A    between atoms: C8_11  and  C9_12 
REMARK       I    between atoms: N2_18  and  C15_20 
REMARK   11  A    between atoms: C15_20  and  O3_22 
REMARK   12  A    between atoms: O3_22  and  C16_23 
REMARK   13  A    between atoms: S1_28  and  C20_31 
ROOT
HETATM    1  C6  UNL     1      10.694  17.946   8.028  1.00  0.00     0.160 C 
ENDROOT
BRANCH   1   2
HETATM    2  C5  UNL     1      10.070  18.031   9.369  1.00  0.00     0.174 C 
BRANCH   2   3
HETATM    3  N1  UNL     1       8.846  17.361   9.592  1.00  0.00    -0.283 N 
BRANCH   3   4
HETATM    4  C4  UNL     1       7.672  18.136   9.581  1.00  0.00     0.080 C 
BRANCH   4   5
HETATM    5  C2  UNL     1       6.938  18.212   8.269  1.00  0.00     0.017 C 
HETATM    6  C1  UNL     1       5.510  18.625   8.354  1.00  0.00     0.015 C 
HETATM    7  C3  UNL     1       7.125  16.938   7.459  1.00  0.00     0.015 C 
ENDBRANCH   4   5
ENDBRANCH   3   4
BRANCH   3   8
HETATM    8  S1  UNL     1       8.870  16.187  10.796  1.00  0.00     0.264 S 
HETATM    9  O5  UNL     1       7.781  15.167  10.571  1.00  0.00    -0.200 OA
HETATM   10  O6  UNL     1      10.179  15.382  10.688  1.00  0.00    -0.200 OA
BRANCH   8  11
HETATM   11  C20 UNL     1       8.749  16.783  12.435  1.00  0.00     0.080 A 
HETATM   12  C21 UNL     1       7.785  17.671  12.855  1.00  0.00     0.027 A 
HETATM   13  C22 UNL     1       7.728  18.102  14.178  1.00  0.00     0.028 A 
HETATM   14  C23 UNL     1       8.628  17.662  15.127  1.00  0.00     0.046 A 
HETATM   15  N3  UNL     1       8.550  18.117  16.474  1.00  0.00    -0.102 NA
HETATM   16  C24 UNL     1       9.595  16.771  14.710  1.00  0.00     0.028 A 
HETATM   17  C25 UNL     1       9.656  16.342  13.402  1.00  0.00     0.027 A 
ENDBRANCH   8  11
ENDBRANCH   3   8
ENDBRANCH   2   3
ENDBRANCH   1   2
BRANCH   1  18
HETATM   18  O1  UNL     1      11.882  18.637   7.883  1.00  0.00    -0.392 OA
ATOM     19  H1  UNL     1      12.428  18.360   7.157  1.00  0.00     0.210 HD
ENDBRANCH   1  18
BRANCH   1  20
HETATM   20  C7  UNL     1      10.991  16.483   7.634  1.00  0.00     0.121 C 
BRANCH  20  21
HETATM   21  C8  UNL     1      12.424  16.198   8.005  1.00  0.00     0.066 C 
BRANCH  21  22
HETATM   22  C9  UNL     1      12.806  14.796   7.654  1.00  0.00    -0.056 A 
HETATM   23  C10 UNL     1      13.763  14.543   6.700  1.00  0.00     0.007 A 
HETATM   24  C11 UNL     1      14.118  13.230   6.373  1.00  0.00     0.001 A 
HETATM   25  C12 UNL     1      13.500  12.188   7.017  1.00  0.00     0.000 A 
HETATM   26  C13 UNL     1      12.544  12.413   7.970  1.00  0.00     0.001 A 
HETATM   27  C14 UNL     1      12.211  13.721   8.276  1.00  0.00     0.007 A 
ENDBRANCH  21  22
ENDBRANCH  20  21
BRANCH  20  28
HETATM   28  N2  UNL     1      10.972  16.514   6.162  1.00  0.00    -0.329 N 
HETATM   29  C15 UNL     1      10.196  15.594   5.430  1.00  0.00     0.361 C 
HETATM   30  O2  UNL     1       9.528  14.750   6.084  1.00  0.00    -0.238 OA
ATOM     31  H2  UNL     1      11.529  17.210   5.665  1.00  0.00     0.165 HD
BRANCH  29  32
HETATM   32  O3  UNL     1      10.132  15.574   4.034  1.00  0.00    -0.296 OA
BRANCH  32  33
HETATM   33  C16 UNL     1      11.135  16.223   3.259  1.00  0.00     0.159 C 
HETATM   34  C17 UNL     1      12.267  15.273   2.921  1.00  0.00     0.061 C 
HETATM   35  C18 UNL     1      12.102  15.016   1.448  1.00  0.00     0.170 C 
HETATM   36  O4  UNL     1      11.616  16.252   0.996  1.00  0.00    -0.389 OA
HETATM   37  C19 UNL     1      10.565  16.520   1.893  1.00  0.00     0.200 C 
ENDBRANCH  32  33
ENDBRANCH  29  32
ENDBRANCH  20  28
ENDBRANCH   1  20
TORSDOF 13
ENDMDL
