MODEL 3
REMARK VINA RESULT: -9.428439404      1.163      1.401
REMARK  17 active torsions:
REMARK  status: ('A' for Active; 'I' for Inactive)
REMARK    1  A    between atoms: S1_2  and  C2_3 
REMARK    2  A    between atoms: C2_3  and  C3_4 
REMARK    3  A    between atoms: C3_4  and  N1_5 
REMARK    4  A    between atoms: C3_4  and  C15_22 
REMARK       I    between atoms: N1_5  and  C4_7 
REMARK    5  A    between atoms: C4_7  and  C5_9 
REMARK    6  A    between atoms: C5_9  and  O2_10 
REMARK    7  A    between atoms: O2_10  and  C6_11 
REMARK       I    between atoms: C15_22  and  N3_24 
REMARK    8  A    between atoms: N3_24  and  C16_26 
REMARK    9  A    between atoms: C16_26  and  C17_27 
REMARK   10  A    between atoms: C16_26  and  C24_34 
REMARK   11  A    between atoms: C17_27  and  C18_28 
REMARK   12  A    between atoms: C24_34  and  O4_35 
REMARK   13  A    between atoms: C24_34  and  C25_37 
REMARK   14  A    between atoms: C25_37  and  O5_38 
REMARK   15  A    between atoms: C25_37  and  N4_40 
REMARK   16  A    between atoms: C28_44  and  C29_45 
REMARK       I    between atoms: C29_45  and  N5_47 
REMARK   17  A    between atoms: N5_47  and  C30_49 
ROOT
HETATM    1  C16 UNL     1       4.451   0.284  13.763  1.00  0.00     0.030 C 
ENDROOT
BRANCH   1   2
HETATM    2  N3  UNL     1       5.222   1.366  13.191  1.00  0.00    -0.329 N 
HETATM    3  C15 UNL     1       6.342   1.172  12.336  1.00  0.00     0.245 C 
HETATM    4  O3  UNL     1       6.571  -0.074  12.096  1.00  0.00    -0.271 OA
ATOM      5  H3  UNL     1       4.947   2.323  13.415  1.00  0.00     0.168 HD
BRANCH   3   6
HETATM    6  C3  UNL     1       7.232   2.139  11.731  1.00  0.00     0.186 C 
BRANCH   6   7
HETATM    7  C2  UNL     1       7.512   3.391  12.464  1.00  0.00     0.108 C 
BRANCH   7   8
HETATM    8  S1  UNL     1       7.087   4.963  11.842  1.00  0.00    -0.171 SA
HETATM    9  C1  UNL     1       8.267   5.828  10.870  1.00  0.00     0.089 C 
ENDBRANCH   7   8
ENDBRANCH   6   7
BRANCH   6  10
HETATM   10  N1  UNL     1       6.477   2.605  10.499  1.00  0.00    -0.345 N 
HETATM   11  C4  UNL     1       7.015   2.371   9.239  1.00  0.00     0.242 C 
HETATM   12  O1  UNL     1       8.096   1.787   9.080  1.00  0.00    -0.271 OA
ATOM     13  H1  UNL     1       5.582   3.085  10.595  1.00  0.00     0.163 HD
BRANCH  11  14
HETATM   14  C5  UNL     1       6.274   2.837   8.011  1.00  0.00     0.278 C 
BRANCH  14  15
HETATM   15  O2  UNL     1       5.259   3.742   8.384  1.00  0.00    -0.341 OA
BRANCH  15  16
HETATM   16  C6  UNL     1       4.070   3.814   7.709  1.00  0.00     0.080 A 
HETATM   17  C7  UNL     1       3.914   3.810   6.343  1.00  0.00     0.038 A 
HETATM   18  C8  UNL     1       2.690   3.882   5.718  1.00  0.00     0.004 A 
HETATM   19  C9  UNL     1       1.553   3.966   6.516  1.00  0.00     0.014 A 
HETATM   20  C10 UNL     1       1.642   3.975   7.903  1.00  0.00    -0.008 A 
HETATM   21  C11 UNL     1       0.497   4.065   8.677  1.00  0.00     0.100 A 
HETATM   22  C14 UNL     1       2.888   3.899   8.455  1.00  0.00     0.010 A 
HETATM   23  N2  UNL     1       0.623   4.079  10.033  1.00  0.00    -0.374 N 
HETATM   24  C12 UNL     1       1.839   4.006  10.601  1.00  0.00     0.088 A 
ATOM     25  H2  UNL     1      -0.208   4.146  10.620  1.00  0.00     0.164 HD
HETATM   26  C13 UNL     1       2.983   3.916   9.847  1.00  0.00     0.032 A 
ENDBRANCH  15  16
ENDBRANCH  14  15
ENDBRANCH  11  14
ENDBRANCH   6  10
ENDBRANCH   3   6
ENDBRANCH   1   2
BRANCH   1  27
HETATM   27  C17 UNL     1       3.876  -0.635  12.741  1.00  0.00     0.094 C 
BRANCH  27  28
HETATM   28  C18 UNL     1       2.579  -0.154  12.210  1.00  0.00    -0.053 A 
HETATM   29  C19 UNL     1       2.220  -0.079  10.904  1.00  0.00     0.007 A 
HETATM   30  C20 UNL     1       0.991   0.404  10.477  1.00  0.00     0.001 A 
HETATM   31  C21 UNL     1       0.079   0.834  11.414  1.00  0.00     0.000 A 
HETATM   32  C22 UNL     1       0.412   0.772  12.754  1.00  0.00     0.001 A 
HETATM   33  C23 UNL     1       1.649   0.283  13.151  1.00  0.00     0.007 A 
ENDBRANCH  27  28
ENDBRANCH   1  27
BRANCH   1  34
HETATM   34  C24 UNL     1       4.871  -0.285  15.052  1.00  0.00     0.238 C 
BRANCH  34  35
HETATM   35  O4  UNL     1       5.196   0.875  15.859  1.00  0.00    -0.382 OA
ATOM     36  H4  UNL     1       5.989   0.622  16.317  1.00  0.00     0.211 HD
ENDBRANCH  34  35
BRANCH  34  37
HETATM   37  C25 UNL     1       6.010  -1.162  15.191  1.00  0.00     0.150 C 
BRANCH  37  38
HETATM   38  O5  UNL     1       7.169  -0.543  15.106  1.00  0.00    -0.347 OA
ATOM     39  H5  UNL     1       7.767  -0.752  15.814  1.00  0.00     0.219 HD
ENDBRANCH  37  38
BRANCH  37  40
HETATM   40  N4  UNL     1       6.075  -2.563  15.408  1.00  0.00    -0.340 N 
HETATM   41  C26 UNL     1       5.532  -3.517  14.453  1.00  0.00     0.199 C 
HETATM   42  S2  UNL     1       4.710  -4.631  15.629  1.00  0.00    -0.147 SA
HETATM   43  C27 UNL     1       5.511  -4.000  17.132  1.00  0.00     0.110 C 
HETATM   44  C28 UNL     1       6.679  -3.239  16.494  1.00  0.00     0.188 C 
BRANCH  44  45
HETATM   45  C29 UNL     1       7.796  -4.149  16.182  1.00  0.00     0.242 C 
HETATM   46  O6  UNL     1       8.723  -3.695  15.413  1.00  0.00    -0.271 OA
HETATM   47  N5  UNL     1       7.994  -5.464  16.619  1.00  0.00    -0.351 N 
ATOM     48  H5  UNL     1       7.298  -5.886  17.235  1.00  0.00     0.163 HD
BRANCH  47  49
HETATM   49  C30 UNL     1       9.155  -6.253  16.228  1.00  0.00     0.022 C 
HETATM   50  C31 UNL     1       8.978  -7.646  16.782  1.00  0.00     0.037 C 
HETATM   51  C32 UNL     1       9.307  -6.380  14.747  1.00  0.00     0.037 C 
HETATM   52  C33 UNL     1      10.422  -5.703  16.835  1.00  0.00     0.037 C 
ENDBRANCH  47  49
ENDBRANCH  44  45
ENDBRANCH  37  40
ENDBRANCH  34  37
ENDBRANCH   1  34
TORSDOF 17
ENDMDL
