MODEL 4
REMARK VINA RESULT: -9.363314246      1.161      2.054
REMARK  17 active torsions:
REMARK  status: ('A' for Active; 'I' for Inactive)
REMARK    1  A    between atoms: S1_2  and  C2_3 
REMARK    2  A    between atoms: C2_3  and  C3_4 
REMARK    3  A    between atoms: C3_4  and  N1_5 
REMARK    4  A    between atoms: C3_4  and  C15_22 
REMARK       I    between atoms: N1_5  and  C4_7 
REMARK    5  A    between atoms: C4_7  and  C5_9 
REMARK    6  A    between atoms: C5_9  and  O2_10 
REMARK    7  A    between atoms: O2_10  and  C6_11 
REMARK       I    between atoms: C15_22  and  N3_24 
REMARK    8  A    between atoms: N3_24  and  C16_26 
REMARK    9  A    between atoms: C16_26  and  C17_27 
REMARK   10  A    between atoms: C16_26  and  C24_34 
REMARK   11  A    between atoms: C17_27  and  C18_28 
REMARK   12  A    between atoms: C24_34  and  O4_35 
REMARK   13  A    between atoms: C24_34  and  C25_37 
REMARK   14  A    between atoms: C25_37  and  O5_38 
REMARK   15  A    between atoms: C25_37  and  N4_40 
REMARK   16  A    between atoms: C28_44  and  C29_45 
REMARK       I    between atoms: C29_45  and  N5_47 
REMARK   17  A    between atoms: N5_47  and  C30_49 
ROOT
HETATM    1  C16 UNL     1       3.887  -0.111  13.253  1.00  0.00     0.030 C 
ENDROOT
BRANCH   1   2
HETATM    2  N3  UNL     1       5.049   0.133  12.428  1.00  0.00    -0.329 N 
HETATM    3  C15 UNL     1       5.294   1.361  11.753  1.00  0.00     0.245 C 
HETATM    4  O3  UNL     1       4.387   2.246  11.989  1.00  0.00    -0.271 OA
ATOM      5  H3  UNL     1       5.731  -0.618  12.323  1.00  0.00     0.168 HD
BRANCH   3   6
HETATM    6  C3  UNL     1       6.373   1.738  10.865  1.00  0.00     0.186 C 
BRANCH   6   7
HETATM    7  C2  UNL     1       7.548   2.424  11.439  1.00  0.00     0.108 C 
BRANCH   7   8
HETATM    8  S1  UNL     1       7.464   4.022  12.131  1.00  0.00    -0.171 SA
HETATM    9  C1  UNL     1       7.871   5.398  11.118  1.00  0.00     0.089 C 
ENDBRANCH   7   8
ENDBRANCH   6   7
BRANCH   6  10
HETATM   10  N1  UNL     1       5.749   2.787   9.962  1.00  0.00    -0.345 N 
HETATM   11  C4  UNL     1       6.163   2.883   8.639  1.00  0.00     0.242 C 
HETATM   12  O1  UNL     1       7.026   2.135   8.161  1.00  0.00    -0.271 OA
ATOM     13  H1  UNL     1       5.032   3.416  10.324  1.00  0.00     0.163 HD
BRANCH  11  14
HETATM   14  C5  UNL     1       5.552   3.928   7.739  1.00  0.00     0.278 C 
BRANCH  14  15
HETATM   15  O2  UNL     1       4.387   3.413   7.136  1.00  0.00    -0.341 OA
BRANCH  15  16
HETATM   16  C6  UNL     1       3.138   3.850   7.486  1.00  0.00     0.080 A 
HETATM   17  C7  UNL     1       2.709   4.140   8.759  1.00  0.00     0.038 A 
HETATM   18  C8  UNL     1       1.438   4.580   9.052  1.00  0.00     0.004 A 
HETATM   19  C9  UNL     1       0.543   4.736   7.999  1.00  0.00     0.014 A 
HETATM   20  C10 UNL     1       0.912   4.460   6.688  1.00  0.00    -0.008 A 
HETATM   21  C11 UNL     1       0.002   4.617   5.656  1.00  0.00     0.100 A 
HETATM   22  C14 UNL     1       2.189   4.029   6.470  1.00  0.00     0.010 A 
HETATM   23  N2  UNL     1       0.397   4.329   4.385  1.00  0.00    -0.374 N 
HETATM   24  C12 UNL     1       1.649   3.903   4.145  1.00  0.00     0.088 A 
ATOM     25  H2  UNL     1      -0.260   4.437   3.612  1.00  0.00     0.164 HD
HETATM   26  C13 UNL     1       2.562   3.743   5.157  1.00  0.00     0.032 A 
ENDBRANCH  15  16
ENDBRANCH  14  15
ENDBRANCH  11  14
ENDBRANCH   6  10
ENDBRANCH   3   6
ENDBRANCH   1   2
BRANCH   1  27
HETATM   27  C17 UNL     1       2.785  -0.806  12.530  1.00  0.00     0.094 C 
BRANCH  27  28
HETATM   28  C18 UNL     1       1.744   0.130  12.046  1.00  0.00    -0.053 A 
HETATM   29  C19 UNL     1       0.890   0.854  12.812  1.00  0.00     0.007 A 
HETATM   30  C20 UNL     1      -0.077   1.700  12.286  1.00  0.00     0.001 A 
HETATM   31  C21 UNL     1      -0.189   1.821  10.919  1.00  0.00     0.000 A 
HETATM   32  C22 UNL     1       0.665   1.097  10.109  1.00  0.00     0.001 A 
HETATM   33  C23 UNL     1       1.623   0.260  10.663  1.00  0.00     0.007 A 
ENDBRANCH  27  28
ENDBRANCH   1  27
BRANCH   1  34
HETATM   34  C24 UNL     1       4.077  -0.407  14.680  1.00  0.00     0.238 C 
BRANCH  34  35
HETATM   35  O4  UNL     1       4.067   0.897  15.314  1.00  0.00    -0.382 OA
ATOM     36  H4  UNL     1       4.694   0.813  16.024  1.00  0.00     0.211 HD
ENDBRANCH  34  35
BRANCH  34  37
HETATM   37  C25 UNL     1       5.257  -1.061  15.198  1.00  0.00     0.150 C 
BRANCH  37  38
HETATM   38  O5  UNL     1       6.217  -0.226  15.539  1.00  0.00    -0.347 OA
ATOM     39  H5  UNL     1       6.983  -0.654  15.904  1.00  0.00     0.219 HD
ENDBRANCH  37  38
BRANCH  37  40
HETATM   40  N4  UNL     1       5.537  -2.437  15.398  1.00  0.00    -0.340 N 
HETATM   41  C26 UNL     1       5.200  -3.445  14.405  1.00  0.00     0.199 C 
HETATM   42  S2  UNL     1       4.515  -4.701  15.524  1.00  0.00    -0.147 SA
HETATM   43  C27 UNL     1       5.132  -3.983  17.073  1.00  0.00     0.110 C 
HETATM   44  C28 UNL     1       6.191  -3.030  16.504  1.00  0.00     0.188 C 
BRANCH  44  45
HETATM   45  C29 UNL     1       7.453  -3.742  16.236  1.00  0.00     0.242 C 
HETATM   46  O6  UNL     1       8.390  -3.075  15.658  1.00  0.00    -0.271 OA
HETATM   47  N5  UNL     1       7.782  -5.070  16.532  1.00  0.00    -0.351 N 
ATOM     48  H5  UNL     1       7.086  -5.657  16.993  1.00  0.00     0.163 HD
BRANCH  47  49
HETATM   49  C30 UNL     1       9.080  -5.647  16.206  1.00  0.00     0.022 C 
HETATM   50  C31 UNL     1       9.068  -7.093  16.641  1.00  0.00     0.037 C 
HETATM   51  C32 UNL     1       9.381  -5.625  14.742  1.00  0.00     0.037 C 
HETATM   52  C33 UNL     1      10.189  -4.972  16.975  1.00  0.00     0.037 C 
ENDBRANCH  47  49
ENDBRANCH  44  45
ENDBRANCH  37  40
ENDBRANCH  34  37
ENDBRANCH   1  34
TORSDOF 17
ENDMDL
