MODEL 1
REMARK VINA RESULT: -9.493402505      0.000      0.000
REMARK  17 active torsions:
REMARK  status: ('A' for Active; 'I' for Inactive)
REMARK    1  A    between atoms: S1_2  and  C2_3 
REMARK    2  A    between atoms: C2_3  and  C3_4 
REMARK    3  A    between atoms: C3_4  and  N1_5 
REMARK    4  A    between atoms: C3_4  and  C15_22 
REMARK       I    between atoms: N1_5  and  C4_7 
REMARK    5  A    between atoms: C4_7  and  C5_9 
REMARK    6  A    between atoms: C5_9  and  O2_10 
REMARK    7  A    between atoms: O2_10  and  C6_11 
REMARK       I    between atoms: C15_22  and  N3_24 
REMARK    8  A    between atoms: N3_24  and  C16_26 
REMARK    9  A    between atoms: C16_26  and  C17_27 
REMARK   10  A    between atoms: C16_26  and  C24_34 
REMARK   11  A    between atoms: C17_27  and  C18_28 
REMARK   12  A    between atoms: C24_34  and  O4_35 
REMARK   13  A    between atoms: C24_34  and  C25_37 
REMARK   14  A    between atoms: C25_37  and  O5_38 
REMARK   15  A    between atoms: C25_37  and  N4_40 
REMARK   16  A    between atoms: C28_44  and  C29_45 
REMARK       I    between atoms: C29_45  and  N5_47 
REMARK   17  A    between atoms: N5_47  and  C30_49 
ROOT
HETATM    1  C16 UNL     1       3.933  -0.126  13.317  1.00  0.00     0.030 C 
ENDROOT
BRANCH   1   2
HETATM    2  N3  UNL     1       5.204   0.169  12.693  1.00  0.00    -0.329 N 
HETATM    3  C15 UNL     1       5.459   1.349  11.941  1.00  0.00     0.245 C 
HETATM    4  O3  UNL     1       4.446   2.146  11.910  1.00  0.00    -0.271 OA
ATOM      5  H3  UNL     1       5.960  -0.508  12.797  1.00  0.00     0.168 HD
BRANCH   3   6
HETATM    6  C3  UNL     1       6.648   1.761  11.226  1.00  0.00     0.186 C 
BRANCH   6   7
HETATM    7  C2  UNL     1       7.451   2.871  11.778  1.00  0.00     0.108 C 
BRANCH   7   8
HETATM    8  S1  UNL     1       7.005   4.545  11.585  1.00  0.00    -0.171 SA
HETATM    9  C1  UNL     1       7.822   5.495  10.355  1.00  0.00     0.089 C 
ENDBRANCH   7   8
ENDBRANCH   6   7
BRANCH   6  10
HETATM   10  N1  UNL     1       6.110   2.321   9.921  1.00  0.00    -0.345 N 
HETATM   11  C4  UNL     1       6.807   2.090   8.741  1.00  0.00     0.242 C 
HETATM   12  O1  UNL     1       7.858   1.435   8.710  1.00  0.00    -0.271 OA
ATOM     13  H1  UNL     1       5.245   2.861   9.911  1.00  0.00     0.163 HD
BRANCH  11  14
HETATM   14  C5  UNL     1       6.282   2.649   7.442  1.00  0.00     0.278 C 
BRANCH  14  15
HETATM   15  O2  UNL     1       5.323   3.648   7.708  1.00  0.00    -0.341 OA
BRANCH  15  16
HETATM   16  C6  UNL     1       4.159   3.742   6.992  1.00  0.00     0.080 A 
HETATM   17  C7  UNL     1       4.037   3.617   5.629  1.00  0.00     0.038 A 
HETATM   18  C8  UNL     1       2.837   3.719   4.962  1.00  0.00     0.004 A 
HETATM   19  C9  UNL     1       1.691   3.964   5.712  1.00  0.00     0.014 A 
HETATM   20  C10 UNL     1       1.747   4.102   7.093  1.00  0.00    -0.008 A 
HETATM   21  C11 UNL     1       0.594   4.352   7.819  1.00  0.00     0.100 A 
HETATM   22  C14 UNL     1       2.969   3.987   7.689  1.00  0.00     0.010 A 
HETATM   23  N2  UNL     1       0.688   4.488   9.171  1.00  0.00    -0.374 N 
HETATM   24  C12 UNL     1       1.881   4.380   9.781  1.00  0.00     0.088 A 
ATOM     25  H2  UNL     1      -0.150   4.674   9.722  1.00  0.00     0.164 HD
HETATM   26  C13 UNL     1       3.032   4.132   9.075  1.00  0.00     0.032 A 
ENDBRANCH  15  16
ENDBRANCH  14  15
ENDBRANCH  11  14
ENDBRANCH   6  10
ENDBRANCH   3   6
ENDBRANCH   1   2
BRANCH   1  27
HETATM   27  C17 UNL     1       3.011  -0.901  12.440  1.00  0.00     0.094 C 
BRANCH  27  28
HETATM   28  C18 UNL     1       1.920  -0.065  11.884  1.00  0.00    -0.053 A 
HETATM   29  C19 UNL     1       1.677   0.176  10.572  1.00  0.00     0.007 A 
HETATM   30  C20 UNL     1       0.645   0.989  10.123  1.00  0.00     0.001 A 
HETATM   31  C21 UNL     1      -0.183   1.589  11.045  1.00  0.00     0.000 A 
HETATM   32  C22 UNL     1       0.036   1.365  12.391  1.00  0.00     0.001 A 
HETATM   33  C23 UNL     1       1.076   0.546  12.810  1.00  0.00     0.007 A 
ENDBRANCH  27  28
ENDBRANCH   1  27
BRANCH   1  34
HETATM   34  C24 UNL     1       3.893  -0.380  14.763  1.00  0.00     0.238 C 
BRANCH  34  35
HETATM   35  O4  UNL     1       4.016   0.939  15.356  1.00  0.00    -0.382 OA
ATOM     36  H4  UNL     1       4.080   0.768  16.288  1.00  0.00     0.211 HD
ENDBRANCH  34  35
BRANCH  34  37
HETATM   37  C25 UNL     1       4.877  -1.185  15.449  1.00  0.00     0.150 C 
BRANCH  37  38
HETATM   38  O5  UNL     1       5.767  -0.479  16.116  1.00  0.00    -0.347 OA
ATOM     39  H5  UNL     1       6.655  -0.805  16.029  1.00  0.00     0.219 HD
ENDBRANCH  37  38
BRANCH  37  40
HETATM   40  N4  UNL     1       5.030  -2.594  15.520  1.00  0.00    -0.340 N 
HETATM   41  C26 UNL     1       4.753  -3.458  14.383  1.00  0.00     0.199 C 
HETATM   42  S2  UNL     1       3.841  -4.763  15.256  1.00  0.00    -0.147 SA
HETATM   43  C27 UNL     1       4.301  -4.269  16.942  1.00  0.00     0.110 C 
HETATM   44  C28 UNL     1       5.490  -3.355  16.621  1.00  0.00     0.188 C 
BRANCH  44  45
HETATM   45  C29 UNL     1       6.722  -4.140  16.426  1.00  0.00     0.242 C 
HETATM   46  O6  UNL     1       6.712  -5.358  16.842  1.00  0.00    -0.271 OA
HETATM   47  N5  UNL     1       7.926  -3.736  15.836  1.00  0.00    -0.351 N 
ATOM     48  H5  UNL     1       8.002  -2.782  15.481  1.00  0.00     0.163 HD
BRANCH  47  49
HETATM   49  C30 UNL     1       9.073  -4.625  15.709  1.00  0.00     0.022 C 
HETATM   50  C31 UNL     1      10.214  -3.831  15.121  1.00  0.00     0.037 C 
HETATM   51  C32 UNL     1       9.540  -5.172  17.019  1.00  0.00     0.037 C 
HETATM   52  C33 UNL     1       8.789  -5.753  14.747  1.00  0.00     0.037 C 
ENDBRANCH  47  49
ENDBRANCH  44  45
ENDBRANCH  37  40
ENDBRANCH  34  37
ENDBRANCH   1  34
TORSDOF 17
ENDMDL
