MODEL 1
REMARK VINA RESULT: -10.395712640      0.000      0.000
REMARK  14 active torsions:
REMARK  status: ('A' for Active; 'I' for Inactive)
REMARK    1  A    between atoms: C2_2  and  N1_5 
REMARK       I    between atoms: N1_5  and  C5_7 
REMARK    2  A    between atoms: C5_7  and  C6_9 
REMARK    3  A    between atoms: N2_11  and  C8_12 
REMARK    4  A    between atoms: C8_12  and  C9_13 
REMARK    5  A    between atoms: N4_22  and  C16_23 
REMARK    6  A    between atoms: C16_23  and  C17_24 
REMARK    7  A    between atoms: C17_24  and  O2_25 
REMARK    8  A    between atoms: C17_24  and  C18_27 
REMARK    9  A    between atoms: C18_27  and  C19_28 
REMARK   10  A    between atoms: C19_28  and  C20_29 
REMARK   11  A    between atoms: C19_28  and  C27_36 
REMARK   12  A    between atoms: C20_29  and  C21_30 
REMARK       I    between atoms: C27_36  and  N5_38 
REMARK   13  A    between atoms: N5_38  and  C28_40 
REMARK   14  A    between atoms: C36_48  and  O4_49 
ROOT
HETATM    1  C17 UNL     1      10.619  -0.004   5.126  1.00  0.00     0.147 C 
ENDROOT
BRANCH   1   2
HETATM    2  C16 UNL     1      11.162  -0.017   6.528  1.00  0.00     0.305 C 
BRANCH   2   3
HETATM    3  N4  UNL     1      11.415   1.257   7.107  1.00  0.00     0.108 N 
HETATM    4  C6  UNL     1      11.736   1.301   8.491  1.00  0.00     0.342 C 
HETATM    5  C7  UNL     1      13.159   1.026   8.819  1.00  0.00     0.318 C 
HETATM    6  N2  UNL     1      14.141   1.606   7.962  1.00  0.00     0.097 N 
HETATM    7  C14 UNL     1      13.800   1.434   6.562  1.00  0.00     0.303 C 
HETATM    8  C15 UNL     1      12.419   1.929   6.300  1.00  0.00     0.303 C 
BRANCH   4   9
HETATM    9  C5  UNL     1      11.256   2.625   9.037  1.00  0.00     0.253 C 
HETATM   10  N1  UNL     1      11.867   3.172  10.197  1.00  0.00    -0.351 N 
ATOM     11  H1  UNL     1      12.630   2.673  10.655  1.00  0.00     0.163 HD
HETATM   12  O1  UNL     1      10.318   3.247   8.476  1.00  0.00    -0.271 OA
BRANCH  10  13
HETATM   13  C2  UNL     1      11.408   4.437  10.728  1.00  0.00     0.022 C 
HETATM   14  C1  UNL     1      12.052   5.596  10.008  1.00  0.00     0.037 C 
HETATM   15  C3  UNL     1      11.807   4.528  12.193  1.00  0.00     0.037 C 
HETATM   16  C4  UNL     1       9.894   4.562  10.626  1.00  0.00     0.037 C 
ENDBRANCH  10  13
ENDBRANCH   4   9
BRANCH   6  17
HETATM   17  C8  UNL     1      14.516   2.953   8.274  1.00  0.00     0.312 C 
BRANCH  17  18
HETATM   18  C9  UNL     1      15.904   2.947   8.861  1.00  0.00    -0.015 A 
HETATM   19  C10 UNL     1      16.744   1.877   8.672  1.00  0.00     0.011 A 
HETATM   20  C11 UNL     1      18.002   1.885   9.211  1.00  0.00     0.018 A 
HETATM   21  C12 UNL     1      18.420   2.968   9.944  1.00  0.00     0.087 A 
HETATM   22  N3  UNL     1      17.600   4.016  10.131  1.00  0.00    -0.375 N 
HETATM   23  C13 UNL     1      16.357   4.016   9.602  1.00  0.00     0.096 A 
ATOM     24  H3  UNL     1      17.918   4.818  10.676  1.00  0.00     0.164 HD
ENDBRANCH  17  18
ENDBRANCH   6  17
ENDBRANCH   2   3
ENDBRANCH   1   2
BRANCH   1  25
HETATM   25  O2  UNL     1      11.462  -0.881   4.393  1.00  0.00    -0.394 OA
ATOM     26  H2  UNL     1      10.875  -1.398   3.854  1.00  0.00     0.210 HD
ENDBRANCH   1  25
BRANCH   1  27
HETATM   27  C18 UNL     1       9.266  -0.672   5.078  1.00  0.00     0.047 C 
BRANCH  27  28
HETATM   28  C19 UNL     1       8.989  -1.627   6.208  1.00  0.00     0.084 C 
BRANCH  28  29
HETATM   29  C20 UNL     1       7.691  -1.453   6.864  1.00  0.00     0.052 C 
BRANCH  29  30
HETATM   30  C21 UNL     1       6.712  -0.606   6.169  1.00  0.00    -0.057 A 
HETATM   31  C22 UNL     1       5.903  -1.241   5.219  1.00  0.00     0.007 A 
HETATM   32  C23 UNL     1       4.921  -0.560   4.525  1.00  0.00     0.001 A 
HETATM   33  C24 UNL     1       4.705   0.782   4.750  1.00  0.00     0.000 A 
HETATM   34  C25 UNL     1       5.496   1.414   5.683  1.00  0.00     0.001 A 
HETATM   35  C26 UNL     1       6.492   0.728   6.389  1.00  0.00     0.007 A 
ENDBRANCH  29  30
ENDBRANCH  28  29
BRANCH  28  36
HETATM   36  C27 UNL     1       9.283  -3.018   5.854  1.00  0.00     0.222 C 
HETATM   37  O3  UNL     1      10.432  -3.474   5.885  1.00  0.00    -0.273 OA
HETATM   38  N5  UNL     1       8.261  -3.931   5.453  1.00  0.00    -0.350 N 
ATOM     39  H5  UNL     1       7.294  -3.611   5.410  1.00  0.00     0.163 HD
BRANCH  38  40
HETATM   40  C28 UNL     1       8.568  -5.286   5.108  1.00  0.00     0.147 C 
HETATM   41  C29 UNL     1       8.032  -6.263   6.067  1.00  0.00    -0.027 A 
HETATM   42  C30 UNL     1       8.534  -6.734   7.255  1.00  0.00     0.010 A 
HETATM   43  C34 UNL     1       6.824  -6.726   5.608  1.00  0.00    -0.047 A 
HETATM   44  C31 UNL     1       7.841  -7.662   7.990  1.00  0.00     0.001 A 
HETATM   45  C32 UNL     1       6.625  -8.116   7.511  1.00  0.00     0.001 A 
HETATM   46  C33 UNL     1       6.086  -7.660   6.309  1.00  0.00     0.008 A 
HETATM   47  C35 UNL     1       6.491  -6.073   4.304  1.00  0.00     0.073 C 
HETATM   48  C36 UNL     1       7.848  -5.615   3.811  1.00  0.00     0.149 C 
BRANCH  48  49
HETATM   49  O4  UNL     1       7.672  -4.431   3.118  1.00  0.00    -0.393 OA
ATOM     50  H4  UNL     1       7.723  -4.631   2.191  1.00  0.00     0.210 HD
ENDBRANCH  48  49
ENDBRANCH  38  40
ENDBRANCH  28  36
ENDBRANCH  27  28
ENDBRANCH   1  27
TORSDOF 14
ENDMDL
