MODEL 2
REMARK VINA RESULT: -10.245279262      1.782      2.379
REMARK  14 active torsions:
REMARK  status: ('A' for Active; 'I' for Inactive)
REMARK    1  A    between atoms: C2_2  and  N1_5 
REMARK       I    between atoms: N1_5  and  C5_7 
REMARK    2  A    between atoms: C5_7  and  C6_9 
REMARK    3  A    between atoms: N2_11  and  C8_12 
REMARK    4  A    between atoms: C8_12  and  C9_13 
REMARK    5  A    between atoms: N4_22  and  C16_23 
REMARK    6  A    between atoms: C16_23  and  C17_24 
REMARK    7  A    between atoms: C17_24  and  O2_25 
REMARK    8  A    between atoms: C17_24  and  C18_27 
REMARK    9  A    between atoms: C18_27  and  C19_28 
REMARK   10  A    between atoms: C19_28  and  C20_29 
REMARK   11  A    between atoms: C19_28  and  C27_36 
REMARK   12  A    between atoms: C20_29  and  C21_30 
REMARK       I    between atoms: C27_36  and  N5_38 
REMARK   13  A    between atoms: N5_38  and  C28_40 
REMARK   14  A    between atoms: C36_48  and  O4_49 
ROOT
HETATM    1  C17 UNL     1      10.681   1.182   5.224  1.00  0.00     0.147 C 
ENDROOT
BRANCH   1   2
HETATM    2  C16 UNL     1      11.706   0.590   6.151  1.00  0.00     0.305 C 
BRANCH   2   3
HETATM    3  N4  UNL     1      12.386   1.512   6.993  1.00  0.00     0.108 N 
HETATM    4  C6  UNL     1      12.030   1.534   8.369  1.00  0.00     0.342 C 
HETATM    5  C7  UNL     1      12.685   0.499   9.209  1.00  0.00     0.318 C 
HETATM    6  N2  UNL     1      14.065   0.244   8.957  1.00  0.00     0.097 N 
HETATM    7  C14 UNL     1      14.338   0.131   7.536  1.00  0.00     0.303 C 
HETATM    8  C15 UNL     1      13.815   1.322   6.810  1.00  0.00     0.303 C 
BRANCH   4   9
HETATM    9  C5  UNL     1      12.259   2.936   8.884  1.00  0.00     0.253 C 
HETATM   10  N1  UNL     1      12.254   3.182  10.283  1.00  0.00    -0.351 N 
ATOM     11  H1  UNL     1      12.100   2.414  10.936  1.00  0.00     0.163 HD
HETATM   12  O1  UNL     1      12.452   3.889   8.085  1.00  0.00    -0.271 OA
BRANCH  10  13
HETATM   13  C2  UNL     1      12.467   4.523  10.783  1.00  0.00     0.022 C 
HETATM   14  C1  UNL     1      13.919   4.920  10.674  1.00  0.00     0.037 C 
HETATM   15  C3  UNL     1      12.089   4.564  12.256  1.00  0.00     0.037 C 
HETATM   16  C4  UNL     1      11.613   5.535  10.031  1.00  0.00     0.037 C 
ENDBRANCH  10  13
ENDBRANCH   4   9
BRANCH   6  17
HETATM   17  C8  UNL     1      14.987   1.114   9.625  1.00  0.00     0.312 C 
BRANCH  17  18
HETATM   18  C9  UNL     1      16.374   0.535   9.503  1.00  0.00    -0.015 A 
HETATM   19  C10 UNL     1      16.652  -0.732   9.954  1.00  0.00     0.011 A 
HETATM   20  C11 UNL     1      17.915  -1.244   9.837  1.00  0.00     0.018 A 
HETATM   21  C12 UNL     1      18.905  -0.484   9.266  1.00  0.00     0.087 A 
HETATM   22  N3  UNL     1      18.637   0.757   8.823  1.00  0.00    -0.375 N 
HETATM   23  C13 UNL     1      17.392   1.269   8.936  1.00  0.00     0.096 A 
ATOM     24  H3  UNL     1      19.378   1.315   8.400  1.00  0.00     0.164 HD
ENDBRANCH  17  18
ENDBRANCH   6  17
ENDBRANCH   2   3
ENDBRANCH   1   2
BRANCH   1  25
HETATM   25  O2  UNL     1      11.046   0.731   3.928  1.00  0.00    -0.394 OA
ATOM     26  H2  UNL     1      10.544   1.267   3.326  1.00  0.00     0.210 HD
ENDBRANCH   1  25
BRANCH   1  27
HETATM   27  C18 UNL     1       9.328   0.555   5.461  1.00  0.00     0.047 C 
BRANCH  27  28
HETATM   28  C19 UNL     1       9.214  -0.245   6.732  1.00  0.00     0.084 C 
BRANCH  28  29
HETATM   29  C20 UNL     1       7.850  -0.409   7.242  1.00  0.00     0.052 C 
BRANCH  29  30
HETATM   30  C21 UNL     1       6.759  -0.149   6.293  1.00  0.00    -0.057 A 
HETATM   31  C22 UNL     1       6.434  -1.193   5.418  1.00  0.00     0.007 A 
HETATM   32  C23 UNL     1       5.403  -1.085   4.504  1.00  0.00     0.001 A 
HETATM   33  C24 UNL     1       4.653   0.068   4.425  1.00  0.00     0.000 A 
HETATM   34  C25 UNL     1       4.966   1.100   5.283  1.00  0.00     0.001 A 
HETATM   35  C26 UNL     1       6.010   0.994   6.210  1.00  0.00     0.007 A 
ENDBRANCH  29  30
ENDBRANCH  28  29
BRANCH  28  36
HETATM   36  C27 UNL     1       9.972  -1.496   6.679  1.00  0.00     0.222 C 
HETATM   37  O3  UNL     1      10.523  -1.973   7.679  1.00  0.00    -0.273 OA
HETATM   38  N5  UNL     1      10.121  -2.243   5.471  1.00  0.00    -0.350 N 
ATOM     39  H5  UNL     1       9.686  -1.900   4.615  1.00  0.00     0.163 HD
BRANCH  38  40
HETATM   40  C28 UNL     1      10.867  -3.464   5.438  1.00  0.00     0.147 C 
HETATM   41  C29 UNL     1      10.018  -4.662   5.381  1.00  0.00    -0.027 A 
HETATM   42  C30 UNL     1       9.399  -5.381   6.373  1.00  0.00     0.010 A 
HETATM   43  C34 UNL     1       9.879  -5.051   4.071  1.00  0.00    -0.047 A 
HETATM   44  C31 UNL     1       8.642  -6.485   6.071  1.00  0.00     0.001 A 
HETATM   45  C32 UNL     1       8.514  -6.861   4.746  1.00  0.00     0.001 A 
HETATM   46  C33 UNL     1       9.129  -6.154   3.713  1.00  0.00     0.008 A 
HETATM   47  C35 UNL     1      10.640  -4.121   3.181  1.00  0.00     0.073 C 
HETATM   48  C36 UNL     1      11.644  -3.504   4.133  1.00  0.00     0.149 C 
BRANCH  48  49
HETATM   49  O4  UNL     1      11.861  -2.198   3.734  1.00  0.00    -0.393 OA
ATOM     50  H4  UNL     1      12.689  -2.173   3.269  1.00  0.00     0.210 HD
ENDBRANCH  48  49
ENDBRANCH  38  40
ENDBRANCH  28  36
ENDBRANCH  27  28
ENDBRANCH   1  27
TORSDOF 14
ENDMDL
