MODEL 4
REMARK VINA RESULT: -10.182983782      1.903      5.377
REMARK  14 active torsions:
REMARK  status: ('A' for Active; 'I' for Inactive)
REMARK    1  A    between atoms: C2_2  and  N1_5 
REMARK       I    between atoms: N1_5  and  C5_7 
REMARK    2  A    between atoms: C5_7  and  C6_9 
REMARK    3  A    between atoms: N2_11  and  C8_12 
REMARK    4  A    between atoms: C8_12  and  C9_13 
REMARK    5  A    between atoms: N4_22  and  C16_23 
REMARK    6  A    between atoms: C16_23  and  C17_24 
REMARK    7  A    between atoms: C17_24  and  O2_25 
REMARK    8  A    between atoms: C17_24  and  C18_27 
REMARK    9  A    between atoms: C18_27  and  C19_28 
REMARK   10  A    between atoms: C19_28  and  C20_29 
REMARK   11  A    between atoms: C19_28  and  C27_36 
REMARK   12  A    between atoms: C20_29  and  C21_30 
REMARK       I    between atoms: C27_36  and  N5_38 
REMARK   13  A    between atoms: N5_38  and  C28_40 
REMARK   14  A    between atoms: C36_48  and  O4_49 
ROOT
HETATM    1  C17 UNL     1      10.712   0.388   4.943  1.00  0.00     0.147 C 
ENDROOT
BRANCH   1   2
HETATM    2  C16 UNL     1      10.577   1.305   6.127  1.00  0.00     0.305 C 
BRANCH   2   3
HETATM    3  N4  UNL     1      11.521   1.113   7.172  1.00  0.00     0.108 N 
HETATM    4  C6  UNL     1      12.745   1.832   7.095  1.00  0.00     0.342 C 
HETATM    5  C7  UNL     1      12.689   3.230   7.595  1.00  0.00     0.318 C 
HETATM    6  N2  UNL     1      11.938   3.459   8.785  1.00  0.00     0.097 N 
HETATM    7  C14 UNL     1      10.657   2.778   8.751  1.00  0.00     0.303 C 
HETATM    8  C15 UNL     1      10.845   1.334   8.439  1.00  0.00     0.303 C 
BRANCH   4   9
HETATM    9  C5  UNL     1      13.810   1.009   7.781  1.00  0.00     0.253 C 
HETATM   10  N1  UNL     1      15.086   1.579   8.036  1.00  0.00    -0.351 N 
ATOM     11  H1  UNL     1      15.279   2.542   7.760  1.00  0.00     0.163 HD
HETATM   12  O1  UNL     1      13.579  -0.179   8.126  1.00  0.00    -0.271 OA
BRANCH  10  13
HETATM   13  C2  UNL     1      16.112   0.794   8.687  1.00  0.00     0.022 C 
HETATM   14  C1  UNL     1      15.712   0.437  10.097  1.00  0.00     0.037 C 
HETATM   15  C3  UNL     1      17.386   1.622   8.767  1.00  0.00     0.037 C 
HETATM   16  C4  UNL     1      16.406  -0.482   7.911  1.00  0.00     0.037 C 
ENDBRANCH  10  13
ENDBRANCH   4   9
BRANCH   6  17
HETATM   17  C8  UNL     1      12.644   3.238  10.013  1.00  0.00     0.312 C 
BRANCH  17  18
HETATM   18  C9  UNL     1      12.941   4.573  10.647  1.00  0.00    -0.015 A 
HETATM   19  C10 UNL     1      11.938   5.329  11.202  1.00  0.00     0.011 A 
HETATM   20  C11 UNL     1      12.223   6.539  11.775  1.00  0.00     0.018 A 
HETATM   21  C12 UNL     1      13.518   6.994  11.791  1.00  0.00     0.087 A 
HETATM   22  N3  UNL     1      14.502   6.256  11.249  1.00  0.00    -0.375 N 
HETATM   23  C13 UNL     1      14.229   5.061  10.682  1.00  0.00     0.096 A 
ATOM     24  H3  UNL     1      15.462   6.601  11.266  1.00  0.00     0.164 HD
ENDBRANCH  17  18
ENDBRANCH   6  17
ENDBRANCH   2   3
ENDBRANCH   1   2
BRANCH   1  25
HETATM   25  O2  UNL     1      11.679   1.003   4.104  1.00  0.00    -0.394 OA
ATOM     26  H2  UNL     1      12.247   0.297   3.819  1.00  0.00     0.210 HD
ENDBRANCH   1  25
BRANCH   1  27
HETATM   27  C18 UNL     1      11.357  -0.913   5.353  1.00  0.00     0.047 C 
BRANCH  27  28
HETATM   28  C19 UNL     1      10.513  -2.139   5.127  1.00  0.00     0.084 C 
BRANCH  28  29
HETATM   29  C20 UNL     1      11.199  -3.414   5.350  1.00  0.00     0.052 C 
BRANCH  29  30
HETATM   30  C21 UNL     1      10.431  -4.632   5.058  1.00  0.00    -0.057 A 
HETATM   31  C22 UNL     1      10.051  -4.824   3.724  1.00  0.00     0.007 A 
HETATM   32  C23 UNL     1       9.359  -5.947   3.315  1.00  0.00     0.001 A 
HETATM   33  C24 UNL     1       9.015  -6.927   4.221  1.00  0.00     0.000 A 
HETATM   34  C25 UNL     1       9.385  -6.747   5.536  1.00  0.00     0.001 A 
HETATM   35  C26 UNL     1      10.087  -5.610   5.953  1.00  0.00     0.007 A 
ENDBRANCH  29  30
ENDBRANCH  28  29
BRANCH  28  36
HETATM   36  C27 UNL     1       9.209  -2.054   5.787  1.00  0.00     0.222 C 
HETATM   37  O3  UNL     1       9.099  -1.822   6.997  1.00  0.00    -0.273 OA
HETATM   38  N5  UNL     1       7.984  -2.232   5.074  1.00  0.00    -0.350 N 
ATOM     39  H5  UNL     1       8.013  -2.424   4.073  1.00  0.00     0.163 HD
BRANCH  38  40
HETATM   40  C28 UNL     1       6.719  -2.147   5.736  1.00  0.00     0.147 C 
HETATM   41  C29 UNL     1       6.155  -0.789   5.739  1.00  0.00    -0.027 A 
HETATM   42  C30 UNL     1       6.364   0.276   6.578  1.00  0.00     0.010 A 
HETATM   43  C34 UNL     1       5.284  -0.664   4.684  1.00  0.00    -0.047 A 
HETATM   44  C31 UNL     1       5.712   1.467   6.376  1.00  0.00     0.001 A 
HETATM   45  C32 UNL     1       4.839   1.574   5.308  1.00  0.00     0.001 A 
HETATM   46  C33 UNL     1       4.603   0.512   4.436  1.00  0.00     0.008 A 
HETATM   47  C35 UNL     1       5.223  -1.948   3.919  1.00  0.00     0.073 C 
HETATM   48  C36 UNL     1       5.714  -2.958   4.935  1.00  0.00     0.149 C 
BRANCH  48  49
HETATM   49  O4  UNL     1       6.414  -3.939   4.257  1.00  0.00    -0.393 OA
ATOM     50  H4  UNL     1       5.848  -4.274   3.571  1.00  0.00     0.210 HD
ENDBRANCH  48  49
ENDBRANCH  38  40
ENDBRANCH  28  36
ENDBRANCH  27  28
ENDBRANCH   1  27
TORSDOF 14
ENDMDL
