MODEL 3
REMARK VINA RESULT: -10.221128610      2.416     11.127
REMARK  14 active torsions:
REMARK  status: ('A' for Active; 'I' for Inactive)
REMARK    1  A    between atoms: C2_2  and  N1_5 
REMARK       I    between atoms: N1_5  and  C5_7 
REMARK    2  A    between atoms: C5_7  and  C6_9 
REMARK    3  A    between atoms: N2_11  and  C8_12 
REMARK    4  A    between atoms: C8_12  and  C9_13 
REMARK    5  A    between atoms: N4_22  and  C16_23 
REMARK    6  A    between atoms: C16_23  and  C17_24 
REMARK    7  A    between atoms: C17_24  and  O2_25 
REMARK    8  A    between atoms: C17_24  and  C18_27 
REMARK    9  A    between atoms: C18_27  and  C19_28 
REMARK   10  A    between atoms: C19_28  and  C20_29 
REMARK   11  A    between atoms: C19_28  and  C27_36 
REMARK   12  A    between atoms: C20_29  and  C21_30 
REMARK       I    between atoms: C27_36  and  N5_38 
REMARK   13  A    between atoms: N5_38  and  C28_40 
REMARK   14  A    between atoms: C36_48  and  O4_49 
ROOT
HETATM    1  C17 UNL     1      13.433   0.948   7.274  1.00  0.00     0.147 C 
ENDROOT
BRANCH   1   2
HETATM    2  C16 UNL     1      12.353   1.140   6.245  1.00  0.00     0.305 C 
BRANCH   2   3
HETATM    3  N4  UNL     1      11.655  -0.035   5.852  1.00  0.00     0.108 N 
HETATM    4  C6  UNL     1      11.245  -0.932   6.875  1.00  0.00     0.342 C 
HETATM    5  C7  UNL     1       9.973  -0.575   7.556  1.00  0.00     0.318 C 
HETATM    6  N2  UNL     1       8.916  -0.089   6.731  1.00  0.00     0.097 N 
HETATM    7  C14 UNL     1       9.389   0.899   5.779  1.00  0.00     0.303 C 
HETATM    8  C15 UNL     1      10.543   0.362   5.005  1.00  0.00     0.303 C 
BRANCH   4   9
HETATM    9  C5  UNL     1      11.223  -2.324   6.289  1.00  0.00     0.253 C 
HETATM   10  N1  UNL     1      10.401  -3.323   6.876  1.00  0.00    -0.351 N 
ATOM     11  H1  UNL     1       9.826  -3.098   7.688  1.00  0.00     0.163 HD
HETATM   12  O1  UNL     1      11.929  -2.609   5.287  1.00  0.00    -0.271 OA
BRANCH  10  13
HETATM   13  C2  UNL     1      10.381  -4.660   6.324  1.00  0.00     0.022 C 
HETATM   14  C1  UNL     1       9.468  -5.563   7.116  1.00  0.00     0.037 C 
HETATM   15  C3  UNL     1      11.784  -5.244   6.401  1.00  0.00     0.037 C 
HETATM   16  C4  UNL     1       9.935  -4.649   4.868  1.00  0.00     0.037 C 
ENDBRANCH  10  13
ENDBRANCH   4   9
BRANCH   6  17
HETATM   17  C8  UNL     1       8.098  -1.093   6.119  1.00  0.00     0.312 C 
BRANCH  17  18
HETATM   18  C9  UNL     1       6.803  -0.460   5.677  1.00  0.00    -0.015 A 
HETATM   19  C10 UNL     1       6.350   0.698   6.259  1.00  0.00     0.011 A 
HETATM   20  C11 UNL     1       5.172   1.262   5.848  1.00  0.00     0.018 A 
HETATM   21  C12 UNL     1       4.446   0.663   4.850  1.00  0.00     0.087 A 
HETATM   22  N3  UNL     1       4.886  -0.471   4.277  1.00  0.00    -0.375 N 
HETATM   23  C13 UNL     1       6.047  -1.033   4.678  1.00  0.00     0.096 A 
ATOM     24  H3  UNL     1       4.340  -0.910   3.536  1.00  0.00     0.164 HD
ENDBRANCH  17  18
ENDBRANCH   6  17
ENDBRANCH   2   3
ENDBRANCH   1   2
BRANCH   1  25
HETATM   25  O2  UNL     1      14.500   0.317   6.580  1.00  0.00    -0.394 OA
ATOM     26  H2  UNL     1      14.998  -0.137   7.249  1.00  0.00     0.210 HD
ENDBRANCH   1  25
BRANCH   1  27
HETATM   27  C18 UNL     1      14.006   2.280   7.692  1.00  0.00     0.047 C 
BRANCH  27  28
HETATM   28  C19 UNL     1      14.287   2.416   9.166  1.00  0.00     0.084 C 
BRANCH  28  29
HETATM   29  C20 UNL     1      15.706   2.444   9.527  1.00  0.00     0.052 C 
BRANCH  29  30
HETATM   30  C21 UNL     1      16.380   1.145   9.647  1.00  0.00    -0.057 A 
HETATM   31  C22 UNL     1      15.695   0.152  10.359  1.00  0.00     0.007 A 
HETATM   32  C23 UNL     1      16.207  -1.123  10.510  1.00  0.00     0.001 A 
HETATM   33  C24 UNL     1      17.423  -1.461   9.957  1.00  0.00     0.000 A 
HETATM   34  C25 UNL     1      18.103  -0.490   9.255  1.00  0.00     0.001 A 
HETATM   35  C26 UNL     1      17.587   0.802   9.099  1.00  0.00     0.007 A 
ENDBRANCH  29  30
ENDBRANCH  28  29
BRANCH  28  36
HETATM   36  C27 UNL     1      13.503   3.482   9.792  1.00  0.00     0.222 C 
HETATM   37  O3  UNL     1      12.287   3.602   9.600  1.00  0.00    -0.273 OA
HETATM   38  N5  UNL     1      14.094   4.448  10.662  1.00  0.00    -0.350 N 
ATOM     39  H5  UNL     1      15.094   4.398  10.858  1.00  0.00     0.163 HD
BRANCH  38  40
HETATM   40  C28 UNL     1      13.312   5.485  11.263  1.00  0.00     0.147 C 
HETATM   41  C29 UNL     1      13.100   5.290  12.705  1.00  0.00    -0.027 A 
HETATM   42  C30 UNL     1      12.165   4.556  13.390  1.00  0.00     0.010 A 
HETATM   43  C34 UNL     1      14.048   6.003  13.397  1.00  0.00    -0.047 A 
HETATM   44  C31 UNL     1      12.166   4.525  14.762  1.00  0.00     0.001 A 
HETATM   45  C32 UNL     1      13.129   5.249  15.443  1.00  0.00     0.001 A 
HETATM   46  C33 UNL     1      14.094   6.006  14.778  1.00  0.00     0.008 A 
HETATM   47  C35 UNL     1      14.947   6.717  12.440  1.00  0.00     0.073 C 
HETATM   48  C36 UNL     1      14.106   6.778  11.183  1.00  0.00     0.149 C 
BRANCH  48  49
HETATM   49  O4  UNL     1      14.956   6.681  10.096  1.00  0.00    -0.393 OA
ATOM     50  H4  UNL     1      15.799   7.030  10.359  1.00  0.00     0.210 HD
ENDBRANCH  48  49
ENDBRANCH  38  40
ENDBRANCH  28  36
ENDBRANCH  27  28
ENDBRANCH   1  27
TORSDOF 14
ENDMDL
