MODEL 1
REMARK VINA RESULT: -8.339871290      0.000      0.000
REMARK  14 active torsions:
REMARK  status: ('A' for Active; 'I' for Inactive)
REMARK    1  A    between atoms: N3_6  and  C3_7 
REMARK    2  A    between atoms: C3_7  and  C4_8 
REMARK    3  A    between atoms: C7_11  and  C8_12 
REMARK    4  A    between atoms: C8_12  and  O1_13 
REMARK    5  A    between atoms: C11_17  and  C12_18 
REMARK    6  A    between atoms: C12_18  and  C13_19 
REMARK    7  A    between atoms: C19_25  and  O2_26 
REMARK    8  A    between atoms: C20_28  and  O3_29 
REMARK    9  A    between atoms: C21_31  and  C22_32 
REMARK   10  A    between atoms: C22_32  and  C23_33 
REMARK   11  A    between atoms: N4_39  and  C29_40 
REMARK   12  A    between atoms: C29_40  and  C30_41 
REMARK   13  A    between atoms: C33_44  and  C34_45 
REMARK   14  A    between atoms: C34_45  and  O4_46 
ROOT
HETATM    1  N1  UNL     1      -1.751  20.867  21.181  1.00  0.00    -0.171 NA
HETATM    2  C1  UNL     1      -2.572  20.080  20.970  1.00  0.00     0.196 C 
HETATM    3  N2  UNL     1      -3.582  19.154  20.673  1.00  0.00    -0.126 N 
ATOM      4  H2  UNL     1      -3.863  19.082  19.695  1.00  0.00     0.197 HD
HETATM    5  C2  UNL     1      -4.186  18.392  21.498  1.00  0.00     0.692 C 
HETATM    6  N3  UNL     1      -5.191  17.551  20.885  1.00  0.00    -0.184 N 
HETATM    7  C11 UNL     1      -5.970  16.592  21.691  1.00  0.00     0.143 C 
HETATM    8  C19 UNL     1      -6.626  17.337  22.836  1.00  0.00     0.173 C 
HETATM    9  C20 UNL     1      -5.711  17.407  24.047  1.00  0.00     0.172 C 
HETATM   10  C21 UNL     1      -4.761  18.558  23.992  1.00  0.00     0.138 C 
HETATM   11  N4  UNL     1      -3.808  18.476  22.878  1.00  0.00    -0.205 N 
ENDROOT
BRANCH   6  12
HETATM   12  C3  UNL     1      -5.419  17.673  19.491  1.00  0.00     0.121 C 
BRANCH  12  13
HETATM   13  C4  UNL     1      -4.585  16.971  18.537  1.00  0.00    -0.020 A 
HETATM   14  C5  UNL     1      -3.711  15.973  18.885  1.00  0.00     0.013 A 
HETATM   15  C6  UNL     1      -2.943  15.321  17.913  1.00  0.00     0.010 A 
HETATM   16  C7  UNL     1      -3.045  15.664  16.589  1.00  0.00    -0.035 A 
HETATM   17  C9  UNL     1      -3.917  16.664  16.234  1.00  0.00     0.010 A 
HETATM   18  C10 UNL     1      -4.653  17.282  17.193  1.00  0.00     0.013 A 
BRANCH  16  19
HETATM   19  C8  UNL     1      -2.235  14.985  15.529  1.00  0.00     0.202 C 
BRANCH  19  20
HETATM   20  O1  UNL     1      -3.065  14.098  14.850  1.00  0.00    -0.396 OA
ATOM     21  H1  UNL     1      -2.659  13.890  14.017  1.00  0.00     0.209 HD
ENDBRANCH  19  20
ENDBRANCH  16  19
ENDBRANCH  12  13
ENDBRANCH   6  12
BRANCH  11  22
HETATM   22  C29 UNL     1      -2.418  18.522  23.209  1.00  0.00     0.180 C 
BRANCH  22  23
HETATM   23  C30 UNL     1      -1.728  17.228  23.234  1.00  0.00    -0.040 A 
HETATM   24  C31 UNL     1      -1.030  16.751  22.114  1.00  0.00     0.009 A 
HETATM   25  C32 UNL     1      -0.349  15.567  22.159  1.00  0.00     0.010 A 
HETATM   26  C33 UNL     1      -0.291  14.768  23.277  1.00  0.00    -0.035 A 
HETATM   27  C35 UNL     1      -0.967  15.216  24.387  1.00  0.00     0.010 A 
HETATM   28  C36 UNL     1      -1.671  16.431  24.349  1.00  0.00     0.009 A 
BRANCH  26  29
HETATM   29  C34 UNL     1       0.472  13.492  23.272  1.00  0.00     0.202 C 
BRANCH  29  30
HETATM   30  O4  UNL     1      -0.014  12.615  24.248  1.00  0.00    -0.396 OA
ATOM     31  H4  UNL     1       0.409  11.767  24.184  1.00  0.00     0.209 HD
ENDBRANCH  29  30
ENDBRANCH  26  29
ENDBRANCH  22  23
ENDBRANCH  11  22
BRANCH   7  32
HETATM   32  C12 UNL     1      -6.848  15.716  20.904  1.00  0.00     0.067 C 
BRANCH  32  33
HETATM   33  C13 UNL     1      -8.209  15.577  21.525  1.00  0.00    -0.056 A 
HETATM   34  C14 UNL     1      -9.191  16.438  21.116  1.00  0.00     0.007 A 
HETATM   35  C15 UNL     1     -10.459  16.324  21.693  1.00  0.00     0.001 A 
HETATM   36  C16 UNL     1     -10.715  15.364  22.653  1.00  0.00     0.000 A 
HETATM   37  C17 UNL     1      -9.745  14.505  23.064  1.00  0.00     0.001 A 
HETATM   38  C18 UNL     1      -8.494  14.631  22.482  1.00  0.00     0.007 A 
ENDBRANCH  32  33
ENDBRANCH   7  32
BRANCH  10  39
HETATM   39  C22 UNL     1      -4.098  18.837  25.308  1.00  0.00     0.067 C 
BRANCH  39  40
HETATM   40  C23 UNL     1      -5.115  18.773  26.383  1.00  0.00    -0.056 A 
HETATM   41  C24 UNL     1      -5.146  17.720  27.270  1.00  0.00     0.007 A 
HETATM   42  C25 UNL     1      -6.087  17.618  28.277  1.00  0.00     0.001 A 
HETATM   43  C26 UNL     1      -7.033  18.583  28.417  1.00  0.00     0.000 A 
HETATM   44  C27 UNL     1      -7.031  19.652  27.546  1.00  0.00     0.001 A 
HETATM   45  C28 UNL     1      -6.075  19.749  26.529  1.00  0.00     0.007 A 
ENDBRANCH  39  40
ENDBRANCH  10  39
BRANCH   8  46
HETATM   46  O2  UNL     1      -6.964  18.609  22.455  1.00  0.00    -0.391 OA
ATOM     47  H2  UNL     1      -6.716  19.237  23.124  1.00  0.00     0.210 HD
ENDBRANCH   8  46
BRANCH   9  48
HETATM   48  O3  UNL     1      -5.091  16.177  24.266  1.00  0.00    -0.391 OA
ATOM     49  H3  UNL     1      -5.204  15.901  25.168  1.00  0.00     0.210 HD
ENDBRANCH   9  48
TORSDOF 14
ENDMDL
