MODEL 4
REMARK VINA RESULT: -7.977922013      6.096     12.026
REMARK  14 active torsions:
REMARK  status: ('A' for Active; 'I' for Inactive)
REMARK    1  A    between atoms: N3_6  and  C3_7 
REMARK    2  A    between atoms: C3_7  and  C4_8 
REMARK    3  A    between atoms: C7_11  and  C8_12 
REMARK    4  A    between atoms: C8_12  and  O1_13 
REMARK    5  A    between atoms: C11_17  and  C12_18 
REMARK    6  A    between atoms: C12_18  and  C13_19 
REMARK    7  A    between atoms: C19_25  and  O2_26 
REMARK    8  A    between atoms: C20_28  and  O3_29 
REMARK    9  A    between atoms: C21_31  and  C22_32 
REMARK   10  A    between atoms: C22_32  and  C23_33 
REMARK   11  A    between atoms: N4_39  and  C29_40 
REMARK   12  A    between atoms: C29_40  and  C30_41 
REMARK   13  A    between atoms: C33_44  and  C34_45 
REMARK   14  A    between atoms: C34_45  and  O4_46 
ROOT
HETATM    1  N1  UNL     1     -14.123  16.587  27.712  1.00  0.00    -0.171 NA
HETATM    2  C1  UNL     1     -13.052  16.741  28.121  1.00  0.00     0.196 C 
HETATM    3  N2  UNL     1     -11.769  16.974  28.636  1.00  0.00    -0.126 N 
ATOM      4  H2  UNL     1     -11.710  17.563  29.467  1.00  0.00     0.197 HD
HETATM    5  C2  UNL     1     -10.668  16.526  28.176  1.00  0.00     0.692 C 
HETATM    6  N3  UNL     1      -9.506  16.952  28.925  1.00  0.00    -0.184 N 
HETATM    7  C11 UNL     1      -8.153  16.507  28.543  1.00  0.00     0.143 C 
HETATM    8  C19 UNL     1      -7.918  16.856  27.088  1.00  0.00     0.173 C 
HETATM    9  C20 UNL     1      -8.398  15.746  26.168  1.00  0.00     0.172 C 
HETATM   10  C21 UNL     1      -9.852  15.850  25.840  1.00  0.00     0.138 C 
HETATM   11  N4  UNL     1     -10.726  15.695  27.009  1.00  0.00    -0.205 N 
ENDROOT
BRANCH   6  12
HETATM   12  C3  UNL     1      -9.695  17.817  30.034  1.00  0.00     0.121 C 
BRANCH  12  13
HETATM   13  C4  UNL     1      -9.975  17.284  31.352  1.00  0.00    -0.020 A 
HETATM   14  C5  UNL     1     -10.925  16.327  31.596  1.00  0.00     0.013 A 
HETATM   15  C6  UNL     1     -11.138  15.841  32.892  1.00  0.00     0.010 A 
HETATM   16  C7  UNL     1     -10.401  16.311  33.948  1.00  0.00    -0.035 A 
HETATM   17  C9  UNL     1      -9.449  17.271  33.712  1.00  0.00     0.010 A 
HETATM   18  C10 UNL     1      -9.259  17.727  32.447  1.00  0.00     0.013 A 
BRANCH  16  19
HETATM   19  C8  UNL     1     -10.608  15.810  35.345  1.00  0.00     0.202 C 
BRANCH  19  20
HETATM   20  O1  UNL     1     -11.872  16.213  35.767  1.00  0.00    -0.396 OA
ATOM     21  H1  UNL     1     -11.777  17.021  36.258  1.00  0.00     0.209 HD
ENDBRANCH  19  20
ENDBRANCH  16  19
ENDBRANCH  12  13
ENDBRANCH   6  12
BRANCH  11  22
HETATM   22  C29 UNL     1     -11.718  14.667  26.944  1.00  0.00     0.180 C 
BRANCH  22  23
HETATM   23  C30 UNL     1     -11.942  13.922  28.188  1.00  0.00    -0.040 A 
HETATM   24  C31 UNL     1     -13.222  13.479  28.553  1.00  0.00     0.009 A 
HETATM   25  C32 UNL     1     -13.416  12.742  29.688  1.00  0.00     0.010 A 
HETATM   26  C33 UNL     1     -12.399  12.384  30.541  1.00  0.00    -0.035 A 
HETATM   27  C35 UNL     1     -11.136  12.807  30.203  1.00  0.00     0.010 A 
HETATM   28  C36 UNL     1     -10.927  13.565  29.039  1.00  0.00     0.009 A 
BRANCH  26  29
HETATM   29  C34 UNL     1     -12.667  11.575  31.761  1.00  0.00     0.202 C 
BRANCH  29  30
HETATM   30  O4  UNL     1     -12.438  12.326  32.918  1.00  0.00    -0.396 OA
ATOM     31  H4  UNL     1     -13.187  12.286  33.502  1.00  0.00     0.209 HD
ENDBRANCH  29  30
ENDBRANCH  26  29
ENDBRANCH  22  23
ENDBRANCH  11  22
BRANCH   7  32
HETATM   32  C12 UNL     1      -7.098  16.910  29.482  1.00  0.00     0.067 C 
BRANCH  32  33
HETATM   33  C13 UNL     1      -7.032  16.003  30.678  1.00  0.00    -0.056 A 
HETATM   34  C14 UNL     1      -7.660  14.790  30.598  1.00  0.00     0.007 A 
HETATM   35  C15 UNL     1      -7.612  13.941  31.707  1.00  0.00     0.001 A 
HETATM   36  C16 UNL     1      -6.946  14.318  32.858  1.00  0.00     0.000 A 
HETATM   37  C17 UNL     1      -6.318  15.521  32.944  1.00  0.00     0.001 A 
HETATM   38  C18 UNL     1      -6.375  16.350  31.837  1.00  0.00     0.007 A 
ENDBRANCH  32  33
ENDBRANCH   7  32
BRANCH  10  39
HETATM   39  C22 UNL     1     -10.259  14.983  24.687  1.00  0.00     0.067 C 
BRANCH  39  40
HETATM   40  C23 UNL     1      -9.551  15.439  23.467  1.00  0.00    -0.056 A 
HETATM   41  C24 UNL     1     -10.037  16.484  22.713  1.00  0.00     0.007 A 
HETATM   42  C25 UNL     1      -9.412  16.928  21.562  1.00  0.00     0.001 A 
HETATM   43  C26 UNL     1      -8.272  16.323  21.137  1.00  0.00     0.000 A 
HETATM   44  C27 UNL     1      -7.759  15.275  21.868  1.00  0.00     0.001 A 
HETATM   45  C28 UNL     1      -8.396  14.830  23.032  1.00  0.00     0.007 A 
ENDBRANCH  39  40
ENDBRANCH  10  39
BRANCH   8  46
HETATM   46  O2  UNL     1      -8.560  18.020  26.759  1.00  0.00    -0.391 OA
ATOM     47  H2  UNL     1      -9.126  17.892  26.006  1.00  0.00     0.210 HD
ENDBRANCH   8  46
BRANCH   9  48
HETATM   48  O3  UNL     1      -8.023  14.498  26.665  1.00  0.00    -0.391 OA
ATOM     49  H3  UNL     1      -8.776  14.037  27.015  1.00  0.00     0.210 HD
ENDBRANCH   9  48
TORSDOF 14
ENDMDL
