MODEL 2
REMARK VINA RESULT: -8.124110410      0.414      1.280
REMARK  14 active torsions:
REMARK  status: ('A' for Active; 'I' for Inactive)
REMARK    1  A    between atoms: N3_6  and  C3_7 
REMARK    2  A    between atoms: C3_7  and  C4_8 
REMARK    3  A    between atoms: C7_11  and  C8_12 
REMARK    4  A    between atoms: C8_12  and  O1_13 
REMARK    5  A    between atoms: C11_17  and  C12_18 
REMARK    6  A    between atoms: C12_18  and  C13_19 
REMARK    7  A    between atoms: C19_25  and  O2_26 
REMARK    8  A    between atoms: C20_28  and  O3_29 
REMARK    9  A    between atoms: C21_31  and  C22_32 
REMARK   10  A    between atoms: C22_32  and  C23_33 
REMARK   11  A    between atoms: N4_39  and  C29_40 
REMARK   12  A    between atoms: C29_40  and  C30_41 
REMARK   13  A    between atoms: C33_44  and  C34_45 
REMARK   14  A    between atoms: C34_45  and  O4_46 
ROOT
HETATM    1  N1  UNL     1      -1.779  20.954  21.043  1.00  0.00    -0.171 NA
HETATM    2  C1  UNL     1      -2.585  20.146  20.859  1.00  0.00     0.196 C 
HETATM    3  N2  UNL     1      -3.581  19.194  20.594  1.00  0.00    -0.126 N 
ATOM      4  H2  UNL     1      -3.897  19.120  19.627  1.00  0.00     0.197 HD
HETATM    5  C2  UNL     1      -4.132  18.412  21.436  1.00  0.00     0.692 C 
HETATM    6  N3  UNL     1      -5.137  17.547  20.857  1.00  0.00    -0.184 N 
HETATM    7  C11 UNL     1      -5.859  16.564  21.686  1.00  0.00     0.143 C 
HETATM    8  C19 UNL     1      -6.491  17.284  22.858  1.00  0.00     0.173 C 
HETATM    9  C20 UNL     1      -5.533  17.373  24.035  1.00  0.00     0.172 C 
HETATM   10  C21 UNL     1      -4.617  18.550  23.951  1.00  0.00     0.138 C 
HETATM   11  N4  UNL     1      -3.705  18.499  22.802  1.00  0.00    -0.205 N 
ENDROOT
BRANCH   6  12
HETATM   12  C3  UNL     1      -5.421  17.671  19.472  1.00  0.00     0.121 C 
BRANCH  12  13
HETATM   13  C4  UNL     1      -4.533  17.104  18.478  1.00  0.00    -0.020 A 
HETATM   14  C5  UNL     1      -4.261  17.703  17.275  1.00  0.00     0.013 A 
HETATM   15  C6  UNL     1      -3.379  17.112  16.362  1.00  0.00     0.010 A 
HETATM   16  C7  UNL     1      -2.766  15.919  16.649  1.00  0.00    -0.035 A 
HETATM   17  C9  UNL     1      -3.034  15.313  17.852  1.00  0.00     0.010 A 
HETATM   18  C10 UNL     1      -3.892  15.905  18.722  1.00  0.00     0.013 A 
BRANCH  16  19
HETATM   19  C8  UNL     1      -1.820  15.263  15.691  1.00  0.00     0.202 C 
BRANCH  19  20
HETATM   20  O1  UNL     1      -1.573  13.970  16.142  1.00  0.00    -0.396 OA
ATOM     21  H1  UNL     1      -2.382  13.475  16.079  1.00  0.00     0.209 HD
ENDBRANCH  19  20
ENDBRANCH  16  19
ENDBRANCH  12  13
ENDBRANCH   6  12
BRANCH  11  22
HETATM   22  C29 UNL     1      -2.305  18.581  23.080  1.00  0.00     0.180 C 
BRANCH  22  23
HETATM   23  C30 UNL     1      -1.586  17.303  23.100  1.00  0.00    -0.040 A 
HETATM   24  C31 UNL     1      -1.530  16.514  24.259  1.00  0.00     0.009 A 
HETATM   25  C32 UNL     1      -0.900  15.301  24.256  1.00  0.00     0.010 A 
HETATM   26  C33 UNL     1      -0.286  14.769  23.147  1.00  0.00    -0.035 A 
HETATM   27  C35 UNL     1      -0.328  15.525  22.000  1.00  0.00     0.010 A 
HETATM   28  C36 UNL     1      -0.973  16.773  21.993  1.00  0.00     0.009 A 
BRANCH  26  29
HETATM   29  C34 UNL     1       0.380  13.439  23.199  1.00  0.00     0.202 C 
BRANCH  29  30
HETATM   30  O4  UNL     1      -0.121  12.672  24.256  1.00  0.00    -0.396 OA
ATOM     31  H4  UNL     1       0.455  12.716  25.010  1.00  0.00     0.209 HD
ENDBRANCH  29  30
ENDBRANCH  26  29
ENDBRANCH  22  23
ENDBRANCH  11  22
BRANCH   7  32
HETATM   32  C12 UNL     1      -6.742  15.669  20.926  1.00  0.00     0.067 C 
BRANCH  32  33
HETATM   33  C13 UNL     1      -8.107  15.566  21.545  1.00  0.00    -0.056 A 
HETATM   34  C14 UNL     1      -9.081  16.416  21.095  1.00  0.00     0.007 A 
HETATM   35  C15 UNL     1     -10.352  16.336  21.670  1.00  0.00     0.001 A 
HETATM   36  C16 UNL     1     -10.621  15.420  22.668  1.00  0.00     0.000 A 
HETATM   37  C17 UNL     1      -9.659  14.571  23.120  1.00  0.00     0.001 A 
HETATM   38  C18 UNL     1      -8.405  14.663  22.540  1.00  0.00     0.007 A 
ENDBRANCH  32  33
ENDBRANCH   7  32
BRANCH  10  39
HETATM   39  C22 UNL     1      -3.912  18.840  25.243  1.00  0.00     0.067 C 
BRANCH  39  40
HETATM   40  C23 UNL     1      -4.838  18.572  26.367  1.00  0.00    -0.056 A 
HETATM   41  C24 UNL     1      -5.932  19.378  26.595  1.00  0.00     0.007 A 
HETATM   42  C25 UNL     1      -6.811  19.168  27.642  1.00  0.00     0.001 A 
HETATM   43  C26 UNL     1      -6.606  18.131  28.496  1.00  0.00     0.000 A 
HETATM   44  C27 UNL     1      -5.521  17.305  28.297  1.00  0.00     0.001 A 
HETATM   45  C28 UNL     1      -4.636  17.523  27.236  1.00  0.00     0.007 A 
ENDBRANCH  39  40
ENDBRANCH  10  39
BRANCH   8  46
HETATM   46  O2  UNL     1      -6.878  18.549  22.499  1.00  0.00    -0.391 OA
ATOM     47  H2  UNL     1      -6.968  18.618  21.555  1.00  0.00     0.210 HD
ENDBRANCH   8  46
BRANCH   9  48
HETATM   48  O3  UNL     1      -4.872  16.159  24.223  1.00  0.00    -0.391 OA
ATOM     49  H3  UNL     1      -4.448  16.137  25.073  1.00  0.00     0.210 HD
ENDBRANCH   9  48
TORSDOF 14
ENDMDL
