MODEL 15
REMARK VINA RESULT: -11.067736953      3.121     10.739
REMARK  10 active torsions:
REMARK  status: ('A' for Active; 'I' for Inactive)
REMARK    1  A    between atoms: N1_3  and  C2_4 
REMARK    2  A    between atoms: C2_4  and  C3_5 
REMARK    3  A    between atoms: C13_15  and  C14_16 
REMARK    4  A    between atoms: C14_16  and  C15_17 
REMARK    5  A    between atoms: C21_23  and  O2_24 
REMARK    6  A    between atoms: C22_26  and  O3_27 
REMARK    7  A    between atoms: C23_29  and  C24_30 
REMARK    8  A    between atoms: C24_30  and  C25_31 
REMARK    9  A    between atoms: N2_37  and  C31_38 
REMARK   10  A    between atoms: C31_38  and  C32_39 
ROOT
HETATM    1  O1  UNL     1     -11.535  13.205  28.566  1.00  0.00    -0.247 OA
HETATM    2  C1  UNL     1     -11.212  13.772  29.671  1.00  0.00     0.325 C 
HETATM    3  N1  UNL     1      -9.950  14.500  29.522  1.00  0.00    -0.300 N 
HETATM    4  C13 UNL     1      -9.623  15.588  30.336  1.00  0.00     0.029 C 
HETATM    5  C21 UNL     1      -9.576  15.099  31.799  1.00  0.00     0.195 C 
HETATM    6  C22 UNL     1     -10.939  15.036  32.410  1.00  0.00     0.175 C 
HETATM    7  C23 UNL     1     -11.729  13.799  32.188  1.00  0.00     0.125 C 
HETATM    8  N2  UNL     1     -12.064  13.614  30.792  1.00  0.00    -0.322 N 
ENDROOT
BRANCH   3   9
HETATM    9  C2  UNL     1      -9.090  13.954  28.489  1.00  0.00     0.172 C 
BRANCH   9  10
HETATM   10  C3  UNL     1      -9.377  14.436  27.138  1.00  0.00    -0.039 A 
HETATM   11  C4  UNL     1     -10.605  14.983  26.840  1.00  0.00     0.010 A 
HETATM   12  C5  UNL     1     -10.897  15.434  25.548  1.00  0.00     0.013 A 
HETATM   13  C6  UNL     1      -9.961  15.341  24.550  1.00  0.00    -0.026 A 
HETATM   14  C7  UNL     1     -10.249  15.791  23.267  1.00  0.00     0.012 A 
HETATM   15  C11 UNL     1      -8.732  14.801  24.825  1.00  0.00    -0.025 A 
HETATM   16  C8  UNL     1      -9.279  15.677  22.309  1.00  0.00     0.001 A 
HETATM   17  C9  UNL     1      -8.033  15.137  22.565  1.00  0.00     0.001 A 
HETATM   18  C10 UNL     1      -7.748  14.689  23.837  1.00  0.00     0.012 A 
HETATM   19  C12 UNL     1      -8.479  14.366  26.110  1.00  0.00     0.021 A 
ENDBRANCH   9  10
ENDBRANCH   3   9
BRANCH   4  20
HETATM   20  C14 UNL     1      -8.632  16.616  30.034  1.00  0.00     0.094 C 
BRANCH  20  21
HETATM   21  C15 UNL     1      -8.681  17.299  28.736  1.00  0.00    -0.053 A 
HETATM   22  C16 UNL     1      -7.523  17.307  27.923  1.00  0.00     0.007 A 
HETATM   23  C17 UNL     1      -7.507  17.872  26.673  1.00  0.00     0.001 A 
HETATM   24  C18 UNL     1      -8.638  18.462  26.158  1.00  0.00     0.000 A 
HETATM   25  C19 UNL     1      -9.779  18.477  26.906  1.00  0.00     0.001 A 
HETATM   26  C20 UNL     1      -9.766  17.897  28.168  1.00  0.00     0.007 A 
ENDBRANCH  20  21
ENDBRANCH   4  20
BRANCH   8  27
HETATM   27  C31 UNL     1     -13.421  13.192  30.439  1.00  0.00     0.166 C 
BRANCH  27  28
HETATM   28  C32 UNL     1     -13.743  11.819  30.845  1.00  0.00    -0.039 A 
HETATM   29  C33 UNL     1     -15.029  11.533  31.258  1.00  0.00     0.010 A 
HETATM   30  C34 UNL     1     -15.405  10.262  31.662  1.00  0.00     0.013 A 
HETATM   31  C35 UNL     1     -14.481   9.236  31.660  1.00  0.00    -0.026 A 
HETATM   32  C36 UNL     1     -14.845   7.945  32.063  1.00  0.00     0.012 A 
HETATM   33  C40 UNL     1     -13.199   9.513  31.252  1.00  0.00    -0.025 A 
HETATM   34  C37 UNL     1     -13.866   6.968  32.035  1.00  0.00     0.001 A 
HETATM   35  C38 UNL     1     -12.570   7.210  31.631  1.00  0.00     0.001 A 
HETATM   36  C39 UNL     1     -12.254   8.498  31.241  1.00  0.00     0.012 A 
HETATM   37  C41 UNL     1     -12.838  10.791  30.850  1.00  0.00     0.021 A 
ENDBRANCH  27  28
ENDBRANCH   8  27
BRANCH   5  38
HETATM   38  O2  UNL     1      -8.795  14.001  31.988  1.00  0.00    -0.387 OA
ATOM     39  H2  UNL     1      -9.276  13.182  31.982  1.00  0.00     0.210 HD
ENDBRANCH   5  38
BRANCH   7  40
HETATM   40  C24 UNL     1     -12.962  13.833  33.058  1.00  0.00     0.066 C 
BRANCH  40  41
HETATM   41  C25 UNL     1     -12.707  13.034  34.289  1.00  0.00    -0.056 A 
HETATM   42  C26 UNL     1     -11.952  13.501  35.333  1.00  0.00     0.007 A 
HETATM   43  C27 UNL     1     -11.715  12.723  36.436  1.00  0.00     0.001 A 
HETATM   44  C28 UNL     1     -12.220  11.443  36.545  1.00  0.00     0.000 A 
HETATM   45  C29 UNL     1     -12.980  10.956  35.507  1.00  0.00     0.001 A 
HETATM   46  C30 UNL     1     -13.214  11.759  34.388  1.00  0.00     0.007 A 
ENDBRANCH  40  41
ENDBRANCH   7  40
BRANCH   6  47
HETATM   47  O3  UNL     1     -11.651  16.161  32.035  1.00  0.00    -0.391 OA
ATOM     48  H3  UNL     1     -11.635  16.234  31.088  1.00  0.00     0.210 HD
ENDBRANCH   6  47
TORSDOF 10
ENDMDL
