MODEL 16
REMARK VINA RESULT: -10.974545885      2.464      4.130
REMARK  10 active torsions:
REMARK  status: ('A' for Active; 'I' for Inactive)
REMARK    1  A    between atoms: N1_3  and  C2_4 
REMARK    2  A    between atoms: C2_4  and  C3_5 
REMARK    3  A    between atoms: C13_15  and  C14_16 
REMARK    4  A    between atoms: C14_16  and  C15_17 
REMARK    5  A    between atoms: C21_23  and  O2_24 
REMARK    6  A    between atoms: C22_26  and  O3_27 
REMARK    7  A    between atoms: C23_29  and  C24_30 
REMARK    8  A    between atoms: C24_30  and  C25_31 
REMARK    9  A    between atoms: N2_37  and  C31_38 
REMARK   10  A    between atoms: C31_38  and  C32_39 
ROOT
HETATM    1  O1  UNL     1      -9.009  16.477  31.896  1.00  0.00    -0.247 OA
HETATM    2  C1  UNL     1      -9.934  15.898  31.219  1.00  0.00     0.325 C 
HETATM    3  N1  UNL     1     -10.645  14.926  32.051  1.00  0.00    -0.300 N 
HETATM    4  C13 UNL     1     -11.961  14.542  31.780  1.00  0.00     0.029 C 
HETATM    5  C21 UNL     1     -11.996  13.897  30.377  1.00  0.00     0.195 C 
HETATM    6  C22 UNL     1     -12.058  14.925  29.293  1.00  0.00     0.175 C 
HETATM    7  C23 UNL     1     -10.773  15.499  28.823  1.00  0.00     0.125 C 
HETATM    8  N2  UNL     1     -10.109  16.261  29.860  1.00  0.00    -0.322 N 
ENDROOT
BRANCH   3   9
HETATM    9  C2  UNL     1      -9.837  14.397  33.134  1.00  0.00     0.172 C 
BRANCH   9  10
HETATM   10  C3  UNL     1     -10.530  14.291  34.417  1.00  0.00    -0.039 A 
HETATM   11  C4  UNL     1     -10.918  15.426  35.094  1.00  0.00     0.010 A 
HETATM   12  C5  UNL     1     -11.569  15.338  36.330  1.00  0.00     0.013 A 
HETATM   13  C6  UNL     1     -11.835  14.117  36.892  1.00  0.00    -0.026 A 
HETATM   14  C7  UNL     1     -12.483  14.028  38.119  1.00  0.00     0.012 A 
HETATM   15  C11 UNL     1     -11.457  12.974  36.235  1.00  0.00    -0.025 A 
HETATM   16  C8  UNL     1     -12.725  12.784  38.634  1.00  0.00     0.001 A 
HETATM   17  C9  UNL     1     -12.355  11.620  37.988  1.00  0.00     0.001 A 
HETATM   18  C10 UNL     1     -11.711  11.708  36.772  1.00  0.00     0.012 A 
HETATM   19  C12 UNL     1     -10.817  13.098  35.018  1.00  0.00     0.021 A 
ENDBRANCH   9  10
ENDBRANCH   3   9
BRANCH   4  20
HETATM   20  C14 UNL     1     -12.886  13.928  32.726  1.00  0.00     0.094 C 
BRANCH  20  21
HETATM   21  C15 UNL     1     -13.498  12.636  32.393  1.00  0.00    -0.053 A 
HETATM   22  C16 UNL     1     -14.385  12.563  31.294  1.00  0.00     0.007 A 
HETATM   23  C17 UNL     1     -14.951  11.381  30.884  1.00  0.00     0.001 A 
HETATM   24  C18 UNL     1     -14.669  10.207  31.541  1.00  0.00     0.000 A 
HETATM   25  C19 UNL     1     -13.818  10.229  32.608  1.00  0.00     0.001 A 
HETATM   26  C20 UNL     1     -13.260  11.439  33.000  1.00  0.00     0.007 A 
ENDBRANCH  20  21
ENDBRANCH   4  20
BRANCH   8  27
HETATM   27  C31 UNL     1      -9.511  17.553  29.518  1.00  0.00     0.166 C 
BRANCH  27  28
HETATM   28  C32 UNL     1      -8.251  17.447  28.773  1.00  0.00    -0.039 A 
HETATM   29  C33 UNL     1      -7.460  16.333  28.961  1.00  0.00     0.010 A 
HETATM   30  C34 UNL     1      -6.255  16.166  28.297  1.00  0.00     0.013 A 
HETATM   31  C35 UNL     1      -5.813  17.134  27.417  1.00  0.00    -0.026 A 
HETATM   32  C36 UNL     1      -4.599  16.981  26.737  1.00  0.00     0.012 A 
HETATM   33  C40 UNL     1      -6.595  18.247  27.226  1.00  0.00    -0.025 A 
HETATM   34  C37 UNL     1      -4.221  17.992  25.871  1.00  0.00     0.001 A 
HETATM   35  C38 UNL     1      -4.980  19.123  25.654  1.00  0.00     0.001 A 
HETATM   36  C39 UNL     1      -6.171  19.233  26.346  1.00  0.00     0.012 A 
HETATM   37  C41 UNL     1      -7.799  18.399  27.898  1.00  0.00     0.021 A 
ENDBRANCH  27  28
ENDBRANCH   8  27
BRANCH   5  38
HETATM   38  O2  UNL     1     -11.075  12.912  30.202  1.00  0.00    -0.387 OA
ATOM     39  H2  UNL     1     -11.237  12.366  29.441  1.00  0.00     0.210 HD
ENDBRANCH   5  38
BRANCH   7  40
HETATM   40  C24 UNL     1     -11.022  16.333  27.590  1.00  0.00     0.066 C 
BRANCH  40  41
HETATM   41  C25 UNL     1     -10.054  15.933  26.531  1.00  0.00    -0.056 A 
HETATM   42  C26 UNL     1      -9.382  14.739  26.555  1.00  0.00     0.007 A 
HETATM   43  C27 UNL     1      -8.476  14.420  25.577  1.00  0.00     0.001 A 
HETATM   44  C28 UNL     1      -8.201  15.280  24.534  1.00  0.00     0.000 A 
HETATM   45  C29 UNL     1      -8.864  16.483  24.493  1.00  0.00     0.001 A 
HETATM   46  C30 UNL     1      -9.785  16.797  25.496  1.00  0.00     0.007 A 
ENDBRANCH  40  41
ENDBRANCH   7  40
BRANCH   6  47
HETATM   47  O3  UNL     1     -12.947  15.917  29.666  1.00  0.00    -0.391 OA
ATOM     48  H3  UNL     1     -12.460  16.714  29.845  1.00  0.00     0.210 HD
ENDBRANCH   6  47
TORSDOF 10
ENDMDL
