MODEL 10
REMARK VINA RESULT: -11.215417398      2.597      6.315
REMARK  10 active torsions:
REMARK  status: ('A' for Active; 'I' for Inactive)
REMARK    1  A    between atoms: N1_3  and  C2_4 
REMARK    2  A    between atoms: C2_4  and  C3_5 
REMARK    3  A    between atoms: C13_15  and  C14_16 
REMARK    4  A    between atoms: C14_16  and  C15_17 
REMARK    5  A    between atoms: C21_23  and  O2_24 
REMARK    6  A    between atoms: C22_26  and  O3_27 
REMARK    7  A    between atoms: C23_29  and  C24_30 
REMARK    8  A    between atoms: C24_30  and  C25_31 
REMARK    9  A    between atoms: N2_37  and  C31_38 
REMARK   10  A    between atoms: C31_38  and  C32_39 
ROOT
HETATM    1  O1  UNL     1     -11.206  13.111  28.265  1.00  0.00    -0.247 OA
HETATM    2  C1  UNL     1     -10.784  13.926  29.163  1.00  0.00     0.325 C 
HETATM    3  N1  UNL     1     -11.706  13.956  30.300  1.00  0.00    -0.300 N 
HETATM    4  C13 UNL     1     -11.287  14.316  31.584  1.00  0.00     0.029 C 
HETATM    5  C21 UNL     1     -10.749  15.762  31.528  1.00  0.00     0.195 C 
HETATM    6  C22 UNL     1      -9.337  15.813  31.038  1.00  0.00     0.175 C 
HETATM    7  C23 UNL     1      -9.126  15.846  29.570  1.00  0.00     0.125 C 
HETATM    8  N2  UNL     1      -9.575  14.627  28.930  1.00  0.00    -0.322 N 
ENDROOT
BRANCH   3   9
HETATM    9  C2  UNL     1     -13.071  13.617  29.943  1.00  0.00     0.172 C 
BRANCH   9  10
HETATM   10  C3  UNL     1     -13.567  12.376  30.536  1.00  0.00    -0.039 A 
HETATM   11  C4  UNL     1     -14.820  12.329  31.106  1.00  0.00     0.010 A 
HETATM   12  C5  UNL     1     -15.301  11.152  31.689  1.00  0.00     0.013 A 
HETATM   13  C6  UNL     1     -14.532  10.017  31.705  1.00  0.00    -0.026 A 
HETATM   14  C7  UNL     1     -15.009   8.846  32.283  1.00  0.00     0.012 A 
HETATM   15  C11 UNL     1     -13.282  10.042  31.143  1.00  0.00    -0.025 A 
HETATM   16  C8  UNL     1     -14.201   7.742  32.268  1.00  0.00     0.001 A 
HETATM   17  C9  UNL     1     -12.939   7.744  31.706  1.00  0.00     0.001 A 
HETATM   18  C10 UNL     1     -12.465   8.906  31.134  1.00  0.00     0.012 A 
HETATM   19  C12 UNL     1     -12.839  11.220  30.576  1.00  0.00     0.021 A 
ENDBRANCH   9  10
ENDBRANCH   3   9
BRANCH   4  20
HETATM   20  C14 UNL     1     -11.976  14.000  32.830  1.00  0.00     0.094 C 
BRANCH  20  21
HETATM   21  C15 UNL     1     -11.418  14.479  34.100  1.00  0.00    -0.053 A 
HETATM   22  C16 UNL     1     -11.390  13.602  35.209  1.00  0.00     0.007 A 
HETATM   23  C17 UNL     1     -10.830  13.956  36.411  1.00  0.00     0.001 A 
HETATM   24  C18 UNL     1     -10.268  15.199  36.581  1.00  0.00     0.000 A 
HETATM   25  C19 UNL     1     -10.272  16.079  35.538  1.00  0.00     0.001 A 
HETATM   26  C20 UNL     1     -10.845  15.694  34.332  1.00  0.00     0.007 A 
ENDBRANCH  20  21
ENDBRANCH   4  20
BRANCH   8  27
HETATM   27  C31 UNL     1      -8.734  14.016  27.899  1.00  0.00     0.166 C 
BRANCH  27  28
HETATM   28  C32 UNL     1      -8.991  14.519  26.545  1.00  0.00    -0.039 A 
HETATM   29  C33 UNL     1     -10.198  15.134  26.283  1.00  0.00     0.010 A 
HETATM   30  C34 UNL     1     -10.514  15.629  25.028  1.00  0.00     0.013 A 
HETATM   31  C35 UNL     1      -9.607  15.513  23.993  1.00  0.00    -0.026 A 
HETATM   32  C36 UNL     1      -9.909  16.009  22.719  1.00  0.00     0.012 A 
HETATM   33  C40 UNL     1      -8.404  14.901  24.246  1.00  0.00    -0.025 A 
HETATM   34  C37 UNL     1      -8.952  15.856  21.732  1.00  0.00     0.001 A 
HETATM   35  C38 UNL     1      -7.733  15.248  21.949  1.00  0.00     0.001 A 
HETATM   36  C39 UNL     1      -7.478  14.773  23.221  1.00  0.00     0.012 A 
HETATM   37  C41 UNL     1      -8.102  14.410  25.509  1.00  0.00     0.021 A 
ENDBRANCH  27  28
ENDBRANCH   8  27
BRANCH   5  38
HETATM   38  O2  UNL     1     -11.605  16.646  30.948  1.00  0.00    -0.387 OA
ATOM     39  H2  UNL     1     -11.465  16.762  30.016  1.00  0.00     0.210 HD
ENDBRANCH   5  38
BRANCH   7  40
HETATM   40  C24 UNL     1      -7.670  16.123  29.282  1.00  0.00     0.066 C 
BRANCH  40  41
HETATM   41  C25 UNL     1      -7.572  16.991  28.076  1.00  0.00    -0.056 A 
HETATM   42  C26 UNL     1      -8.580  17.832  27.684  1.00  0.00     0.007 A 
HETATM   43  C27 UNL     1      -8.462  18.592  26.549  1.00  0.00     0.001 A 
HETATM   44  C28 UNL     1      -7.334  18.545  25.756  1.00  0.00     0.000 A 
HETATM   45  C29 UNL     1      -6.312  17.706  26.133  1.00  0.00     0.001 A 
HETATM   46  C30 UNL     1      -6.443  16.936  27.291  1.00  0.00     0.007 A 
ENDBRANCH  40  41
ENDBRANCH   7  40
BRANCH   6  47
HETATM   47  O3  UNL     1      -8.621  14.786  31.627  1.00  0.00    -0.391 OA
ATOM     48  H3  UNL     1      -7.757  15.107  31.859  1.00  0.00     0.210 HD
ENDBRANCH   6  47
TORSDOF 10
ENDMDL
