MODEL 11
REMARK VINA RESULT: -7.036140372      4.830     10.221
REMARK  10 active torsions:
REMARK  status: ('A' for Active; 'I' for Inactive)
REMARK    1  A    between atoms: C2_2  and  C3_3 
REMARK    2  A    between atoms: C3_3  and  N1_4 
REMARK    3  A    between atoms: N2_7  and  C5_8 
REMARK    4  A    between atoms: C5_8  and  C6_9 
REMARK    5  A    between atoms: C8_11  and  C9_12 
REMARK    6  A    between atoms: C9_12  and  C10_13 
REMARK    7  A    between atoms: C16_19  and  O2_20 
REMARK    8  A    between atoms: C17_22  and  O3_23 
REMARK    9  A    between atoms: C18_25  and  C19_26 
REMARK   10  A    between atoms: C19_26  and  C20_27 
ROOT
HETATM    1  N1  UNL     1     -12.209  12.799  30.831  1.00  0.00    -0.323 N 
HETATM    2  C4  UNL     1     -12.607  11.416  31.049  1.00  0.00     0.325 C 
HETATM    3  O1  UNL     1     -12.146  10.593  30.225  1.00  0.00    -0.247 OA
HETATM    4  N2  UNL     1     -13.472  10.929  32.111  1.00  0.00    -0.301 N 
HETATM    5  C8  UNL     1     -13.488  11.392  33.425  1.00  0.00     0.029 C 
HETATM    6  C16 UNL     1     -13.771  12.865  33.603  1.00  0.00     0.195 C 
HETATM    7  C17 UNL     1     -13.764  13.714  32.401  1.00  0.00     0.175 C 
HETATM    8  C18 UNL     1     -12.366  13.877  31.753  1.00  0.00     0.125 C 
ENDROOT
BRANCH   5   9
HETATM    9  C9  UNL     1     -14.062  10.615  34.551  1.00  0.00     0.094 C 
BRANCH   9  10
HETATM   10  C10 UNL     1     -13.179  10.370  35.714  1.00  0.00    -0.053 A 
HETATM   11  C11 UNL     1     -12.713  11.237  36.628  1.00  0.00     0.007 A 
HETATM   12  C12 UNL     1     -11.920  10.820  37.676  1.00  0.00     0.001 A 
HETATM   13  C13 UNL     1     -11.556   9.500  37.850  1.00  0.00     0.000 A 
HETATM   14  C14 UNL     1     -12.021   8.602  36.926  1.00  0.00     0.001 A 
HETATM   15  C15 UNL     1     -12.809   9.028  35.890  1.00  0.00     0.007 A 
ENDBRANCH   9  10
ENDBRANCH   5   9
BRANCH   4  16
HETATM   16  C5  UNL     1     -14.370   9.933  31.611  1.00  0.00     0.160 C 
BRANCH  16  17
HETATM   17  C6  UNL     1     -15.551  10.726  31.063  1.00  0.00    -0.017 C 
HETATM   18  C7  UNL     1     -16.725  10.189  30.846  1.00  0.00     0.008 C 
ENDBRANCH  16  17
ENDBRANCH   4  16
BRANCH   6  19
HETATM   19  O2  UNL     1     -15.055  13.025  34.188  1.00  0.00    -0.387 OA
ATOM     20  H2  UNL     1     -14.974  12.977  35.133  1.00  0.00     0.210 HD
ENDBRANCH   6  19
BRANCH   7  21
HETATM   21  O3  UNL     1     -14.198  15.006  32.687  1.00  0.00    -0.391 OA
ATOM     22  H3  UNL     1     -13.667  15.656  32.243  1.00  0.00     0.210 HD
ENDBRANCH   7  21
BRANCH   1  23
HETATM   23  C3  UNL     1     -11.709  13.124  29.522  1.00  0.00     0.154 C 
BRANCH  23  24
HETATM   24  C2  UNL     1     -12.419  14.168  28.781  1.00  0.00    -0.017 C 
HETATM   25  C1  UNL     1     -11.773  15.020  27.997  1.00  0.00     0.008 C 
ENDBRANCH  23  24
ENDBRANCH   1  23
BRANCH   8  26
HETATM   26  C19 UNL     1     -11.333  14.122  32.755  1.00  0.00     0.066 C 
BRANCH  26  27
HETATM   27  C20 UNL     1     -10.228  15.036  32.408  1.00  0.00    -0.056 A 
HETATM   28  C21 UNL     1     -10.296  15.902  31.309  1.00  0.00     0.007 A 
HETATM   29  C22 UNL     1      -9.259  16.752  30.988  1.00  0.00     0.001 A 
HETATM   30  C23 UNL     1      -8.111  16.774  31.751  1.00  0.00     0.000 A 
HETATM   31  C24 UNL     1      -8.022  15.927  32.838  1.00  0.00     0.001 A 
HETATM   32  C25 UNL     1      -9.066  15.083  33.147  1.00  0.00     0.007 A 
ENDBRANCH  26  27
ENDBRANCH   8  26
TORSDOF 10
ENDMDL
