MODEL 5
REMARK VINA RESULT: -7.236287666      1.769      5.382
REMARK  10 active torsions:
REMARK  status: ('A' for Active; 'I' for Inactive)
REMARK    1  A    between atoms: C2_2  and  C3_3 
REMARK    2  A    between atoms: C3_3  and  N1_4 
REMARK    3  A    between atoms: N2_7  and  C5_8 
REMARK    4  A    between atoms: C5_8  and  C6_9 
REMARK    5  A    between atoms: C8_11  and  C9_12 
REMARK    6  A    between atoms: C9_12  and  C10_13 
REMARK    7  A    between atoms: C16_19  and  O2_20 
REMARK    8  A    between atoms: C17_22  and  O3_23 
REMARK    9  A    between atoms: C18_25  and  C19_26 
REMARK   10  A    between atoms: C19_26  and  C20_27 
ROOT
HETATM    1  N1  UNL     1      -9.909  14.795  27.232  1.00  0.00    -0.323 N 
HETATM    2  C4  UNL     1      -9.028  15.063  28.358  1.00  0.00     0.325 C 
HETATM    3  O1  UNL     1      -9.015  14.180  29.247  1.00  0.00    -0.247 OA
HETATM    4  N2  UNL     1      -8.189  16.238  28.532  1.00  0.00    -0.301 N 
HETATM    5  C8  UNL     1      -7.492  16.897  27.522  1.00  0.00     0.029 C 
HETATM    6  C16 UNL     1      -8.327  17.421  26.377  1.00  0.00     0.195 C 
HETATM    7  C17 UNL     1      -9.732  16.991  26.302  1.00  0.00     0.175 C 
HETATM    8  C18 UNL     1      -9.915  15.486  25.982  1.00  0.00     0.125 C 
ENDROOT
BRANCH   5   9
HETATM    9  C9  UNL     1      -6.349  17.805  27.786  1.00  0.00     0.094 C 
BRANCH   9  10
HETATM   10  C10 UNL     1      -5.367  17.979  26.692  1.00  0.00    -0.053 A 
HETATM   11  C11 UNL     1      -5.086  19.073  25.965  1.00  0.00     0.007 A 
HETATM   12  C12 UNL     1      -4.103  19.062  24.998  1.00  0.00     0.001 A 
HETATM   13  C13 UNL     1      -3.353  17.937  24.717  1.00  0.00     0.000 A 
HETATM   14  C14 UNL     1      -3.627  16.811  25.449  1.00  0.00     0.001 A 
HETATM   15  C15 UNL     1      -4.605  16.835  26.407  1.00  0.00     0.007 A 
ENDBRANCH   9  10
ENDBRANCH   5   9
BRANCH   4  16
HETATM   16  C5  UNL     1      -8.219  16.680  29.894  1.00  0.00     0.160 C 
BRANCH  16  17
HETATM   17  C6  UNL     1      -9.338  17.715  29.932  1.00  0.00    -0.017 C 
HETATM   18  C7  UNL     1     -10.605  17.392  29.869  1.00  0.00     0.008 C 
ENDBRANCH  16  17
ENDBRANCH   4  16
BRANCH   6  19
HETATM   19  O2  UNL     1      -8.353  18.839  26.431  1.00  0.00    -0.387 OA
ATOM     20  H2  UNL     1      -7.994  19.188  25.624  1.00  0.00     0.210 HD
ENDBRANCH   6  19
BRANCH   7  21
HETATM   21  O3  UNL     1     -10.420  17.672  25.300  1.00  0.00    -0.391 OA
ATOM     22  H3  UNL     1      -9.980  18.481  25.067  1.00  0.00     0.210 HD
ENDBRANCH   7  21
BRANCH   1  23
HETATM   23  C3  UNL     1     -10.938  13.812  27.441  1.00  0.00     0.154 C 
BRANCH  23  24
HETATM   24  C2  UNL     1     -12.237  14.300  27.907  1.00  0.00    -0.017 C 
HETATM   25  C1  UNL     1     -12.594  14.209  29.180  1.00  0.00     0.008 C 
ENDBRANCH  23  24
ENDBRANCH   1  23
BRANCH   8  26
HETATM   26  C19 UNL     1      -9.020  15.049  24.916  1.00  0.00     0.066 C 
BRANCH  26  27
HETATM   27  C20 UNL     1      -9.151  15.685  23.591  1.00  0.00    -0.056 A 
HETATM   28  C21 UNL     1     -10.313  15.561  22.818  1.00  0.00     0.007 A 
HETATM   29  C22 UNL     1     -10.429  16.156  21.580  1.00  0.00     0.001 A 
HETATM   30  C23 UNL     1      -9.391  16.899  21.060  1.00  0.00     0.000 A 
HETATM   31  C24 UNL     1      -8.236  17.033  21.805  1.00  0.00     0.001 A 
HETATM   32  C25 UNL     1      -8.134  16.433  23.041  1.00  0.00     0.007 A 
ENDBRANCH  26  27
ENDBRANCH   8  26
TORSDOF 10
ENDMDL
