MODEL 7
REMARK VINA RESULT: -7.188337755      1.548      5.593
REMARK  10 active torsions:
REMARK  status: ('A' for Active; 'I' for Inactive)
REMARK    1  A    between atoms: C2_2  and  C3_3 
REMARK    2  A    between atoms: C3_3  and  N1_4 
REMARK    3  A    between atoms: N2_7  and  C5_8 
REMARK    4  A    between atoms: C5_8  and  C6_9 
REMARK    5  A    between atoms: C8_11  and  C9_12 
REMARK    6  A    between atoms: C9_12  and  C10_13 
REMARK    7  A    between atoms: C16_19  and  O2_20 
REMARK    8  A    between atoms: C17_22  and  O3_23 
REMARK    9  A    between atoms: C18_25  and  C19_26 
REMARK   10  A    between atoms: C19_26  and  C20_27 
ROOT
HETATM    1  N1  UNL     1      -7.470  16.603  28.023  1.00  0.00    -0.323 N 
HETATM    2  C4  UNL     1      -8.262  16.222  26.863  1.00  0.00     0.325 C 
HETATM    3  O1  UNL     1      -7.601  15.870  25.859  1.00  0.00    -0.247 OA
HETATM    4  N2  UNL     1      -9.713  16.220  26.778  1.00  0.00    -0.301 N 
HETATM    5  C8  UNL     1     -10.588  15.849  27.796  1.00  0.00     0.029 C 
HETATM    6  C16 UNL     1     -10.470  16.628  29.085  1.00  0.00     0.195 C 
HETATM    7  C17 UNL     1      -9.312  17.522  29.240  1.00  0.00     0.175 C 
HETATM    8  C18 UNL     1      -7.955  16.782  29.354  1.00  0.00     0.125 C 
ENDROOT
BRANCH   5   9
HETATM    9  C9  UNL     1     -12.001  15.464  27.552  1.00  0.00     0.094 C 
BRANCH   9  10
HETATM   10  C10 UNL     1     -12.592  14.469  28.475  1.00  0.00    -0.053 A 
HETATM   11  C11 UNL     1     -13.543  14.634  29.409  1.00  0.00     0.007 A 
HETATM   12  C12 UNL     1     -14.003  13.573  30.161  1.00  0.00     0.001 A 
HETATM   13  C13 UNL     1     -13.519  12.290  30.006  1.00  0.00     0.000 A 
HETATM   14  C14 UNL     1     -12.548  12.104  29.058  1.00  0.00     0.001 A 
HETATM   15  C15 UNL     1     -12.100  13.165  28.316  1.00  0.00     0.007 A 
ENDBRANCH   9  10
ENDBRANCH   5   9
BRANCH   4  16
HETATM   16  C5  UNL     1     -10.143  16.717  25.506  1.00  0.00     0.160 C 
BRANCH  16  17
HETATM   17  C6  UNL     1     -10.039  15.515  24.573  1.00  0.00    -0.017 C 
HETATM   18  C7  UNL     1     -10.116  15.621  23.271  1.00  0.00     0.008 C 
ENDBRANCH  16  17
ENDBRANCH   4  16
BRANCH   6  19
HETATM   19  O2  UNL     1     -11.620  17.445  29.242  1.00  0.00    -0.387 OA
ATOM     20  H2  UNL     1     -11.456  18.293  28.848  1.00  0.00     0.210 HD
ENDBRANCH   6  19
BRANCH   7  21
HETATM   21  O3  UNL     1      -9.415  18.293  30.395  1.00  0.00    -0.391 OA
ATOM     22  H3  UNL     1      -8.933  19.107  30.313  1.00  0.00     0.210 HD
ENDBRANCH   7  21
BRANCH   1  23
HETATM   23  C3  UNL     1      -6.091  16.931  27.779  1.00  0.00     0.154 C 
BRANCH  23  24
HETATM   24  C2  UNL     1      -5.820  18.213  27.126  1.00  0.00    -0.017 C 
HETATM   25  C1  UNL     1      -6.504  19.305  27.434  1.00  0.00     0.008 C 
ENDBRANCH  23  24
ENDBRANCH   1  23
BRANCH   8  26
HETATM   26  C19 UNL     1      -8.041  15.632  30.248  1.00  0.00     0.066 C 
BRANCH  26  27
HETATM   27  C20 UNL     1      -8.668  15.823  31.570  1.00  0.00    -0.056 A 
HETATM   28  C21 UNL     1      -8.072  16.602  32.570  1.00  0.00     0.007 A 
HETATM   29  C22 UNL     1      -8.661  16.774  33.805  1.00  0.00     0.001 A 
HETATM   30  C23 UNL     1      -9.869  16.176  34.094  1.00  0.00     0.000 A 
HETATM   31  C24 UNL     1     -10.473  15.403  33.122  1.00  0.00     0.001 A 
HETATM   32  C25 UNL     1      -9.873  15.239  31.893  1.00  0.00     0.007 A 
ENDBRANCH  26  27
ENDBRANCH   8  26
TORSDOF 10
ENDMDL
