MODEL 15
REMARK VINA RESULT: -4.956854767      4.356      5.216
REMARK  3 active torsions:
REMARK  status: ('A' for Active; 'I' for Inactive)
REMARK    1  A    between atoms: O1_1  and  C1_3 
REMARK    2  A    between atoms: C2_4  and  O2_5 
REMARK    3  A    between atoms: C7_12  and  O3_13 
ROOT
HETATM    1  C1  UNL     1      28.051  64.681  11.196  1.00  0.00     0.184 C 
HETATM    2  C2  UNL     1      27.223  63.682  11.950  1.00  0.00     0.177 C 
HETATM    3  C3  UNL     1      25.883  63.590  11.245  1.00  0.00     0.307 C 
HETATM    4  N1  UNL     1      26.148  64.231   9.994  1.00  0.00     0.100 N 
HETATM    5  C4  UNL     1      24.982  64.768   9.343  1.00  0.00     0.273 C 
HETATM    6  C5  UNL     1      25.378  65.252   7.989  1.00  0.00     0.033 C 
HETATM    7  C6  UNL     1      26.651  65.989   7.913  1.00  0.00     0.036 C 
HETATM    8  C7  UNL     1      27.573  65.889   9.052  1.00  0.00     0.154 C 
HETATM    9  C8  UNL     1      26.999  65.372  10.325  1.00  0.00     0.282 C 
ENDROOT
BRANCH   1  10
HETATM   10  O1  UNL     1      28.950  64.087  10.308  1.00  0.00    -0.391 OA
ATOM     11  H1  UNL     1      28.897  64.446   9.430  1.00  0.00     0.210 HD
ENDBRANCH   1  10
BRANCH   2  12
HETATM   12  O2  UNL     1      27.816  62.416  11.979  1.00  0.00    -0.391 OA
ATOM     13  H2  UNL     1      27.173  61.717  11.997  1.00  0.00     0.210 HD
ENDBRANCH   2  12
BRANCH   8  14
HETATM   14  O3  UNL     1      28.152  67.148   9.340  1.00  0.00    -0.393 OA
ATOM     15  H3  UNL     1      28.032  67.747   8.613  1.00  0.00     0.210 HD
ENDBRANCH   8  14
TORSDOF 3
ENDMDL
