MODEL 14
REMARK VINA RESULT: -5.100564303      5.662      7.293
REMARK  3 active torsions:
REMARK  status: ('A' for Active; 'I' for Inactive)
REMARK    1  A    between atoms: O1_1  and  C1_3 
REMARK    2  A    between atoms: C2_4  and  O2_5 
REMARK    3  A    between atoms: C7_12  and  O3_13 
ROOT
HETATM    1  C1  UNL     1      24.593  63.621   9.688  1.00  0.00     0.184 C 
HETATM    2  C2  UNL     1      24.327  64.532   8.526  1.00  0.00     0.177 C 
HETATM    3  C3  UNL     1      25.446  65.556   8.497  1.00  0.00     0.307 C 
HETATM    4  N1  UNL     1      26.418  64.976   9.369  1.00  0.00     0.100 N 
HETATM    5  C4  UNL     1      27.331  65.922   9.956  1.00  0.00     0.273 C 
HETATM    6  C5  UNL     1      28.380  65.167  10.701  1.00  0.00     0.033 C 
HETATM    7  C6  UNL     1      27.908  64.027  11.504  1.00  0.00     0.036 C 
HETATM    8  C7  UNL     1      26.556  63.515  11.244  1.00  0.00     0.154 C 
HETATM    9  C8  UNL     1      25.647  64.407  10.472  1.00  0.00     0.282 C 
ENDROOT
BRANCH   1  10
HETATM   10  O1  UNL     1      25.209  62.425   9.315  1.00  0.00    -0.391 OA
ATOM     11  H1  UNL     1      25.433  62.395   8.393  1.00  0.00     0.210 HD
ENDBRANCH   1  10
BRANCH   2  12
HETATM   12  O2  UNL     1      24.299  63.845   7.308  1.00  0.00    -0.391 OA
ATOM     13  H2  UNL     1      24.066  62.931   7.416  1.00  0.00     0.210 HD
ENDBRANCH   2  12
BRANCH   8  14
HETATM   14  O3  UNL     1      25.897  63.200  12.456  1.00  0.00    -0.393 OA
ATOM     15  H3  UNL     1      26.465  62.696  13.026  1.00  0.00     0.210 HD
ENDBRANCH   8  14
TORSDOF 3
ENDMDL
