MODEL 1
REMARK VINA RESULT: -6.705184703      0.000      0.000
REMARK  3 active torsions:
REMARK  status: ('A' for Active; 'I' for Inactive)
REMARK    1  A    between atoms: O1_1  and  C1_3 
REMARK    2  A    between atoms: C2_4  and  O2_5 
REMARK    3  A    between atoms: C7_12  and  O3_13 
ROOT
HETATM    1  C1  UNL     1      32.598  66.954   8.349  1.00  0.00     0.184 C 
HETATM    2  C2  UNL     1      32.318  66.405   9.717  1.00  0.00     0.177 C 
HETATM    3  C3  UNL     1      30.876  65.936   9.723  1.00  0.00     0.307 C 
HETATM    4  N1  UNL     1      30.553  65.911   8.331  1.00  0.00     0.100 N 
HETATM    5  C4  UNL     1      29.147  66.025   8.044  1.00  0.00     0.273 C 
HETATM    6  C5  UNL     1      28.945  65.819   6.580  1.00  0.00     0.033 C 
HETATM    7  C6  UNL     1      29.918  66.479   5.695  1.00  0.00     0.036 C 
HETATM    8  C7  UNL     1      31.168  66.971   6.290  1.00  0.00     0.154 C 
HETATM    9  C8  UNL     1      31.188  67.103   7.773  1.00  0.00     0.282 C 
ENDROOT
BRANCH   1  10
HETATM   10  O1  UNL     1      33.253  66.043   7.518  1.00  0.00    -0.391 OA
ATOM     11  H1  UNL     1      33.608  66.444   6.734  1.00  0.00     0.210 HD
ENDBRANCH   1  10
BRANCH   2  12
HETATM   12  O2  UNL     1      33.154  65.331  10.039  1.00  0.00    -0.391 OA
ATOM     13  H2  UNL     1      33.686  65.505  10.806  1.00  0.00     0.210 HD
ENDBRANCH   2  12
BRANCH   8  14
HETATM   14  O3  UNL     1      31.512  68.236   5.757  1.00  0.00    -0.393 OA
ATOM     15  H3  UNL     1      31.793  68.827   6.446  1.00  0.00     0.210 HD
ENDBRANCH   8  14
TORSDOF 3
ENDMDL
