MODEL 11
REMARK VINA RESULT: -5.258777599      3.124      4.646
REMARK  3 active torsions:
REMARK  status: ('A' for Active; 'I' for Inactive)
REMARK    1  A    between atoms: O1_1  and  C1_3 
REMARK    2  A    between atoms: C2_4  and  O2_5 
REMARK    3  A    between atoms: C7_12  and  O3_13 
ROOT
HETATM    1  C1  UNL     1      27.416  65.862   9.693  1.00  0.00     0.184 C 
HETATM    2  C2  UNL     1      26.561  65.873   8.461  1.00  0.00     0.177 C 
HETATM    3  C3  UNL     1      27.440  66.325   7.310  1.00  0.00     0.307 C 
HETATM    4  N1  UNL     1      28.755  66.197   7.858  1.00  0.00     0.100 N 
HETATM    5  C4  UNL     1      29.746  67.029   7.228  1.00  0.00     0.273 C 
HETATM    6  C5  UNL     1      31.084  66.673   7.783  1.00  0.00     0.033 C 
HETATM    7  C6  UNL     1      31.143  66.456   9.238  1.00  0.00     0.036 C 
HETATM    8  C7  UNL     1      29.877  66.260   9.957  1.00  0.00     0.154 C 
HETATM    9  C8  UNL     1      28.637  66.664   9.238  1.00  0.00     0.282 C 
ENDROOT
BRANCH   1  10
HETATM   10  O1  UNL     1      27.894  64.591  10.015  1.00  0.00    -0.391 OA
ATOM     11  H1  UNL     1      27.237  64.038  10.419  1.00  0.00     0.210 HD
ENDBRANCH   1  10
BRANCH   2  12
HETATM   12  O2  UNL     1      26.033  64.611   8.169  1.00  0.00    -0.391 OA
ATOM     13  H2  UNL     1      26.181  64.358   7.266  1.00  0.00     0.210 HD
ENDBRANCH   2  12
BRANCH   8  14
HETATM   14  O3  UNL     1      29.887  66.955  11.189  1.00  0.00    -0.393 OA
ATOM     15  H3  UNL     1      30.256  66.414  11.878  1.00  0.00     0.210 HD
ENDBRANCH   8  14
TORSDOF 3
ENDMDL
