MODEL 11
REMARK VINA RESULT: -9.781466096      4.197     10.692
REMARK  14 active torsions:
REMARK  status: ('A' for Active; 'I' for Inactive)
REMARK    1  A    between atoms: C2_2  and  N1_5 
REMARK       I    between atoms: N1_5  and  C5_7 
REMARK    2  A    between atoms: C5_7  and  C6_9 
REMARK    3  A    between atoms: N2_18  and  C15_19 
REMARK    4  A    between atoms: C15_19  and  C16_20 
REMARK    5  A    between atoms: C16_20  and  O2_21 
REMARK    6  A    between atoms: C16_20  and  C17_23 
REMARK    7  A    between atoms: C17_23  and  C18_24 
REMARK    8  A    between atoms: C17_23  and  N3_31 
REMARK    9  A    between atoms: C18_24  and  C19_25 
REMARK       I    between atoms: N3_31  and  C25_33 
REMARK   10  A    between atoms: C25_33  and  C26_35 
REMARK   11  A    between atoms: C26_35  and  C27_36 
REMARK   12  A    between atoms: C26_35  and  N5_40 
REMARK   13  A    between atoms: C27_36  and  C28_37 
REMARK       I    between atoms: N5_40  and  C29_42 
REMARK   14  A    between atoms: C29_42  and  C30_44 
ROOT
HETATM    1  C17 UNL     1      19.399  -1.490  10.767  1.00  0.00     0.119 C 
ENDROOT
BRANCH   1   2
HETATM    2  C16 UNL     1      20.382  -0.393  11.120  1.00  0.00     0.169 C 
BRANCH   2   3
HETATM    3  C15 UNL     1      20.095   0.403  12.336  1.00  0.00     0.307 C 
BRANCH   3   4
HETATM    4  N2  UNL     1      18.908   1.175  12.407  1.00  0.00     0.105 N 
HETATM    5  C6  UNL     1      18.939   2.178  13.459  1.00  0.00     0.314 C 
HETATM    6  C7  UNL     1      17.653   2.971  13.379  1.00  0.00     0.050 C 
HETATM    7  C8  UNL     1      17.860   3.993  12.277  1.00  0.00    -0.006 C 
HETATM    8  C9  UNL     1      16.517   4.306  11.670  1.00  0.00     0.005 C 
HETATM    9  C13 UNL     1      18.820   3.381  11.278  1.00  0.00     0.018 C 
HETATM   10  C10 UNL     1      16.672   5.504  10.758  1.00  0.00     0.000 C 
HETATM   11  C11 UNL     1      18.042   5.390  10.117  1.00  0.00     0.000 C 
HETATM   12  C12 UNL     1      18.431   3.950   9.908  1.00  0.00     0.007 C 
HETATM   13  C14 UNL     1      18.648   1.895  11.168  1.00  0.00     0.278 C 
BRANCH   5  14
HETATM   14  C5  UNL     1      19.014   1.608  14.819  1.00  0.00     0.252 C 
HETATM   15  N1  UNL     1      18.284   0.475  15.229  1.00  0.00    -0.351 N 
ATOM     16  H1  UNL     1      17.675   0.032  14.541  1.00  0.00     0.163 HD
HETATM   17  O1  UNL     1      19.756   2.142  15.668  1.00  0.00    -0.271 OA
BRANCH  15  18
HETATM   18  C2  UNL     1      18.331  -0.103  16.540  1.00  0.00     0.022 C 
HETATM   19  C1  UNL     1      16.951  -0.505  17.018  1.00  0.00     0.037 C 
HETATM   20  C3  UNL     1      18.912   0.832  17.572  1.00  0.00     0.037 C 
HETATM   21  C4  UNL     1      19.169  -1.360  16.527  1.00  0.00     0.037 C 
ENDBRANCH  15  18
ENDBRANCH   5  14
ENDBRANCH   3   4
ENDBRANCH   2   3
BRANCH   2  22
HETATM   22  O2  UNL     1      21.702  -0.778  10.978  1.00  0.00    -0.392 OA
ATOM     23  H2  UNL     1      21.987  -1.451  11.585  1.00  0.00     0.210 HD
ENDBRANCH   2  22
ENDBRANCH   1   2
BRANCH   1  24
HETATM   24  C18 UNL     1      19.894  -2.781  11.407  1.00  0.00     0.066 C 
BRANCH  24  25
HETATM   25  C19 UNL     1      18.970  -3.908  11.120  1.00  0.00    -0.056 A 
HETATM   26  C20 UNL     1      19.308  -4.877  10.226  1.00  0.00     0.007 A 
HETATM   27  C21 UNL     1      18.474  -5.938   9.940  1.00  0.00     0.001 A 
HETATM   28  C22 UNL     1      17.247  -6.025  10.582  1.00  0.00     0.000 A 
HETATM   29  C23 UNL     1      16.908  -5.036  11.490  1.00  0.00     0.001 A 
HETATM   30  C24 UNL     1      17.736  -3.983  11.774  1.00  0.00     0.007 A 
ENDBRANCH  24  25
ENDBRANCH   1  24
BRANCH   1  31
HETATM   31  N3  UNL     1      19.541  -1.781   9.315  1.00  0.00    -0.352 N 
HETATM   32  C25 UNL     1      18.540  -1.442   8.386  1.00  0.00     0.241 C 
HETATM   33  O3  UNL     1      17.499  -0.874   8.820  1.00  0.00    -0.271 OA
ATOM     34  H3  UNL     1      20.390  -2.240   8.984  1.00  0.00     0.163 HD
BRANCH  32  35
HETATM   35  C26 UNL     1      18.701  -1.746   6.918  1.00  0.00     0.185 C 
BRANCH  35  36
HETATM   36  C27 UNL     1      18.221  -0.576   6.084  1.00  0.00     0.134 C 
BRANCH  36  37
HETATM   37  C28 UNL     1      18.873  -0.537   4.745  1.00  0.00     0.233 C 
HETATM   38  N4  UNL     1      19.767  -1.583   4.406  1.00  0.00    -0.062 NA
HETATM   39  O4  UNL     1      18.624   0.409   3.952  1.00  0.00    -0.277 OA
ENDBRANCH  36  37
ENDBRANCH  35  36
BRANCH  35  40
HETATM   40  N5  UNL     1      17.905  -2.893   6.583  1.00  0.00    -0.342 N 
HETATM   41  C29 UNL     1      18.425  -4.205   6.448  1.00  0.00     0.268 C 
HETATM   42  O5  UNL     1      19.644  -4.375   6.632  1.00  0.00    -0.266 OA
ATOM     43  H5  UNL     1      16.906  -2.756   6.434  1.00  0.00     0.163 HD
BRANCH  41  44
HETATM   44  C30 UNL     1      17.569  -5.349   6.101  1.00  0.00     0.101 A 
HETATM   45  C31 UNL     1      18.038  -6.630   6.291  1.00  0.00     0.036 A 
HETATM   46  C32 UNL     1      17.317  -7.766   5.996  1.00  0.00     0.016 A 
HETATM   47  C33 UNL     1      16.041  -7.569   5.476  1.00  0.00    -0.009 A 
HETATM   48  C34 UNL     1      15.259  -8.671   5.156  1.00  0.00     0.013 A 
HETATM   49  C38 UNL     1      15.586  -6.270   5.292  1.00  0.00     0.043 A 
HETATM   50  C35 UNL     1      14.003  -8.440   4.641  1.00  0.00     0.001 A 
HETATM   51  C36 UNL     1      13.532  -7.153   4.451  1.00  0.00     0.002 A 
HETATM   52  C37 UNL     1      14.315  -6.066   4.772  1.00  0.00     0.030 A 
HETATM   53  N6  UNL     1      16.347  -5.190   5.603  1.00  0.00    -0.351 N 
ATOM     54  H6  UNL     1      15.978  -4.250   5.454  1.00  0.00     0.166 HD
ENDBRANCH  41  44
ENDBRANCH  35  40
ENDBRANCH  32  35
ENDBRANCH   1  31
TORSDOF 14
ENDMDL
