MODEL 3
REMARK VINA RESULT: -10.083673488      1.176      1.665
REMARK  14 active torsions:
REMARK  status: ('A' for Active; 'I' for Inactive)
REMARK    1  A    between atoms: C2_2  and  N1_5 
REMARK       I    between atoms: N1_5  and  C5_7 
REMARK    2  A    between atoms: C5_7  and  C6_9 
REMARK    3  A    between atoms: N2_18  and  C15_19 
REMARK    4  A    between atoms: C15_19  and  C16_20 
REMARK    5  A    between atoms: C16_20  and  O2_21 
REMARK    6  A    between atoms: C16_20  and  C17_23 
REMARK    7  A    between atoms: C17_23  and  C18_24 
REMARK    8  A    between atoms: C17_23  and  N3_31 
REMARK    9  A    between atoms: C18_24  and  C19_25 
REMARK       I    between atoms: N3_31  and  C25_33 
REMARK   10  A    between atoms: C25_33  and  C26_35 
REMARK   11  A    between atoms: C26_35  and  C27_36 
REMARK   12  A    between atoms: C26_35  and  N5_40 
REMARK   13  A    between atoms: C27_36  and  C28_37 
REMARK       I    between atoms: N5_40  and  C29_42 
REMARK   14  A    between atoms: C29_42  and  C30_44 
ROOT
HETATM    1  C17 UNL     1      19.314   1.763  11.170  1.00  0.00     0.119 C 
ENDROOT
BRANCH   1   2
HETATM    2  C16 UNL     1      20.450   0.849  11.582  1.00  0.00     0.169 C 
BRANCH   2   3
HETATM    3  C15 UNL     1      20.415   0.313  12.963  1.00  0.00     0.307 C 
BRANCH   3   4
HETATM    4  N2  UNL     1      19.205   0.349  13.700  1.00  0.00     0.105 N 
HETATM    5  C6  UNL     1      18.693  -0.972  14.025  1.00  0.00     0.314 C 
HETATM    6  C7  UNL     1      17.448  -0.791  14.865  1.00  0.00     0.050 C 
HETATM    7  C8  UNL     1      17.933  -0.534  16.280  1.00  0.00    -0.006 C 
HETATM    8  C9  UNL     1      16.903   0.314  16.981  1.00  0.00     0.005 C 
HETATM    9  C13 UNL     1      19.277   0.155  16.170  1.00  0.00     0.018 C 
HETATM   10  C10 UNL     1      17.245   0.358  18.456  1.00  0.00     0.000 C 
HETATM   11  C11 UNL     1      18.757   0.360  18.554  1.00  0.00     0.000 C 
HETATM   12  C12 UNL     1      19.382   1.082  17.388  1.00  0.00     0.007 C 
HETATM   13  C14 UNL     1      19.356   1.048  14.968  1.00  0.00     0.278 C 
BRANCH   5  14
HETATM   14  C5  UNL     1      18.305  -1.765  12.841  1.00  0.00     0.252 C 
HETATM   15  N1  UNL     1      19.053  -2.856  12.356  1.00  0.00    -0.351 N 
ATOM     16  H1  UNL     1      19.906  -3.103  12.859  1.00  0.00     0.163 HD
HETATM   17  O1  UNL     1      17.264  -1.471  12.219  1.00  0.00    -0.271 OA
BRANCH  15  18
HETATM   18  C2  UNL     1      18.708  -3.644  11.211  1.00  0.00     0.022 C 
HETATM   19  C1  UNL     1      18.746  -2.821   9.939  1.00  0.00     0.037 C 
HETATM   20  C3  UNL     1      17.332  -4.255  11.312  1.00  0.00     0.037 C 
HETATM   21  C4  UNL     1      19.703  -4.767  11.030  1.00  0.00     0.037 C 
ENDBRANCH  15  18
ENDBRANCH   5  14
ENDBRANCH   3   4
ENDBRANCH   2   3
BRANCH   2  22
HETATM   22  O2  UNL     1      20.786  -0.073  10.610  1.00  0.00    -0.392 OA
ATOM     23  H2  UNL     1      20.503  -0.962  10.790  1.00  0.00     0.210 HD
ENDBRANCH   2  22
ENDBRANCH   1   2
BRANCH   1  24
HETATM   24  C18 UNL     1      19.586   2.230   9.746  1.00  0.00     0.066 C 
BRANCH  24  25
HETATM   25  C19 UNL     1      18.817   1.424   8.763  1.00  0.00    -0.056 A 
HETATM   26  C20 UNL     1      17.789   0.629   9.166  1.00  0.00     0.007 A 
HETATM   27  C21 UNL     1      17.054  -0.129   8.277  1.00  0.00     0.001 A 
HETATM   28  C22 UNL     1      17.369  -0.084   6.927  1.00  0.00     0.000 A 
HETATM   29  C23 UNL     1      18.417   0.727   6.524  1.00  0.00     0.001 A 
HETATM   30  C24 UNL     1      19.147   1.479   7.405  1.00  0.00     0.007 A 
ENDBRANCH  24  25
ENDBRANCH   1  24
BRANCH   1  31
HETATM   31  N3  UNL     1      19.439   3.026  11.947  1.00  0.00    -0.352 N 
HETATM   32  C25 UNL     1      18.337   3.615  12.593  1.00  0.00     0.241 C 
HETATM   33  O3  UNL     1      17.217   3.038  12.498  1.00  0.00    -0.271 OA
ATOM     34  H3  UNL     1      20.351   3.477  12.013  1.00  0.00     0.163 HD
BRANCH  32  35
HETATM   35  C26 UNL     1      18.482   4.897  13.375  1.00  0.00     0.185 C 
BRANCH  35  36
HETATM   36  C27 UNL     1      19.907   5.402  13.294  1.00  0.00     0.134 C 
BRANCH  36  37
HETATM   37  C28 UNL     1      20.269   6.248  14.466  1.00  0.00     0.233 C 
HETATM   38  N4  UNL     1      21.113   5.689  15.458  1.00  0.00    -0.062 NA
HETATM   39  O4  UNL     1      19.825   7.423  14.554  1.00  0.00    -0.277 OA
ENDBRANCH  36  37
ENDBRANCH  35  36
BRANCH  35  40
HETATM   40  N5  UNL     1      18.171   4.646  14.753  1.00  0.00    -0.342 N 
HETATM   41  C29 UNL     1      17.238   5.404  15.505  1.00  0.00     0.268 C 
HETATM   42  O5  UNL     1      16.650   6.342  14.937  1.00  0.00    -0.266 OA
ATOM     43  H5  UNL     1      18.650   3.876  15.220  1.00  0.00     0.163 HD
BRANCH  41  44
HETATM   44  C30 UNL     1      16.955   5.109  16.918  1.00  0.00     0.101 A 
HETATM   45  C31 UNL     1      17.840   4.339  17.640  1.00  0.00     0.036 A 
HETATM   46  C32 UNL     1      17.667   4.004  18.966  1.00  0.00     0.016 A 
HETATM   47  C33 UNL     1      16.516   4.491  19.579  1.00  0.00    -0.009 A 
HETATM   48  C34 UNL     1      16.278   4.191  20.913  1.00  0.00     0.013 A 
HETATM   49  C38 UNL     1      15.636   5.264  18.834  1.00  0.00     0.043 A 
HETATM   50  C35 UNL     1      15.129   4.685  21.488  1.00  0.00     0.001 A 
HETATM   51  C36 UNL     1      14.240   5.459  20.762  1.00  0.00     0.002 A 
HETATM   52  C37 UNL     1      14.486   5.751  19.439  1.00  0.00     0.030 A 
HETATM   53  N6  UNL     1      15.865   5.560  17.529  1.00  0.00    -0.351 N 
ATOM     54  H6  UNL     1      15.195   6.132  17.014  1.00  0.00     0.166 HD
ENDBRANCH  41  44
ENDBRANCH  35  40
ENDBRANCH  32  35
ENDBRANCH   1  31
TORSDOF 14
ENDMDL
