MODEL 1
REMARK VINA RESULT: -10.214137018      0.000      0.000
REMARK  14 active torsions:
REMARK  status: ('A' for Active; 'I' for Inactive)
REMARK    1  A    between atoms: C2_2  and  N1_5 
REMARK       I    between atoms: N1_5  and  C5_7 
REMARK    2  A    between atoms: C5_7  and  C6_9 
REMARK    3  A    between atoms: N2_18  and  C15_19 
REMARK    4  A    between atoms: C15_19  and  C16_20 
REMARK    5  A    between atoms: C16_20  and  O2_21 
REMARK    6  A    between atoms: C16_20  and  C17_23 
REMARK    7  A    between atoms: C17_23  and  C18_24 
REMARK    8  A    between atoms: C17_23  and  N3_31 
REMARK    9  A    between atoms: C18_24  and  C19_25 
REMARK       I    between atoms: N3_31  and  C25_33 
REMARK   10  A    between atoms: C25_33  and  C26_35 
REMARK   11  A    between atoms: C26_35  and  C27_36 
REMARK   12  A    between atoms: C26_35  and  N5_40 
REMARK   13  A    between atoms: C27_36  and  C28_37 
REMARK       I    between atoms: N5_40  and  C29_42 
REMARK   14  A    between atoms: C29_42  and  C30_44 
ROOT
HETATM    1  C17 UNL     1      18.282   2.585  10.274  1.00  0.00     0.119 C 
ENDROOT
BRANCH   1   2
HETATM    2  C16 UNL     1      17.992   1.323  11.059  1.00  0.00     0.169 C 
BRANCH   2   3
HETATM    3  C15 UNL     1      18.723   1.141  12.335  1.00  0.00     0.307 C 
BRANCH   3   4
HETATM    4  N2  UNL     1      18.031   0.677  13.482  1.00  0.00     0.105 N 
HETATM    5  C6  UNL     1      18.428  -0.661  13.889  1.00  0.00     0.314 C 
HETATM    6  C7  UNL     1      17.671  -1.003  15.153  1.00  0.00     0.050 C 
HETATM    7  C8  UNL     1      18.429  -0.336  16.287  1.00  0.00    -0.006 C 
HETATM    8  C9  UNL     1      17.447  -0.021  17.385  1.00  0.00     0.005 C 
HETATM    9  C13 UNL     1      19.080   0.905  15.716  1.00  0.00     0.018 C 
HETATM   10  C10 UNL     1      18.224   0.400  18.614  1.00  0.00     0.000 C 
HETATM   11  C11 UNL     1      19.435   1.168  18.123  1.00  0.00     0.000 C 
HETATM   12  C12 UNL     1      19.127   1.927  16.859  1.00  0.00     0.007 C 
HETATM   13  C14 UNL     1      18.248   1.534  14.638  1.00  0.00     0.278 C 
BRANCH   5  14
HETATM   14  C5  UNL     1      18.105  -1.703  12.894  1.00  0.00     0.252 C 
HETATM   15  N1  UNL     1      19.003  -2.720  12.514  1.00  0.00    -0.351 N 
ATOM     16  H1  UNL     1      19.922  -2.727  12.956  1.00  0.00     0.163 HD
HETATM   17  O1  UNL     1      16.984  -1.704  12.348  1.00  0.00    -0.271 OA
BRANCH  15  18
HETATM   18  C2  UNL     1      18.723  -3.745  11.552  1.00  0.00     0.022 C 
HETATM   19  C1  UNL     1      18.181  -3.162  10.263  1.00  0.00     0.037 C 
HETATM   20  C3  UNL     1      17.720  -4.757  12.047  1.00  0.00     0.037 C 
HETATM   21  C4  UNL     1      19.992  -4.484  11.192  1.00  0.00     0.037 C 
ENDBRANCH  15  18
ENDBRANCH   5  14
ENDBRANCH   3   4
ENDBRANCH   2   3
BRANCH   2  22
HETATM   22  O2  UNL     1      16.646   1.013  11.113  1.00  0.00    -0.392 OA
ATOM     23  H2  UNL     1      16.394   0.246  10.613  1.00  0.00     0.210 HD
ENDBRANCH   2  22
ENDBRANCH   1   2
BRANCH   1  24
HETATM   24  C18 UNL     1      19.518   2.328   9.421  1.00  0.00     0.066 C 
BRANCH  24  25
HETATM   25  C19 UNL     1      19.242   1.312   8.372  1.00  0.00    -0.056 A 
HETATM   26  C20 UNL     1      18.706   1.676   7.175  1.00  0.00     0.007 A 
HETATM   27  C21 UNL     1      18.441   0.758   6.180  1.00  0.00     0.001 A 
HETATM   28  C22 UNL     1      18.727  -0.581   6.401  1.00  0.00     0.000 A 
HETATM   29  C23 UNL     1      19.272  -0.945   7.622  1.00  0.00     0.001 A 
HETATM   30  C24 UNL     1      19.535  -0.034   8.610  1.00  0.00     0.007 A 
ENDBRANCH  24  25
ENDBRANCH   1  24
BRANCH   1  31
HETATM   31  N3  UNL     1      18.767   3.616  11.231  1.00  0.00    -0.352 N 
HETATM   32  C25 UNL     1      17.885   4.356  12.039  1.00  0.00     0.241 C 
HETATM   33  O3  UNL     1      16.648   4.121  11.933  1.00  0.00    -0.271 OA
ATOM     34  H3  UNL     1      19.770   3.791  11.303  1.00  0.00     0.163 HD
BRANCH  32  35
HETATM   35  C26 UNL     1      18.394   5.399  13.003  1.00  0.00     0.185 C 
BRANCH  35  36
HETATM   36  C27 UNL     1      19.887   5.241  13.206  1.00  0.00     0.134 C 
BRANCH  36  37
HETATM   37  C28 UNL     1      20.351   5.876  14.471  1.00  0.00     0.233 C 
HETATM   38  N4  UNL     1      20.475   5.058  15.622  1.00  0.00    -0.062 NA
HETATM   39  O4  UNL     1      20.619   7.106  14.496  1.00  0.00    -0.277 OA
ENDBRANCH  36  37
ENDBRANCH  35  36
BRANCH  35  40
HETATM   40  N5  UNL     1      17.747   5.224  14.272  1.00  0.00    -0.342 N 
HETATM   41  C29 UNL     1      17.085   6.264  14.972  1.00  0.00     0.268 C 
HETATM   42  O5  UNL     1      17.060   7.396  14.457  1.00  0.00    -0.266 OA
ATOM     43  H5  UNL     1      17.765   4.296  14.695  1.00  0.00     0.163 HD
BRANCH  41  44
HETATM   44  C30 UNL     1      16.438   6.035  16.273  1.00  0.00     0.101 A 
HETATM   45  C31 UNL     1      15.265   6.693  16.573  1.00  0.00     0.036 A 
HETATM   46  C32 UNL     1      14.583   6.551  17.761  1.00  0.00     0.016 A 
HETATM   47  C33 UNL     1      15.143   5.681  18.692  1.00  0.00    -0.009 A 
HETATM   48  C34 UNL     1      14.508   5.490  19.912  1.00  0.00     0.013 A 
HETATM   49  C38 UNL     1      16.325   5.027  18.373  1.00  0.00     0.043 A 
HETATM   50  C35 UNL     1      15.090   4.625  20.811  1.00  0.00     0.001 A 
HETATM   51  C36 UNL     1      16.268   3.964  20.510  1.00  0.00     0.002 A 
HETATM   52  C37 UNL     1      16.890   4.159  19.297  1.00  0.00     0.030 A 
HETATM   53  N6  UNL     1      16.950   5.210  17.181  1.00  0.00    -0.351 N 
ATOM     54  H6  UNL     1      17.817   4.712  16.981  1.00  0.00     0.166 HD
ENDBRANCH  41  44
ENDBRANCH  35  40
ENDBRANCH  32  35
ENDBRANCH   1  31
TORSDOF 14
ENDMDL
