MODEL 8
REMARK VINA RESULT: -9.862028512      3.764     10.639
REMARK  14 active torsions:
REMARK  status: ('A' for Active; 'I' for Inactive)
REMARK    1  A    between atoms: C2_2  and  N1_5 
REMARK       I    between atoms: N1_5  and  C5_7 
REMARK    2  A    between atoms: C5_7  and  C6_9 
REMARK    3  A    between atoms: N2_18  and  C15_19 
REMARK    4  A    between atoms: C15_19  and  C16_20 
REMARK    5  A    between atoms: C16_20  and  O2_21 
REMARK    6  A    between atoms: C16_20  and  C17_23 
REMARK    7  A    between atoms: C17_23  and  C18_24 
REMARK    8  A    between atoms: C17_23  and  N3_31 
REMARK    9  A    between atoms: C18_24  and  C19_25 
REMARK       I    between atoms: N3_31  and  C25_33 
REMARK   10  A    between atoms: C25_33  and  C26_35 
REMARK   11  A    between atoms: C26_35  and  C27_36 
REMARK   12  A    between atoms: C26_35  and  N5_40 
REMARK   13  A    between atoms: C27_36  and  C28_37 
REMARK       I    between atoms: N5_40  and  C29_42 
REMARK   14  A    between atoms: C29_42  and  C30_44 
ROOT
HETATM    1  C17 UNL     1      18.772  -1.260  11.634  1.00  0.00     0.119 C 
ENDROOT
BRANCH   1   2
HETATM    2  C16 UNL     1      19.492  -0.122  12.328  1.00  0.00     0.169 C 
BRANCH   2   3
HETATM    3  C15 UNL     1      18.911   0.364  13.601  1.00  0.00     0.307 C 
BRANCH   3   4
HETATM    4  N2  UNL     1      18.070   1.504  13.600  1.00  0.00     0.105 N 
HETATM    5  C6  UNL     1      18.693   2.676  14.192  1.00  0.00     0.314 C 
HETATM    6  C7  UNL     1      17.722   3.829  14.064  1.00  0.00     0.050 C 
HETATM    7  C8  UNL     1      17.878   4.352  12.647  1.00  0.00    -0.006 C 
HETATM    8  C9  UNL     1      16.563   4.954  12.224  1.00  0.00     0.005 C 
HETATM    9  C13 UNL     1      18.285   3.177  11.784  1.00  0.00     0.018 C 
HETATM   10  C10 UNL     1      16.777   5.703  10.926  1.00  0.00     0.000 C 
HETATM   11  C11 UNL     1      17.805   4.920  10.134  1.00  0.00     0.000 C 
HETATM   12  C12 UNL     1      17.688   3.441  10.395  1.00  0.00     0.007 C 
HETATM   13  C14 UNL     1      17.672   1.891  12.255  1.00  0.00     0.278 C 
BRANCH   5  14
HETATM   14  C5  UNL     1      18.999   2.524  15.628  1.00  0.00     0.252 C 
HETATM   15  N1  UNL     1      18.136   1.893  16.545  1.00  0.00    -0.351 N 
ATOM     16  H1  UNL     1      17.255   1.524  16.186  1.00  0.00     0.163 HD
HETATM   17  O1  UNL     1      20.074   2.971  16.077  1.00  0.00    -0.271 OA
BRANCH  15  18
HETATM   18  C2  UNL     1      18.401   1.730  17.944  1.00  0.00     0.022 C 
HETATM   19  C1  UNL     1      19.011   2.981  18.542  1.00  0.00     0.037 C 
HETATM   20  C3  UNL     1      19.341   0.587  18.234  1.00  0.00     0.037 C 
HETATM   21  C4  UNL     1      17.114   1.475  18.693  1.00  0.00     0.037 C 
ENDBRANCH  15  18
ENDBRANCH   5  14
ENDBRANCH   3   4
ENDBRANCH   2   3
BRANCH   2  22
HETATM   22  O2  UNL     1      20.865  -0.272  12.337  1.00  0.00    -0.392 OA
ATOM     23  H2  UNL     1      21.201  -0.904  11.712  1.00  0.00     0.210 HD
ENDBRANCH   2  22
ENDBRANCH   1   2
BRANCH   1  24
HETATM   24  C18 UNL     1      19.300  -2.567  12.213  1.00  0.00     0.066 C 
BRANCH  24  25
HETATM   25  C19 UNL     1      18.747  -3.738  11.485  1.00  0.00    -0.056 A 
HETATM   26  C20 UNL     1      19.507  -4.424  10.589  1.00  0.00     0.007 A 
HETATM   27  C21 UNL     1      19.024  -5.517   9.899  1.00  0.00     0.001 A 
HETATM   28  C22 UNL     1      17.720  -5.934  10.121  1.00  0.00     0.000 A 
HETATM   29  C23 UNL     1      16.950  -5.231  11.034  1.00  0.00     0.001 A 
HETATM   30  C24 UNL     1      17.430  -4.146  11.718  1.00  0.00     0.007 A 
ENDBRANCH  24  25
ENDBRANCH   1  24
BRANCH   1  31
HETATM   31  N3  UNL     1      19.258  -1.319  10.229  1.00  0.00    -0.352 N 
HETATM   32  C25 UNL     1      18.470  -0.879   9.149  1.00  0.00     0.241 C 
HETATM   33  O3  UNL     1      17.320  -0.424   9.404  1.00  0.00    -0.271 OA
ATOM     34  H3  UNL     1      20.191  -1.688  10.043  1.00  0.00     0.163 HD
BRANCH  32  35
HETATM   35  C26 UNL     1      18.979  -0.946   7.731  1.00  0.00     0.185 C 
BRANCH  35  36
HETATM   36  C27 UNL     1      18.685   0.351   7.006  1.00  0.00     0.134 C 
BRANCH  36  37
HETATM   37  C28 UNL     1      17.799   0.145   5.826  1.00  0.00     0.233 C 
HETATM   38  N4  UNL     1      18.406  -0.028   4.557  1.00  0.00    -0.062 NA
HETATM   39  O4  UNL     1      16.548   0.130   5.974  1.00  0.00    -0.277 OA
ENDBRANCH  36  37
ENDBRANCH  35  36
BRANCH  35  40
HETATM   40  N5  UNL     1      18.308  -2.010   7.039  1.00  0.00    -0.342 N 
HETATM   41  C29 UNL     1      18.960  -3.168   6.544  1.00  0.00     0.268 C 
HETATM   42  O5  UNL     1      20.187  -3.271   6.721  1.00  0.00    -0.266 OA
ATOM     43  H5  UNL     1      17.302  -1.928   6.895  1.00  0.00     0.163 HD
BRANCH  41  44
HETATM   44  C30 UNL     1      18.228  -4.230   5.839  1.00  0.00     0.101 A 
HETATM   45  C31 UNL     1      18.539  -5.549   6.089  1.00  0.00     0.036 A 
HETATM   46  C32 UNL     1      17.916  -6.617   5.480  1.00  0.00     0.016 A 
HETATM   47  C33 UNL     1      16.916  -6.305   4.563  1.00  0.00    -0.009 A 
HETATM   48  C34 UNL     1      16.247  -7.333   3.911  1.00  0.00     0.013 A 
HETATM   49  C38 UNL     1      16.618  -4.970   4.324  1.00  0.00     0.043 A 
HETATM   50  C35 UNL     1      15.267  -6.990   3.008  1.00  0.00     0.001 A 
HETATM   51  C36 UNL     1      14.954  -5.665   2.758  1.00  0.00     0.002 A 
HETATM   52  C37 UNL     1      15.623  -4.653   3.409  1.00  0.00     0.030 A 
HETATM   53  N6  UNL     1      17.270  -3.962   4.958  1.00  0.00    -0.351 N 
ATOM     54  H6  UNL     1      17.022  -2.993   4.757  1.00  0.00     0.166 HD
ENDBRANCH  41  44
ENDBRANCH  35  40
ENDBRANCH  32  35
ENDBRANCH   1  31
TORSDOF 14
ENDMDL
