MODEL 2
REMARK VINA RESULT: -10.138404277      3.756     11.661
REMARK  14 active torsions:
REMARK  status: ('A' for Active; 'I' for Inactive)
REMARK    1  A    between atoms: C2_2  and  N1_5 
REMARK       I    between atoms: N1_5  and  C5_7 
REMARK    2  A    between atoms: C5_7  and  C6_9 
REMARK    3  A    between atoms: N2_18  and  C15_19 
REMARK    4  A    between atoms: C15_19  and  C16_20 
REMARK    5  A    between atoms: C16_20  and  O2_21 
REMARK    6  A    between atoms: C16_20  and  C17_23 
REMARK    7  A    between atoms: C17_23  and  C18_24 
REMARK    8  A    between atoms: C17_23  and  N3_31 
REMARK    9  A    between atoms: C18_24  and  C19_25 
REMARK       I    between atoms: N3_31  and  C25_33 
REMARK   10  A    between atoms: C25_33  and  C26_35 
REMARK   11  A    between atoms: C26_35  and  C27_36 
REMARK   12  A    between atoms: C26_35  and  N5_40 
REMARK   13  A    between atoms: C27_36  and  C28_37 
REMARK       I    between atoms: N5_40  and  C29_42 
REMARK   14  A    between atoms: C29_42  and  C30_44 
ROOT
HETATM    1  C17 UNL     1      18.045  -2.117  12.632  1.00  0.00     0.119 C 
ENDROOT
BRANCH   1   2
HETATM    2  C16 UNL     1      17.857  -0.837  11.843  1.00  0.00     0.169 C 
BRANCH   2   3
HETATM    3  C15 UNL     1      18.669  -0.680  10.614  1.00  0.00     0.307 C 
BRANCH   3   4
HETATM    4  N2  UNL     1      18.033  -0.363   9.387  1.00  0.00     0.105 N 
HETATM    5  C6  UNL     1      18.674   0.729   8.675  1.00  0.00     0.314 C 
HETATM    6  C7  UNL     1      17.946   0.917   7.363  1.00  0.00     0.050 C 
HETATM    7  C8  UNL     1      18.499  -0.139   6.423  1.00  0.00    -0.006 C 
HETATM    8  C9  UNL     1      17.424  -0.490   5.428  1.00  0.00     0.005 C 
HETATM    9  C13 UNL     1      18.910  -1.320   7.276  1.00  0.00     0.018 C 
HETATM   10  C10 UNL     1      18.041  -1.339   4.337  1.00  0.00     0.000 C 
HETATM   11  C11 UNL     1      19.092  -2.206   5.001  1.00  0.00     0.000 C 
HETATM   12  C12 UNL     1      18.695  -2.567   6.409  1.00  0.00     0.007 C 
HETATM   13  C14 UNL     1      18.018  -1.493   8.469  1.00  0.00     0.278 C 
BRANCH   5  14
HETATM   14  C5  UNL     1      18.617   2.019   9.392  1.00  0.00     0.252 C 
HETATM   15  N1  UNL     1      18.270   2.139  10.752  1.00  0.00    -0.351 N 
ATOM     16  H1  UNL     1      18.050   1.281  11.259  1.00  0.00     0.163 HD
HETATM   17  O1  UNL     1      18.884   3.073   8.780  1.00  0.00    -0.271 OA
BRANCH  15  18
HETATM   18  C2  UNL     1      18.202   3.373  11.477  1.00  0.00     0.022 C 
HETATM   19  C1  UNL     1      17.604   3.174  12.855  1.00  0.00     0.037 C 
HETATM   20  C3  UNL     1      17.377   4.422  10.774  1.00  0.00     0.037 C 
HETATM   21  C4  UNL     1      19.590   3.934  11.684  1.00  0.00     0.037 C 
ENDBRANCH  15  18
ENDBRANCH   5  14
ENDBRANCH   3   4
ENDBRANCH   2   3
BRANCH   2  22
HETATM   22  O2  UNL     1      16.532  -0.467  11.713  1.00  0.00    -0.392 OA
ATOM     23  H2  UNL     1      15.929  -0.943  12.272  1.00  0.00     0.210 HD
ENDBRANCH   2  22
ENDBRANCH   1   2
BRANCH   1  24
HETATM   24  C18 UNL     1      19.219  -1.910  13.581  1.00  0.00     0.066 C 
BRANCH  24  25
HETATM   25  C19 UNL     1      18.833  -1.049  14.729  1.00  0.00    -0.056 A 
HETATM   26  C20 UNL     1      18.071  -1.542  15.744  1.00  0.00     0.007 A 
HETATM   27  C21 UNL     1      17.699  -0.770  16.825  1.00  0.00     0.001 A 
HETATM   28  C22 UNL     1      18.112   0.553  16.885  1.00  0.00     0.000 A 
HETATM   29  C23 UNL     1      18.886   1.049  15.849  1.00  0.00     0.001 A 
HETATM   30  C24 UNL     1      19.256   0.283  14.776  1.00  0.00     0.007 A 
ENDBRANCH  24  25
ENDBRANCH   1  24
BRANCH   1  31
HETATM   31  N3  UNL     1      18.568  -3.154  11.703  1.00  0.00    -0.352 N 
HETATM   32  C25 UNL     1      17.727  -4.108  11.102  1.00  0.00     0.241 C 
HETATM   33  O3  UNL     1      16.494  -4.064  11.373  1.00  0.00    -0.271 OA
ATOM     34  H3  UNL     1      19.567  -3.173  11.495  1.00  0.00     0.163 HD
BRANCH  32  35
HETATM   35  C26 UNL     1      18.275  -5.153  10.163  1.00  0.00     0.185 C 
BRANCH  35  36
HETATM   36  C27 UNL     1      19.732  -4.872   9.858  1.00  0.00     0.134 C 
BRANCH  36  37
HETATM   37  C28 UNL     1      20.292  -5.832   8.865  1.00  0.00     0.233 C 
HETATM   38  N4  UNL     1      20.347  -5.432   7.507  1.00  0.00    -0.062 NA
HETATM   39  O4  UNL     1      20.700  -6.962   9.243  1.00  0.00    -0.277 OA
ENDBRANCH  36  37
ENDBRANCH  35  36
BRANCH  35  40
HETATM   40  N5  UNL     1      17.542  -5.111   8.929  1.00  0.00    -0.342 N 
HETATM   41  C29 UNL     1      16.782  -6.196   8.423  1.00  0.00     0.268 C 
HETATM   42  O5  UNL     1      16.746  -7.248   9.086  1.00  0.00    -0.266 OA
ATOM     43  H5  UNL     1      17.568  -4.249   8.385  1.00  0.00     0.163 HD
BRANCH  41  44
HETATM   44  C30 UNL     1      16.049  -6.104   7.151  1.00  0.00     0.101 A 
HETATM   45  C31 UNL     1      14.826  -6.728   7.027  1.00  0.00     0.036 A 
HETATM   46  C32 UNL     1      14.063  -6.705   5.880  1.00  0.00     0.016 A 
HETATM   47  C33 UNL     1      14.590  -5.999   4.803  1.00  0.00    -0.009 A 
HETATM   48  C34 UNL     1      13.873  -5.935   3.616  1.00  0.00     0.013 A 
HETATM   49  C38 UNL     1      15.823  -5.378   4.947  1.00  0.00     0.043 A 
HETATM   50  C35 UNL     1      14.425  -5.231   2.569  1.00  0.00     0.001 A 
HETATM   51  C36 UNL     1      15.652  -4.605   2.694  1.00  0.00     0.002 A 
HETATM   52  C37 UNL     1      16.355  -4.674   3.876  1.00  0.00     0.030 A 
HETATM   53  N6  UNL     1      16.528  -5.438   6.107  1.00  0.00    -0.351 N 
ATOM     54  H6  UNL     1      17.431  -4.968   6.175  1.00  0.00     0.166 HD
ENDBRANCH  41  44
ENDBRANCH  35  40
ENDBRANCH  32  35
ENDBRANCH   1  31
TORSDOF 14
ENDMDL
