MODEL 4
REMARK VINA RESULT: -5.625958725      1.878      4.653
REMARK  4 active torsions:
REMARK  status: ('A' for Active; 'I' for Inactive)
REMARK    1  A    between atoms: P1_2  and  C2_5 
REMARK    2  A    between atoms: C2_5  and  C3_6 
REMARK    3  A    between atoms: C3_6  and  C4_8 
REMARK    4  A    between atoms: C4_8  and  C5_9 
ROOT
HETATM    1  C3  UNL     1      44.988  42.059  58.802  1.00  0.00     0.146 C 
HETATM    2  O3  UNL     1      44.890  42.969  58.004  1.00  0.00    -0.297 OA
ENDROOT
BRANCH   1   3
HETATM    3  C2  UNL     1      46.028  42.118  59.914  1.00  0.00     0.181 C 
BRANCH   3   4
HETATM    4  P1  UNL     1      47.344  43.135  59.675  1.00  0.00     0.109 P 
HETATM    5  C1  UNL     1      48.598  42.183  60.437  1.00  0.00     0.120 C 
HETATM    6  O1  UNL     1      48.234  44.261  59.113  1.00  0.00    -0.667 OA
HETATM    7  O2  UNL     1      46.627  44.291  60.623  1.00  0.00    -0.667 OA
ENDBRANCH   3   4
ENDBRANCH   1   3
BRANCH   1   8
HETATM    8  C4  UNL     1      44.081  40.894  58.681  1.00  0.00     0.192 C 
BRANCH   8   9
HETATM    9  C5  UNL     1      44.859  39.802  58.073  1.00  0.00     0.179 C 
HETATM   10  O4  UNL     1      44.839  38.662  58.544  1.00  0.00    -0.648 OA
HETATM   11  O5  UNL     1      45.623  40.059  56.949  1.00  0.00    -0.648 OA
ENDBRANCH   8   9
ENDBRANCH   1   8
TORSDOF 4
ENDMDL
