MODEL 3
REMARK VINA RESULT: -5.734027737      1.302      1.759
REMARK  4 active torsions:
REMARK  status: ('A' for Active; 'I' for Inactive)
REMARK    1  A    between atoms: P1_2  and  C2_5 
REMARK    2  A    between atoms: C2_5  and  C3_6 
REMARK    3  A    between atoms: C3_6  and  C4_8 
REMARK    4  A    between atoms: C4_8  and  C5_9 
ROOT
HETATM    1  C3  UNL     1      47.726  42.693  59.697  1.00  0.00     0.146 C 
HETATM    2  O3  UNL     1      47.985  43.446  58.780  1.00  0.00    -0.297 OA
ENDROOT
BRANCH   1   3
HETATM    3  C2  UNL     1      46.623  41.651  59.551  1.00  0.00     0.181 C 
BRANCH   3   4
HETATM    4  P1  UNL     1      45.208  42.137  58.787  1.00  0.00     0.109 P 
HETATM    5  C1  UNL     1      44.920  43.643  59.629  1.00  0.00     0.120 C 
HETATM    6  O1  UNL     1      44.073  42.244  57.750  1.00  0.00    -0.667 OA
HETATM    7  O2  UNL     1      44.424  40.804  59.384  1.00  0.00    -0.667 OA
ENDBRANCH   3   4
ENDBRANCH   1   3
BRANCH   1   8
HETATM    8  C4  UNL     1      48.498  42.801  60.956  1.00  0.00     0.192 C 
BRANCH   8   9
HETATM    9  C5  UNL     1      47.714  43.646  61.873  1.00  0.00     0.179 C 
HETATM   10  O4  UNL     1      47.669  44.870  61.734  1.00  0.00    -0.648 OA
HETATM   11  O5  UNL     1      47.014  43.053  62.908  1.00  0.00    -0.648 OA
ENDBRANCH   8   9
ENDBRANCH   1   8
TORSDOF 4
ENDMDL
