MODEL 6
REMARK VINA RESULT: -5.528900324      1.611      2.027
REMARK  4 active torsions:
REMARK  status: ('A' for Active; 'I' for Inactive)
REMARK    1  A    between atoms: P1_2  and  C2_5 
REMARK    2  A    between atoms: C2_5  and  C3_6 
REMARK    3  A    between atoms: C3_6  and  C4_8 
REMARK    4  A    between atoms: C4_8  and  C5_9 
ROOT
HETATM    1  C3  UNL     1      47.157  42.162  59.390  1.00  0.00     0.146 C 
HETATM    2  O3  UNL     1      47.083  42.937  58.458  1.00  0.00    -0.297 OA
ENDROOT
BRANCH   1   3
HETATM    3  C2  UNL     1      46.537  40.774  59.289  1.00  0.00     0.181 C 
BRANCH   3   4
HETATM    4  P1  UNL     1      45.173  40.615  58.320  1.00  0.00     0.109 P 
HETATM    5  C1  UNL     1      44.044  41.587  59.235  1.00  0.00     0.120 C 
HETATM    6  O1  UNL     1      44.277  40.326  57.099  1.00  0.00    -0.667 OA
HETATM    7  O2  UNL     1      45.146  38.985  58.619  1.00  0.00    -0.667 OA
ENDBRANCH   3   4
ENDBRANCH   1   3
BRANCH   1   8
HETATM    8  C4  UNL     1      47.861  42.585  60.623  1.00  0.00     0.192 C 
BRANCH   8   9
HETATM    9  C5  UNL     1      47.111  43.723  61.180  1.00  0.00     0.179 C 
HETATM   10  O4  UNL     1      45.890  43.818  61.034  1.00  0.00    -0.648 OA
HETATM   11  O5  UNL     1      47.790  44.701  61.884  1.00  0.00    -0.648 OA
ENDBRANCH   8   9
ENDBRANCH   1   8
TORSDOF 4
ENDMDL
