MODEL 1
REMARK VINA RESULT: -6.426685652      0.000      0.000
REMARK  4 active torsions:
REMARK  status: ('A' for Active; 'I' for Inactive)
REMARK    1  A    between atoms: P1_2  and  C2_5 
REMARK    2  A    between atoms: C2_5  and  C3_6 
REMARK    3  A    between atoms: C3_6  and  C4_8 
REMARK    4  A    between atoms: C4_8  and  C5_9 
ROOT
HETATM    1  C3  UNL     1      47.825  42.837  59.310  1.00  0.00     0.146 C 
HETATM    2  O3  UNL     1      48.266  43.812  58.737  1.00  0.00    -0.297 OA
ENDROOT
BRANCH   1   3
HETATM    3  C2  UNL     1      47.088  41.753  58.533  1.00  0.00     0.181 C 
BRANCH   3   4
HETATM    4  P1  UNL     1      45.477  41.490  58.930  1.00  0.00     0.109 P 
HETATM    5  C1  UNL     1      45.226  39.947  58.144  1.00  0.00     0.120 C 
HETATM    6  O1  UNL     1      44.112  41.600  59.638  1.00  0.00    -0.667 OA
HETATM    7  O2  UNL     1      45.040  42.833  58.061  1.00  0.00    -0.667 OA
ENDBRANCH   3   4
ENDBRANCH   1   3
BRANCH   1   8
HETATM    8  C4  UNL     1      48.015  42.715  60.775  1.00  0.00     0.192 C 
BRANCH   8   9
HETATM    9  C5  UNL     1      47.336  43.865  61.396  1.00  0.00     0.179 C 
HETATM   10  O4  UNL     1      47.963  44.706  62.044  1.00  0.00    -0.648 OA
HETATM   11  O5  UNL     1      45.968  44.005  61.246  1.00  0.00    -0.648 OA
ENDBRANCH   8   9
ENDBRANCH   1   8
TORSDOF 4
ENDMDL
