MODEL 5
REMARK VINA RESULT: -5.535955416      2.038      4.759
REMARK  4 active torsions:
REMARK  status: ('A' for Active; 'I' for Inactive)
REMARK    1  A    between atoms: P1_2  and  C2_5 
REMARK    2  A    between atoms: C2_5  and  C3_6 
REMARK    3  A    between atoms: C3_6  and  C4_8 
REMARK    4  A    between atoms: C4_8  and  C5_9 
ROOT
HETATM    1  C3  UNL     1      44.954  42.300  58.885  1.00  0.00     0.146 C 
HETATM    2  O3  UNL     1      45.047  43.082  57.961  1.00  0.00    -0.297 OA
ENDROOT
BRANCH   1   3
HETATM    3  C2  UNL     1      46.071  42.185  59.915  1.00  0.00     0.181 C 
BRANCH   3   4
HETATM    4  P1  UNL     1      47.410  43.177  59.702  1.00  0.00     0.109 P 
HETATM    5  C1  UNL     1      48.636  42.188  60.461  1.00  0.00     0.120 C 
HETATM    6  O1  UNL     1      48.329  44.292  59.163  1.00  0.00    -0.667 OA
HETATM    7  O2  UNL     1      46.709  44.335  60.659  1.00  0.00    -0.667 OA
ENDBRANCH   3   4
ENDBRANCH   1   3
BRANCH   1   8
HETATM    8  C4  UNL     1      43.737  41.462  58.997  1.00  0.00     0.192 C 
BRANCH   8   9
HETATM    9  C5  UNL     1      43.380  41.033  57.634  1.00  0.00     0.179 C 
HETATM   10  O4  UNL     1      43.904  40.044  57.116  1.00  0.00    -0.648 OA
HETATM   11  O5  UNL     1      42.437  41.753  56.923  1.00  0.00    -0.648 OA
ENDBRANCH   8   9
ENDBRANCH   1   8
TORSDOF 4
ENDMDL
