MODEL 2
REMARK VINA RESULT: -5.849671859      1.418      1.591
REMARK  4 active torsions:
REMARK  status: ('A' for Active; 'I' for Inactive)
REMARK    1  A    between atoms: P1_2  and  C2_5 
REMARK    2  A    between atoms: C2_5  and  C3_6 
REMARK    3  A    between atoms: C3_6  and  C4_8 
REMARK    4  A    between atoms: C4_8  and  C5_9 
ROOT
HETATM    1  C3  UNL     1      46.264  42.742  60.182  1.00  0.00     0.146 C 
HETATM    2  O3  UNL     1      45.466  43.640  60.361  1.00  0.00    -0.297 OA
ENDROOT
BRANCH   1   3
HETATM    3  C2  UNL     1      45.848  41.477  59.442  1.00  0.00     0.181 C 
BRANCH   3   4
HETATM    4  P1  UNL     1      44.334  41.481  58.713  1.00  0.00     0.109 P 
HETATM    5  C1  UNL     1      44.364  39.904  57.958  1.00  0.00     0.120 C 
HETATM    6  O1  UNL     1      42.877  41.858  58.380  1.00  0.00    -0.667 OA
HETATM    7  O2  UNL     1      44.793  42.758  57.760  1.00  0.00    -0.667 OA
ENDBRANCH   3   4
ENDBRANCH   1   3
BRANCH   1   8
HETATM    8  C4  UNL     1      47.647  42.897  60.690  1.00  0.00     0.192 C 
BRANCH   8   9
HETATM    9  C5  UNL     1      47.564  43.675  61.938  1.00  0.00     0.179 C 
HETATM   10  O4  UNL     1      47.881  44.867  61.971  1.00  0.00    -0.648 OA
HETATM   11  O5  UNL     1      47.120  43.058  63.093  1.00  0.00    -0.648 OA
ENDBRANCH   8   9
ENDBRANCH   1   8
TORSDOF 4
ENDMDL
