MODEL 1
REMARK VINA RESULT: -7.722370843      0.000      0.000
REMARK  13 active torsions:
REMARK  status: ('A' for Active; 'I' for Inactive)
REMARK    1  A    between atoms: O1_2  and  C2_3 
REMARK    2  A    between atoms: C7_8  and  O2_9 
REMARK    3  A    between atoms: C9_12  and  O3_13 
REMARK    4  A    between atoms: C12_17  and  O4_18 
REMARK    5  A    between atoms: C14_21  and  O5_22 
REMARK    6  A    between atoms: C16_25  and  O6_26 
REMARK    7  A    between atoms: O6_26  and  C17_27 
REMARK    8  A    between atoms: C19_29  and  N1_30 
REMARK    9  A    between atoms: C20_34  and  O7_35 
REMARK   10  A    between atoms: C24_41  and  O9_42 
REMARK   11  A    between atoms: C24_41  and  C25_44 
REMARK   12  A    between atoms: C25_44  and  C26_46 
REMARK   13  A    between atoms: C26_46  and  O11_47 
ROOT
HETATM    1  C2  UNL     1      37.163 -28.549 -36.514  1.00  0.00     0.082 A 
HETATM    2  C3  UNL     1      38.268 -29.267 -36.103  1.00  0.00     0.038 A 
HETATM    3  C4  UNL     1      38.128 -30.619 -35.932  1.00  0.00     0.004 A 
HETATM    4  C5  UNL     1      36.932 -31.279 -36.153  1.00  0.00     0.015 A 
HETATM    5  C6  UNL     1      35.830 -30.536 -36.567  1.00  0.00     0.014 A 
HETATM    6  C7  UNL     1      34.637 -31.149 -36.796  1.00  0.00     0.091 A 
HETATM    7  C8  UNL     1      33.521 -30.419 -37.212  1.00  0.00     0.047 A 
HETATM    8  C9  UNL     1      32.322 -31.034 -37.441  1.00  0.00     0.086 A 
HETATM    9  C10 UNL     1      31.178 -30.325 -37.862  1.00  0.00    -0.009 A 
HETATM   10  C11 UNL     1      31.340 -28.991 -38.026  1.00  0.00     0.014 A 
HETATM   11  C12 UNL     1      32.553 -28.332 -37.798  1.00  0.00     0.089 A 
HETATM   12  C13 UNL     1      33.640 -29.066 -37.389  1.00  0.00     0.048 A 
HETATM   13  C14 UNL     1      34.855 -28.418 -37.160  1.00  0.00     0.093 A 
HETATM   14  C15 UNL     1      35.960 -29.185 -36.741  1.00  0.00     0.044 A 
HETATM   15  C16 UNL     1      30.187 -28.160 -38.475  1.00  0.00     0.164 C 
HETATM   16  C23 UNL     1      28.865 -28.861 -38.070  1.00  0.00     0.083 C 
HETATM   17  C24 UNL     1      28.902 -30.182 -38.752  1.00  0.00     0.127 C 
HETATM   18  C27 UNL     1      29.927 -31.043 -38.083  1.00  0.00     0.088 C 
ENDROOT
BRANCH  15  19
HETATM   19  O6  UNL     1      30.171 -28.063 -39.836  1.00  0.00    -0.351 OA
BRANCH  19  20
HETATM   20  C17 UNL     1      30.114 -26.812 -40.387  1.00  0.00     0.263 C 
HETATM   21  C18 UNL     1      29.429 -25.849 -39.407  1.00  0.00     0.096 C 
HETATM   22  C19 UNL     1      30.162 -24.550 -39.488  1.00  0.00     0.219 C 
HETATM   23  C20 UNL     1      30.377 -24.259 -40.980  1.00  0.00     0.177 C 
HETATM   24  C21 UNL     1      31.456 -25.244 -41.423  1.00  0.00     0.151 C 
HETATM   25  C22 UNL     1      31.328 -25.626 -42.861  1.00  0.00     0.042 C 
HETATM   26  O8  UNL     1      31.418 -26.400 -40.650  1.00  0.00    -0.354 OA
BRANCH  22  27
HETATM   27  N1  UNL     1      29.492 -23.464 -38.833  1.00  0.00    -0.072 N 
ATOM     28  H13 UNL     1      28.594 -23.275 -39.277  1.00  0.00     0.274 HD
ATOM     29  H12 UNL     1      29.170 -23.747 -37.907  1.00  0.00     0.274 HD
ATOM     30  H11 UNL     1      30.049 -22.611 -38.774  1.00  0.00     0.274 HD
ENDBRANCH  22  27
BRANCH  23  31
HETATM   31  O7  UNL     1      29.213 -24.546 -41.672  1.00  0.00    -0.391 OA
ATOM     32  H7  UNL     1      29.332 -25.351 -42.162  1.00  0.00     0.210 HD
ENDBRANCH  23  31
ENDBRANCH  19  20
ENDBRANCH  15  19
BRANCH  11  33
HETATM   33  O4  UNL     1      32.648 -26.980 -37.980  1.00  0.00    -0.359 OA
ATOM     34  H4  UNL     1      33.390 -26.501 -37.631  1.00  0.00     0.217 HD
ENDBRANCH  11  33
BRANCH  17  35
HETATM   35  O9  UNL     1      29.349 -29.983 -40.078  1.00  0.00    -0.382 OA
ATOM     36  H9  UNL     1      29.733 -30.795 -40.388  1.00  0.00     0.211 HD
ENDBRANCH  17  35
BRANCH  17  37
HETATM   37  C25 UNL     1      27.569 -30.835 -38.821  1.00  0.00     0.184 C 
HETATM   38  O10 UNL     1      27.490 -31.962 -39.265  1.00  0.00    -0.292 OA
BRANCH  37  39
HETATM   39  C26 UNL     1      26.362 -30.151 -38.369  1.00  0.00     0.245 C 
BRANCH  39  40
HETATM   40  O11 UNL     1      25.373 -30.081 -39.325  1.00  0.00    -0.393 OA
ATOM     41  H11 UNL     1      24.652 -30.681 -39.174  1.00  0.00     0.209 HD
ENDBRANCH  39  40
ENDBRANCH  37  39
ENDBRANCH  17  37
BRANCH   8  42
HETATM   42  O3  UNL     1      32.220 -32.392 -37.257  1.00  0.00    -0.359 OA
ATOM     43  H3  UNL     1      32.134 -32.734 -36.374  1.00  0.00     0.217 HD
ENDBRANCH   8  42
BRANCH  13  44
HETATM   44  O5  UNL     1      35.071 -27.085 -37.309  1.00  0.00    -0.359 OA
ATOM     45  H5  UNL     1      35.536 -26.533 -36.692  1.00  0.00     0.217 HD
ENDBRANCH  13  44
BRANCH   6  46
HETATM   46  O2  UNL     1      34.434 -32.511 -36.640  1.00  0.00    -0.359 OA
ATOM     47  H2  UNL     1      33.724 -32.987 -37.054  1.00  0.00     0.217 HD
ENDBRANCH   6  46
BRANCH   1  48
HETATM   48  O1  UNL     1      37.232 -27.182 -36.708  1.00  0.00    -0.355 OA
HETATM   49  C1  UNL     1      38.336 -26.455 -36.221  1.00  0.00     0.210 C 
ENDBRANCH   1  48
TORSDOF 13
ENDMDL
