MODEL 4
REMARK VINA RESULT: -7.555229989      4.079      7.401
REMARK  13 active torsions:
REMARK  status: ('A' for Active; 'I' for Inactive)
REMARK    1  A    between atoms: O1_2  and  C2_3 
REMARK    2  A    between atoms: C7_8  and  O2_9 
REMARK    3  A    between atoms: C9_12  and  O3_13 
REMARK    4  A    between atoms: C12_17  and  O4_18 
REMARK    5  A    between atoms: C14_21  and  O5_22 
REMARK    6  A    between atoms: C16_25  and  O6_26 
REMARK    7  A    between atoms: O6_26  and  C17_27 
REMARK    8  A    between atoms: C19_29  and  N1_30 
REMARK    9  A    between atoms: C20_34  and  O7_35 
REMARK   10  A    between atoms: C24_41  and  O9_42 
REMARK   11  A    between atoms: C24_41  and  C25_44 
REMARK   12  A    between atoms: C25_44  and  C26_46 
REMARK   13  A    between atoms: C26_46  and  O11_47 
ROOT
HETATM    1  C2  UNL     1      33.836 -31.197 -45.194  1.00  0.00     0.082 A 
HETATM    2  C3  UNL     1      34.931 -31.337 -46.023  1.00  0.00     0.038 A 
HETATM    3  C4  UNL     1      35.877 -30.346 -46.008  1.00  0.00     0.004 A 
HETATM    4  C5  UNL     1      35.773 -29.226 -45.202  1.00  0.00     0.015 A 
HETATM    5  C6  UNL     1      34.661 -29.105 -44.373  1.00  0.00     0.014 A 
HETATM    6  C7  UNL     1      34.523 -28.019 -43.566  1.00  0.00     0.091 A 
HETATM    7  C8  UNL     1      33.414 -27.881 -42.728  1.00  0.00     0.047 A 
HETATM    8  C9  UNL     1      33.274 -26.790 -41.917  1.00  0.00     0.086 A 
HETATM    9  C10 UNL     1      32.167 -26.623 -41.060  1.00  0.00    -0.009 A 
HETATM   10  C11 UNL     1      31.245 -27.613 -41.090  1.00  0.00     0.014 A 
HETATM   11  C12 UNL     1      31.359 -28.742 -41.910  1.00  0.00     0.089 A 
HETATM   12  C13 UNL     1      32.456 -28.860 -42.728  1.00  0.00     0.048 A 
HETATM   13  C14 UNL     1      32.578 -29.983 -43.548  1.00  0.00     0.093 A 
HETATM   14  C15 UNL     1      33.711 -30.089 -44.381  1.00  0.00     0.044 A 
HETATM   15  C16 UNL     1      30.043 -27.526 -40.214  1.00  0.00     0.164 C 
HETATM   16  C23 UNL     1      29.751 -26.037 -39.896  1.00  0.00     0.083 C 
HETATM   17  C24 UNL     1      30.976 -25.538 -39.217  1.00  0.00     0.127 C 
HETATM   18  C27 UNL     1      32.077 -25.430 -40.225  1.00  0.00     0.088 C 
ENDROOT
BRANCH  15  19
HETATM   19  O6  UNL     1      30.281 -28.137 -39.017  1.00  0.00    -0.351 OA
BRANCH  19  20
HETATM   20  C17 UNL     1      29.758 -29.386 -38.822  1.00  0.00     0.263 C 
HETATM   21  C18 UNL     1      30.897 -30.389 -38.586  1.00  0.00     0.096 C 
HETATM   22  C19 UNL     1      30.435 -31.332 -37.524  1.00  0.00     0.219 C 
HETATM   23  C20 UNL     1      28.995 -31.726 -37.883  1.00  0.00     0.177 C 
HETATM   24  C21 UNL     1      28.159 -30.487 -37.573  1.00  0.00     0.151 C 
HETATM   25  C22 UNL     1      26.952 -30.378 -38.445  1.00  0.00     0.042 C 
HETATM   26  O8  UNL     1      28.918 -29.330 -37.713  1.00  0.00    -0.354 OA
BRANCH  22  27
HETATM   27  N1  UNL     1      31.272 -32.487 -37.370  1.00  0.00    -0.072 N 
ATOM     28  H13 UNL     1      31.358 -32.990 -38.254  1.00  0.00     0.274 HD
ATOM     29  H12 UNL     1      32.245 -32.210 -37.236  1.00  0.00     0.274 HD
ATOM     30  H11 UNL     1      30.972 -33.117 -36.626  1.00  0.00     0.274 HD
ENDBRANCH  22  27
BRANCH  23  31
HETATM   31  O7  UNL     1      28.917 -31.977 -39.241  1.00  0.00    -0.391 OA
ATOM     32  H7  UNL     1      28.852 -32.914 -39.382  1.00  0.00     0.210 HD
ENDBRANCH  23  31
ENDBRANCH  19  20
ENDBRANCH  15  19
BRANCH  11  33
HETATM   33  O4  UNL     1      30.388 -29.706 -41.894  1.00  0.00    -0.359 OA
ATOM     34  H4  UNL     1      30.602 -30.596 -41.640  1.00  0.00     0.217 HD
ENDBRANCH  11  33
BRANCH  17  35
HETATM   35  O9  UNL     1      31.387 -26.509 -38.277  1.00  0.00    -0.382 OA
ATOM     36  H9  UNL     1      31.953 -27.132 -38.719  1.00  0.00     0.211 HD
ENDBRANCH  17  35
BRANCH  17  37
HETATM   37  C25 UNL     1      30.753 -24.267 -38.481  1.00  0.00     0.184 C 
HETATM   38  O10 UNL     1      30.340 -24.313 -37.341  1.00  0.00    -0.292 OA
BRANCH  37  39
HETATM   39  C26 UNL     1      31.017 -22.972 -39.101  1.00  0.00     0.245 C 
BRANCH  39  40
HETATM   40  O11 UNL     1      30.055 -22.585 -40.008  1.00  0.00    -0.393 OA
ATOM     41  H11 UNL     1      29.741 -21.699 -39.877  1.00  0.00     0.209 HD
ENDBRANCH  39  40
ENDBRANCH  37  39
ENDBRANCH  17  37
BRANCH   8  42
HETATM   42  O3  UNL     1      34.245 -25.817 -41.932  1.00  0.00    -0.359 OA
ATOM     43  H3  UNL     1      35.155 -26.074 -42.018  1.00  0.00     0.217 HD
ENDBRANCH   8  42
BRANCH  13  44
HETATM   44  O5  UNL     1      31.684 -31.004 -43.617  1.00  0.00    -0.359 OA
ATOM     45  H5  UNL     1      31.851 -31.852 -44.009  1.00  0.00     0.217 HD
ENDBRANCH  13  44
BRANCH   6  46
HETATM   46  O2  UNL     1      35.446 -26.987 -43.508  1.00  0.00    -0.359 OA
ATOM     47  H2  UNL     1      35.207 -26.074 -43.390  1.00  0.00     0.217 HD
ENDBRANCH   6  46
BRANCH   1  48
HETATM   48  O1  UNL     1      32.842 -32.157 -45.155  1.00  0.00    -0.355 OA
HETATM   49  C1  UNL     1      32.982 -33.347 -45.898  1.00  0.00     0.210 C 
ENDBRANCH   1  48
TORSDOF 13
ENDMDL
