MODEL 6
REMARK VINA RESULT: -7.379401563      3.255      6.031
REMARK  13 active torsions:
REMARK  status: ('A' for Active; 'I' for Inactive)
REMARK    1  A    between atoms: O1_2  and  C2_3 
REMARK    2  A    between atoms: C7_8  and  O2_9 
REMARK    3  A    between atoms: C9_12  and  O3_13 
REMARK    4  A    between atoms: C12_17  and  O4_18 
REMARK    5  A    between atoms: C14_21  and  O5_22 
REMARK    6  A    between atoms: C16_25  and  O6_26 
REMARK    7  A    between atoms: O6_26  and  C17_27 
REMARK    8  A    between atoms: C19_29  and  N1_30 
REMARK    9  A    between atoms: C20_34  and  O7_35 
REMARK   10  A    between atoms: C24_41  and  O9_42 
REMARK   11  A    between atoms: C24_41  and  C25_44 
REMARK   12  A    between atoms: C25_44  and  C26_46 
REMARK   13  A    between atoms: C26_46  and  O11_47 
ROOT
HETATM    1  C2  UNL     1      35.488 -24.777 -36.365  1.00  0.00     0.082 A 
HETATM    2  C3  UNL     1      35.617 -23.469 -35.942  1.00  0.00     0.038 A 
HETATM    3  C4  UNL     1      34.474 -22.733 -35.775  1.00  0.00     0.004 A 
HETATM    4  C5  UNL     1      33.212 -23.249 -36.014  1.00  0.00     0.015 A 
HETATM    5  C6  UNL     1      33.105 -24.570 -36.440  1.00  0.00     0.014 A 
HETATM    6  C7  UNL     1      31.882 -25.114 -36.685  1.00  0.00     0.091 A 
HETATM    7  C8  UNL     1      31.755 -26.438 -37.113  1.00  0.00     0.047 A 
HETATM    8  C9  UNL     1      30.527 -26.984 -37.360  1.00  0.00     0.086 A 
HETATM    9  C10 UNL     1      30.367 -28.317 -37.792  1.00  0.00    -0.009 A 
HETATM   10  C11 UNL     1      31.509 -29.026 -37.949  1.00  0.00     0.014 A 
HETATM   11  C12 UNL     1      32.781 -28.494 -37.706  1.00  0.00     0.089 A 
HETATM   12  C13 UNL     1      32.886 -27.190 -37.286  1.00  0.00     0.048 A 
HETATM   13  C14 UNL     1      34.151 -26.652 -37.040  1.00  0.00     0.093 A 
HETATM   14  C15 UNL     1      34.240 -25.314 -36.610  1.00  0.00     0.044 A 
HETATM   15  C16 UNL     1      31.439 -30.445 -38.398  1.00  0.00     0.164 C 
HETATM   16  C23 UNL     1      30.130 -30.662 -39.200  1.00  0.00     0.083 C 
HETATM   17  C24 UNL     1      29.034 -30.318 -38.255  1.00  0.00     0.127 C 
HETATM   18  C27 UNL     1      29.027 -28.836 -38.044  1.00  0.00     0.088 C 
ENDROOT
BRANCH  15  19
HETATM   19  O6  UNL     1      31.374 -31.282 -37.322  1.00  0.00    -0.351 OA
BRANCH  19  20
HETATM   20  C17 UNL     1      32.180 -32.387 -37.322  1.00  0.00     0.263 C 
HETATM   21  C18 UNL     1      31.355 -33.626 -37.698  1.00  0.00     0.096 C 
HETATM   22  C19 UNL     1      32.215 -34.471 -38.580  1.00  0.00     0.219 C 
HETATM   23  C20 UNL     1      33.602 -34.521 -37.924  1.00  0.00     0.177 C 
HETATM   24  C21 UNL     1      34.199 -33.135 -38.157  1.00  0.00     0.151 C 
HETATM   25  C22 UNL     1      35.151 -32.733 -37.079  1.00  0.00     0.042 C 
HETATM   26  O8  UNL     1      33.197 -32.174 -38.250  1.00  0.00    -0.354 OA
BRANCH  22  27
HETATM   27  N1  UNL     1      31.694 -35.788 -38.808  1.00  0.00    -0.072 N 
ATOM     28  H13 UNL     1      31.063 -36.061 -38.054  1.00  0.00     0.274 HD
ATOM     29  H12 UNL     1      31.037 -35.784 -39.589  1.00  0.00     0.274 HD
ATOM     30  H11 UNL     1      32.414 -36.498 -38.948  1.00  0.00     0.274 HD
ENDBRANCH  22  27
BRANCH  23  31
HETATM   31  O7  UNL     1      33.455 -34.709 -36.562  1.00  0.00    -0.391 OA
ATOM     32  H7  UNL     1      33.305 -33.869 -36.144  1.00  0.00     0.210 HD
ENDBRANCH  23  31
ENDBRANCH  19  20
ENDBRANCH  15  19
BRANCH  11  33
HETATM   33  O4  UNL     1      33.897 -29.265 -37.888  1.00  0.00    -0.359 OA
ATOM     34  H4  UNL     1      34.227 -29.803 -37.179  1.00  0.00     0.217 HD
ENDBRANCH  11  33
BRANCH  17  35
HETATM   35  O9  UNL     1      29.331 -30.900 -37.003  1.00  0.00    -0.382 OA
ATOM     36  H9  UNL     1      28.596 -30.747 -36.421  1.00  0.00     0.211 HD
ENDBRANCH  17  35
BRANCH  17  37
HETATM   37  C25 UNL     1      27.711 -30.836 -38.690  1.00  0.00     0.184 C 
HETATM   38  O10 UNL     1      27.659 -31.902 -39.266  1.00  0.00    -0.292 OA
BRANCH  37  39
HETATM   39  C26 UNL     1      26.482 -30.090 -38.440  1.00  0.00     0.245 C 
BRANCH  39  40
HETATM   40  O11 UNL     1      25.474 -30.365 -39.337  1.00  0.00    -0.393 OA
ATOM     41  H11 UNL     1      24.616 -30.438 -38.937  1.00  0.00     0.209 HD
ENDBRANCH  39  40
ENDBRANCH  37  39
ENDBRANCH  17  37
BRANCH   8  42
HETATM   42  O3  UNL     1      29.403 -26.213 -37.182  1.00  0.00    -0.359 OA
ATOM     43  H3  UNL     1      28.748 -26.186 -37.869  1.00  0.00     0.217 HD
ENDBRANCH   8  42
BRANCH  13  44
HETATM   44  O5  UNL     1      35.326 -27.318 -37.182  1.00  0.00    -0.359 OA
ATOM     45  H5  UNL     1      35.414 -28.258 -37.287  1.00  0.00     0.217 HD
ENDBRANCH  13  44
BRANCH   6  46
HETATM   46  O2  UNL     1      30.692 -24.420 -36.534  1.00  0.00    -0.359 OA
ATOM     47  H2  UNL     1      29.869 -24.697 -36.921  1.00  0.00     0.217 HD
ENDBRANCH   6  46
BRANCH   1  48
HETATM   48  O1  UNL     1      36.598 -25.579 -36.554  1.00  0.00    -0.355 OA
HETATM   49  C1  UNL     1      37.837 -25.213 -35.989  1.00  0.00     0.210 C 
ENDBRANCH   1  48
TORSDOF 13
ENDMDL
