MODEL 5
REMARK VINA RESULT: -5.670936382      1.772      3.073
REMARK  6 active torsions:
REMARK  status: ('A' for Active; 'I' for Inactive)
REMARK    1  A    between atoms: C1_2  and  C2_4 
REMARK    2  A    between atoms: C2_4  and  C3_5 
REMARK    3  A    between atoms: C3_5  and  O3_6 
REMARK    4  A    between atoms: C3_5  and  C4_8 
REMARK    5  A    between atoms: C3_5  and  C6_12 
REMARK    6  A    between atoms: C4_8  and  C5_9 
ROOT
HETATM    1  C3  UNL     1      25.692  -6.180  14.233  1.00  0.00     0.164 C 
ENDROOT
BRANCH   1   2
HETATM    2  C2  UNL     1      24.653  -6.305  13.186  1.00  0.00     0.163 C 
BRANCH   2   3
HETATM    3  C1  UNL     1      24.473  -5.149  12.291  1.00  0.00     0.176 C 
HETATM    4  O1  UNL     1      23.376  -4.544  12.305  1.00  0.00    -0.648 OA
HETATM    5  O2  UNL     1      25.434  -4.665  11.418  1.00  0.00    -0.648 OA
ENDBRANCH   2   3
ENDBRANCH   1   2
BRANCH   1   6
HETATM    6  O3  UNL     1      26.919  -5.950  13.603  1.00  0.00    -0.378 OA
ATOM      7  H3  UNL     1      26.789  -5.281  12.940  1.00  0.00     0.211 HD
ENDBRANCH   1   6
BRANCH   1   8
HETATM    8  C4  UNL     1      25.820  -7.293  15.210  1.00  0.00     0.163 C 
BRANCH   8   9
HETATM    9  C5  UNL     1      26.985  -7.211  16.116  1.00  0.00     0.176 C 
HETATM   10  O4  UNL     1      28.138  -7.258  15.647  1.00  0.00    -0.648 OA
HETATM   11  O5  UNL     1      26.737  -7.084  17.474  1.00  0.00    -0.648 OA
ENDBRANCH   8   9
ENDBRANCH   1   8
BRANCH   1  12
HETATM   12  C6  UNL     1      25.361  -4.964  15.024  1.00  0.00     0.210 C 
HETATM   13  O6  UNL     1      26.043  -3.936  14.837  1.00  0.00    -0.646 OA
HETATM   14  O7  UNL     1      24.337  -4.946  15.942  1.00  0.00    -0.646 OA
ENDBRANCH   1  12
TORSDOF 6
ENDMDL
