MODEL 16
REMARK VINA RESULT: -5.487199255      1.847      3.194
REMARK  6 active torsions:
REMARK  status: ('A' for Active; 'I' for Inactive)
REMARK    1  A    between atoms: C1_2  and  C2_4 
REMARK    2  A    between atoms: C2_4  and  C3_5 
REMARK    3  A    between atoms: C3_5  and  O3_6 
REMARK    4  A    between atoms: C3_5  and  C4_8 
REMARK    5  A    between atoms: C3_5  and  C6_12 
REMARK    6  A    between atoms: C4_8  and  C5_9 
ROOT
HETATM    1  C3  UNL     1      25.895  -5.667  13.964  1.00  0.00     0.164 C 
ENDROOT
BRANCH   1   2
HETATM    2  C2  UNL     1      24.801  -6.200  13.121  1.00  0.00     0.163 C 
BRANCH   2   3
HETATM    3  C1  UNL     1      24.315  -5.329  12.038  1.00  0.00     0.176 C 
HETATM    4  O1  UNL     1      24.918  -5.342  10.940  1.00  0.00    -0.648 OA
HETATM    5  O2  UNL     1      23.224  -4.478  12.133  1.00  0.00    -0.648 OA
ENDBRANCH   2   3
ENDBRANCH   1   2
BRANCH   1   6
HETATM    6  O3  UNL     1      26.901  -5.189  13.119  1.00  0.00    -0.378 OA
ATOM      7  H3  UNL     1      27.025  -4.265  13.299  1.00  0.00     0.211 HD
ENDBRANCH   1   6
BRANCH   1   8
HETATM    8  C4  UNL     1      26.476  -6.572  14.989  1.00  0.00     0.163 C 
BRANCH   8   9
HETATM    9  C5  UNL     1      27.811  -7.119  14.670  1.00  0.00     0.176 C 
HETATM   10  O4  UNL     1      28.814  -6.693  15.275  1.00  0.00    -0.648 OA
HETATM   11  O5  UNL     1      27.889  -8.099  13.693  1.00  0.00    -0.648 OA
ENDBRANCH   8   9
ENDBRANCH   1   8
BRANCH   1  12
HETATM   12  C6  UNL     1      25.340  -4.499  14.701  1.00  0.00     0.210 C 
HETATM   13  O6  UNL     1      24.713  -4.714  15.758  1.00  0.00    -0.646 OA
HETATM   14  O7  UNL     1      25.499  -3.209  14.252  1.00  0.00    -0.646 OA
ENDBRANCH   1  12
TORSDOF 6
ENDMDL
