MODEL 15
REMARK VINA RESULT: -5.495164969      1.073      3.893
REMARK  6 active torsions:
REMARK  status: ('A' for Active; 'I' for Inactive)
REMARK    1  A    between atoms: C1_2  and  C2_4 
REMARK    2  A    between atoms: C2_4  and  C3_5 
REMARK    3  A    between atoms: C3_5  and  O3_6 
REMARK    4  A    between atoms: C3_5  and  C4_8 
REMARK    5  A    between atoms: C3_5  and  C6_12 
REMARK    6  A    between atoms: C4_8  and  C5_9 
ROOT
HETATM    1  C3  UNL     1      24.838  -4.129  11.953  1.00  0.00     0.164 C 
ENDROOT
BRANCH   1   2
HETATM    2  C2  UNL     1      25.654  -3.510  13.021  1.00  0.00     0.163 C 
BRANCH   2   3
HETATM    3  C1  UNL     1      25.584  -4.133  14.353  1.00  0.00     0.176 C 
HETATM    4  O1  UNL     1      26.648  -4.511  14.896  1.00  0.00    -0.648 OA
HETATM    5  O2  UNL     1      24.417  -4.340  15.072  1.00  0.00    -0.648 OA
ENDBRANCH   2   3
ENDBRANCH   1   2
BRANCH   1   6
HETATM    6  O3  UNL     1      23.633  -4.556  12.519  1.00  0.00    -0.378 OA
ATOM      7  H3  UNL     1      22.924  -4.278  11.951  1.00  0.00     0.211 HD
ENDBRANCH   1   6
BRANCH   1   8
HETATM    8  C4  UNL     1      25.453  -5.233  11.171  1.00  0.00     0.163 C 
BRANCH   8   9
HETATM    9  C5  UNL     1      26.079  -6.306  11.971  1.00  0.00     0.176 C 
HETATM   10  O4  UNL     1      25.361  -7.092  12.619  1.00  0.00    -0.648 OA
HETATM   11  O5  UNL     1      27.462  -6.392  11.965  1.00  0.00    -0.648 OA
ENDBRANCH   8   9
ENDBRANCH   1   8
BRANCH   1  12
HETATM   12  C6  UNL     1      24.516  -3.053  10.977  1.00  0.00     0.210 C 
HETATM   13  O6  UNL     1      24.888  -3.199   9.796  1.00  0.00    -0.646 OA
HETATM   14  O7  UNL     1      23.828  -1.919  11.341  1.00  0.00    -0.646 OA
ENDBRANCH   1  12
TORSDOF 6
ENDMDL
