MODEL 5
REMARK VINA RESULT: -8.116299106      1.532      6.113
REMARK  1 active torsions:
REMARK  status: ('A' for Active; 'I' for Inactive)
REMARK    1  A    between atoms: C19_20  and  O2_21 
ROOT
HETATM    1  C1  UNL     1      28.010   5.488   4.530  1.00  0.00     0.018 C 
HETATM    2  C2  UNL     1      26.645   4.929   4.838  1.00  0.00    -0.014 C 
HETATM    3  C3  UNL     1      26.620   4.041   6.029  1.00  0.00     0.012 C 
HETATM    4  C4  UNL     1      27.572   2.883   5.760  1.00  0.00     0.007 C 
HETATM    5  C5  UNL     1      27.079   2.103   4.575  1.00  0.00     0.002 C 
HETATM    6  C6  UNL     1      26.927   2.949   3.328  1.00  0.00    -0.004 C 
HETATM    7  C7  UNL     1      26.144   2.101   2.329  1.00  0.00     0.010 C 
HETATM    8  C8  UNL     1      26.775   0.780   2.074  1.00  0.00     0.035 C 
HETATM    9  C9  UNL     1      27.248   0.075   3.277  1.00  0.00    -0.068 C 
HETATM   10  C10 UNL     1      27.075  -1.252   3.389  1.00  0.00     0.053 C 
HETATM   11  C11 UNL     1      27.531  -1.986   4.563  1.00  0.00     0.149 C 
HETATM   12  O1  UNL     1      27.079  -3.108   4.839  1.00  0.00    -0.293 OA
HETATM   13  C12 UNL     1      28.569  -1.290   5.398  1.00  0.00     0.084 C 
HETATM   14  C13 UNL     1      28.050   0.116   5.615  1.00  0.00     0.022 C 
HETATM   15  C14 UNL     1      27.912   0.874   4.339  1.00  0.00    -0.016 C 
HETATM   16  C15 UNL     1      29.292   1.267   3.868  1.00  0.00     0.020 C 
HETATM   17  C16 UNL     1      26.094   4.128   3.660  1.00  0.00     0.001 C 
HETATM   18  C17 UNL     1      26.006   5.185   2.620  1.00  0.00     0.008 C 
HETATM   19  C18 UNL     1      25.463   6.383   3.395  1.00  0.00     0.033 C 
HETATM   20  C19 UNL     1      25.670   6.063   4.864  1.00  0.00     0.126 C 
ENDROOT
BRANCH  20  21
HETATM   21  O2  UNL     1      26.117   7.160   5.581  1.00  0.00    -0.395 OA
ATOM     22  H2  UNL     1      25.529   7.422   6.280  1.00  0.00     0.210 HD
ENDBRANCH  20  21
TORSDOF 1
ENDMDL
