MODEL 2
REMARK VINA RESULT: -8.764278685      1.168      6.285
REMARK  1 active torsions:
REMARK  status: ('A' for Active; 'I' for Inactive)
REMARK    1  A    between atoms: C19_20  and  O2_21 
ROOT
HETATM    1  C1  UNL     1      24.890   4.197   4.276  1.00  0.00     0.018 C 
HETATM    2  C2  UNL     1      26.249   4.426   3.665  1.00  0.00    -0.014 C 
HETATM    3  C3  UNL     1      26.489   3.633   2.432  1.00  0.00     0.012 C 
HETATM    4  C4  UNL     1      26.362   2.161   2.800  1.00  0.00     0.007 C 
HETATM    5  C5  UNL     1      27.421   1.810   3.806  1.00  0.00     0.002 C 
HETATM    6  C6  UNL     1      27.361   2.663   5.056  1.00  0.00    -0.004 C 
HETATM    7  C7  UNL     1      28.657   2.399   5.818  1.00  0.00     0.010 C 
HETATM    8  C8  UNL     1      28.878   0.956   6.096  1.00  0.00     0.035 C 
HETATM    9  C9  UNL     1      28.609   0.056   4.964  1.00  0.00    -0.068 C 
HETATM   10  C10 UNL     1      29.423  -0.986   4.725  1.00  0.00     0.053 C 
HETATM   11  C11 UNL     1      29.189  -1.901   3.614  1.00  0.00     0.149 C 
HETATM   12  O1  UNL     1      30.092  -2.628   3.175  1.00  0.00    -0.293 OA
HETATM   13  C12 UNL     1      27.794  -1.892   3.053  1.00  0.00     0.084 C 
HETATM   14  C13 UNL     1      27.444  -0.434   2.839  1.00  0.00     0.022 C 
HETATM   15  C14 UNL     1      27.424   0.338   4.114  1.00  0.00    -0.016 C 
HETATM   16  C15 UNL     1      26.173  -0.034   4.874  1.00  0.00     0.020 C 
HETATM   17  C16 UNL     1      27.365   4.088   4.651  1.00  0.00     0.001 C 
HETATM   18  C17 UNL     1      27.099   5.078   5.726  1.00  0.00     0.008 C 
HETATM   19  C18 UNL     1      26.762   6.347   4.947  1.00  0.00     0.033 C 
HETATM   20  C19 UNL     1      26.457   5.901   3.529  1.00  0.00     0.126 C 
ENDROOT
BRANCH  20  21
HETATM   21  O2  UNL     1      25.366   6.566   2.994  1.00  0.00    -0.395 OA
ATOM     22  H2  UNL     1      25.603   7.293   2.430  1.00  0.00     0.210 HD
ENDBRANCH  20  21
TORSDOF 1
ENDMDL
