MODEL 1
REMARK VINA RESULT: -11.242324379      0.000      0.000
REMARK  1 active torsions:
REMARK  status: ('A' for Active; 'I' for Inactive)
REMARK    1  A    between atoms: C19_20  and  O2_21 
ROOT
HETATM    1  C1  UNL     1      29.125  -0.114   5.740  1.00  0.00     0.018 C 
HETATM    2  C2  UNL     1      28.737   0.028   4.290  1.00  0.00    -0.014 C 
HETATM    3  C3  UNL     1      29.305   1.236   3.638  1.00  0.00     0.012 C 
HETATM    4  C4  UNL     1      28.798   2.452   4.401  1.00  0.00     0.007 C 
HETATM    5  C5  UNL     1      27.301   2.513   4.294  1.00  0.00     0.002 C 
HETATM    6  C6  UNL     1      26.617   1.261   4.801  1.00  0.00    -0.004 C 
HETATM    7  C7  UNL     1      25.162   1.354   4.348  1.00  0.00     0.010 C 
HETATM    8  C8  UNL     1      24.500   2.610   4.787  1.00  0.00     0.035 C 
HETATM    9  C9  UNL     1      25.303   3.831   4.610  1.00  0.00    -0.068 C 
HETATM   10  C10 UNL     1      24.720   4.962   4.179  1.00  0.00     0.053 C 
HETATM   11  C11 UNL     1      25.481   6.191   3.993  1.00  0.00     0.149 C 
HETATM   12  O1  UNL     1      25.055   7.113   3.281  1.00  0.00    -0.293 OA
HETATM   13  C12 UNL     1      26.798   6.253   4.716  1.00  0.00     0.084 C 
HETATM   14  C13 UNL     1      27.500   4.946   4.407  1.00  0.00     0.022 C 
HETATM   15  C14 UNL     1      26.753   3.765   4.924  1.00  0.00    -0.016 C 
HETATM   16  C15 UNL     1      26.931   3.709   6.423  1.00  0.00     0.020 C 
HETATM   17  C16 UNL     1      27.220   0.090   4.125  1.00  0.00     0.001 C 
HETATM   18  C17 UNL     1      26.827  -1.245   4.644  1.00  0.00     0.008 C 
HETATM   19  C18 UNL     1      27.891  -2.168   4.055  1.00  0.00     0.033 C 
HETATM   20  C19 UNL     1      29.024  -1.268   3.600  1.00  0.00     0.126 C 
ENDROOT
BRANCH  20  21
HETATM   21  O2  UNL     1      30.267  -1.794   3.907  1.00  0.00    -0.395 OA
ATOM     22  H2  UNL     1      30.450  -2.617   3.468  1.00  0.00     0.210 HD
ENDBRANCH  20  21
TORSDOF 1
ENDMDL
