MODEL 4
REMARK VINA RESULT: -8.191336992      1.358      6.001
REMARK  1 active torsions:
REMARK  status: ('A' for Active; 'I' for Inactive)
REMARK    1  A    between atoms: C19_20  and  O2_21 
ROOT
HETATM    1  C1  UNL     1      26.818   5.395   2.821  1.00  0.00     0.018 C 
HETATM    2  C2  UNL     1      27.037   5.001   4.259  1.00  0.00    -0.014 C 
HETATM    3  C3  UNL     1      28.297   4.246   4.484  1.00  0.00     0.012 C 
HETATM    4  C4  UNL     1      28.233   2.982   3.636  1.00  0.00     0.007 C 
HETATM    5  C5  UNL     1      27.081   2.135   4.097  1.00  0.00     0.002 C 
HETATM    6  C6  UNL     1      25.753   2.860   4.048  1.00  0.00    -0.004 C 
HETATM    7  C7  UNL     1      24.762   1.992   4.820  1.00  0.00     0.010 C 
HETATM    8  C8  UNL     1      24.696   0.599   4.308  1.00  0.00     0.035 C 
HETATM    9  C9  UNL     1      25.999  -0.022   4.022  1.00  0.00    -0.068 C 
HETATM   10  C10 UNL     1      26.216  -1.308   4.341  1.00  0.00     0.053 C 
HETATM   11  C11 UNL     1      27.493  -1.958   4.072  1.00  0.00     0.149 C 
HETATM   12  O1  UNL     1      27.824  -2.999   4.660  1.00  0.00    -0.293 OA
HETATM   13  C12 UNL     1      28.360  -1.282   3.047  1.00  0.00     0.084 C 
HETATM   14  C13 UNL     1      28.392   0.182   3.436  1.00  0.00     0.022 C 
HETATM   15  C14 UNL     1      27.045   0.815   3.378  1.00  0.00    -0.016 C 
HETATM   16  C15 UNL     1      26.681   1.027   1.927  1.00  0.00     0.020 C 
HETATM   17  C16 UNL     1      25.889   4.140   4.780  1.00  0.00     0.001 C 
HETATM   18  C17 UNL     1      24.752   5.089   4.664  1.00  0.00     0.008 C 
HETATM   19  C18 UNL     1      25.355   6.406   5.148  1.00  0.00     0.033 C 
HETATM   20  C19 UNL     1      26.861   6.219   5.110  1.00  0.00     0.126 C 
ENDROOT
BRANCH  20  21
HETATM   21  O2  UNL     1      27.515   7.336   4.619  1.00  0.00    -0.395 OA
ATOM     22  H2  UNL     1      27.965   7.838   5.288  1.00  0.00     0.210 HD
ENDBRANCH  20  21
TORSDOF 1
ENDMDL
