MODEL 2
REMARK VINA RESULT: -8.827264243      8.518     10.687
REMARK  8 active torsions:
REMARK  status: ('A' for Active; 'I' for Inactive)
REMARK    1  A    between atoms: N4_10  and  C5_11 
REMARK    2  A    between atoms: C6_13  and  C7_14 
REMARK    3  A    between atoms: C7_14  and  O2_15 
REMARK    4  A    between atoms: O2_15  and  P1_16 
REMARK    5  A    between atoms: P1_16  and  O5_19 
REMARK    6  A    between atoms: O5_19  and  P2_20 
REMARK    7  A    between atoms: C8_24  and  O9_25 
REMARK    8  A    between atoms: C9_27  and  O10_28 
ROOT
HETATM    1  C5  UNL     1      -3.169   6.886  52.735  1.00  0.00     0.262 C 
HETATM    2  O1  UNL     1      -3.614   5.816  53.479  1.00  0.00    -0.353 OA
HETATM    3  C6  UNL     1      -3.643   6.257  54.776  1.00  0.00     0.180 C 
HETATM    4  C8  UNL     1      -4.325   7.604  54.656  1.00  0.00     0.182 C 
HETATM    5  C9  UNL     1      -3.695   8.144  53.391  1.00  0.00     0.198 C 
ENDROOT
BRANCH   1   6
HETATM    6  N4  UNL     1      -3.740   6.791  51.419  1.00  0.00    -0.297 N 
HETATM    7  C2  UNL     1      -4.111   5.618  50.844  1.00  0.00     0.146 A 
HETATM    8  N2  UNL     1      -4.068   4.335  51.262  1.00  0.00    -0.314 N 
HETATM    9  C3  UNL     1      -4.602   5.946  49.610  1.00  0.00     0.146 A 
HETATM   10  C1  UNL     1      -4.504   3.329  50.489  1.00  0.00     0.196 A 
ATOM     11  H2  UNL     1      -3.695   4.126  52.188  1.00  0.00     0.170 HD
HETATM   12  N1  UNL     1      -4.472   1.973  50.903  1.00  0.00    -0.063 NA
HETATM   13  N5  UNL     1      -4.995   3.657  49.259  1.00  0.00    -0.295 N 
HETATM   14  C10 UNL     1      -5.051   4.915  48.816  1.00  0.00     0.278 A 
ATOM     15  H5  UNL     1      -5.333   2.909  48.653  1.00  0.00     0.171 HD
HETATM   16  O11 UNL     1      -5.516   5.178  47.661  1.00  0.00    -0.265 OA
HETATM   17  N3  UNL     1      -4.523   7.270  49.464  1.00  0.00    -0.345 N 
HETATM   18  C4  UNL     1      -3.994   7.802  50.572  1.00  0.00     0.188 A 
ATOM     19  H3  UNL     1      -4.819   7.794  48.640  1.00  0.00     0.167 HD
ENDBRANCH   1   6
BRANCH   5  20
HETATM   20  O10 UNL     1      -2.647   8.995  53.788  1.00  0.00    -0.388 OA
ATOM     21  H10 UNL     1      -2.974   9.840  54.073  1.00  0.00     0.210 HD
ENDBRANCH   5  20
BRANCH   3  22
HETATM   22  C7  UNL     1      -4.554   5.399  55.659  1.00  0.00     0.216 C 
BRANCH  22  23
HETATM   23  O2  UNL     1      -5.800   5.995  55.607  1.00  0.00    -0.287 OA
BRANCH  23  24
HETATM   24  P1  UNL     1      -6.970   5.042  54.878  1.00  0.00     0.418 P 
HETATM   25  O3  UNL     1      -7.534   4.136  55.978  1.00  0.00    -0.624 OA
HETATM   26  O4  UNL     1      -6.344   4.089  53.629  1.00  0.00    -0.624 OA
BRANCH  24  27
HETATM   27  O5  UNL     1      -8.153   6.042  54.235  1.00  0.00    -0.173 OA
BRANCH  27  28
HETATM   28  P2  UNL     1      -9.361   5.231  53.430  1.00  0.00     0.431 P 
HETATM   29  O6  UNL     1      -8.979   5.188  51.948  1.00  0.00    -0.616 OA
HETATM   30  O7  UNL     1     -10.805   6.137  53.499  1.00  0.00    -0.616 OA
HETATM   31  O8  UNL     1      -9.593   3.657  53.928  1.00  0.00    -0.616 OA
ENDBRANCH  27  28
ENDBRANCH  24  27
ENDBRANCH  23  24
ENDBRANCH  22  23
ENDBRANCH   3  22
BRANCH   4  32
HETATM   32  O9  UNL     1      -4.060   8.415  55.752  1.00  0.00    -0.390 OA
ATOM     33  H9  UNL     1      -3.764   7.910  56.500  1.00  0.00     0.210 HD
ENDBRANCH   4  32
TORSDOF 8
ENDMDL
