MODEL 9
REMARK VINA RESULT: -8.087861598      0.856      1.380
REMARK  8 active torsions:
REMARK  status: ('A' for Active; 'I' for Inactive)
REMARK    1  A    between atoms: N4_10  and  C5_11 
REMARK    2  A    between atoms: C6_13  and  C7_14 
REMARK    3  A    between atoms: C7_14  and  O2_15 
REMARK    4  A    between atoms: O2_15  and  P1_16 
REMARK    5  A    between atoms: P1_16  and  O5_19 
REMARK    6  A    between atoms: O5_19  and  P2_20 
REMARK    7  A    between atoms: C8_24  and  O9_25 
REMARK    8  A    between atoms: C9_27  and  O10_28 
ROOT
HETATM    1  C5  UNL     1     -11.324   1.608  59.261  1.00  0.00     0.262 C 
HETATM    2  O1  UNL     1     -11.083   2.777  58.573  1.00  0.00    -0.353 OA
HETATM    3  C6  UNL     1      -9.729   2.976  58.649  1.00  0.00     0.180 C 
HETATM    4  C8  UNL     1      -9.172   1.610  58.308  1.00  0.00     0.182 C 
HETATM    5  C9  UNL     1     -10.130   0.703  59.049  1.00  0.00     0.198 C 
ENDROOT
BRANCH   1   6
HETATM    6  N4  UNL     1     -12.478   0.974  58.684  1.00  0.00    -0.297 N 
HETATM    7  C2  UNL     1     -13.422   0.325  59.413  1.00  0.00     0.146 A 
HETATM    8  N2  UNL     1     -13.564   0.095  60.737  1.00  0.00    -0.314 N 
HETATM    9  C3  UNL     1     -14.343  -0.133  58.511  1.00  0.00     0.146 A 
HETATM   10  C1  UNL     1     -14.611  -0.590  61.222  1.00  0.00     0.196 A 
ATOM     11  H2  UNL     1     -12.859   0.451  61.382  1.00  0.00     0.170 HD
HETATM   12  N1  UNL     1     -14.786  -0.845  62.606  1.00  0.00    -0.063 NA
HETATM   13  N5  UNL     1     -15.529  -1.045  60.322  1.00  0.00    -0.295 N 
HETATM   14  C10 UNL     1     -15.417  -0.835  59.009  1.00  0.00     0.278 A 
ATOM     15  H5  UNL     1     -16.334  -1.569  60.667  1.00  0.00     0.171 HD
HETATM   16  O11 UNL     1     -16.296  -1.278  58.201  1.00  0.00    -0.265 OA
HETATM   17  N3  UNL     1     -13.953   0.235  57.289  1.00  0.00    -0.345 N 
HETATM   18  C4  UNL     1     -12.806   0.918  57.383  1.00  0.00     0.188 A 
ATOM     19  H3  UNL     1     -14.450   0.029  56.422  1.00  0.00     0.167 HD
ENDBRANCH   1   6
BRANCH   5  20
HETATM   20  O10 UNL     1      -9.514   0.369  60.270  1.00  0.00    -0.388 OA
ATOM     21  H10 UNL     1      -8.593   0.174  60.152  1.00  0.00     0.210 HD
ENDBRANCH   5  20
BRANCH   3  22
HETATM   22  C7  UNL     1      -9.220   3.924  57.560  1.00  0.00     0.216 C 
BRANCH  22  23
HETATM   23  O2  UNL     1      -8.689   3.115  56.573  1.00  0.00    -0.287 OA
BRANCH  23  24
HETATM   24  P1  UNL     1      -9.105   3.589  55.020  1.00  0.00     0.418 P 
HETATM   25  O3  UNL     1     -10.029   4.801  55.173  1.00  0.00    -0.624 OA
HETATM   26  O4  UNL     1      -9.908   2.371  54.165  1.00  0.00    -0.624 OA
BRANCH  24  27
HETATM   27  O5  UNL     1      -7.704   3.982  54.185  1.00  0.00    -0.173 OA
BRANCH  27  28
HETATM   28  P2  UNL     1      -7.318   5.599  54.235  1.00  0.00     0.431 P 
HETATM   29  O6  UNL     1      -5.932   5.760  53.604  1.00  0.00    -0.616 OA
HETATM   30  O7  UNL     1      -7.137   6.095  55.857  1.00  0.00    -0.616 OA
HETATM   31  O8  UNL     1      -8.363   6.589  53.396  1.00  0.00    -0.616 OA
ENDBRANCH  27  28
ENDBRANCH  24  27
ENDBRANCH  23  24
ENDBRANCH  22  23
ENDBRANCH   3  22
BRANCH   4  32
HETATM   32  O9  UNL     1      -7.866   1.459  58.758  1.00  0.00    -0.390 OA
ATOM     33  H9  UNL     1      -7.597   0.549  58.759  1.00  0.00     0.210 HD
ENDBRANCH   4  32
TORSDOF 8
ENDMDL
