MODEL 5
REMARK VINA RESULT: -8.175164427      7.233      9.925
REMARK  8 active torsions:
REMARK  status: ('A' for Active; 'I' for Inactive)
REMARK    1  A    between atoms: N4_10  and  C5_11 
REMARK    2  A    between atoms: C6_13  and  C7_14 
REMARK    3  A    between atoms: C7_14  and  O2_15 
REMARK    4  A    between atoms: O2_15  and  P1_16 
REMARK    5  A    between atoms: P1_16  and  O5_19 
REMARK    6  A    between atoms: O5_19  and  P2_20 
REMARK    7  A    between atoms: C8_24  and  O9_25 
REMARK    8  A    between atoms: C9_27  and  O10_28 
ROOT
HETATM    1  C5  UNL     1      -4.286   6.527  52.173  1.00  0.00     0.262 C 
HETATM    2  O1  UNL     1      -5.141   6.395  53.245  1.00  0.00    -0.353 OA
HETATM    3  C6  UNL     1      -5.916   7.525  53.237  1.00  0.00     0.180 C 
HETATM    4  C8  UNL     1      -6.321   7.642  51.782  1.00  0.00     0.182 C 
HETATM    5  C9  UNL     1      -5.034   7.263  51.083  1.00  0.00     0.198 C 
ENDROOT
BRANCH   1   6
HETATM    6  N4  UNL     1      -3.962   5.212  51.688  1.00  0.00    -0.297 N 
HETATM    7  C2  UNL     1      -4.250   4.070  52.364  1.00  0.00     0.146 A 
HETATM    8  N2  UNL     1      -4.851   3.830  53.550  1.00  0.00    -0.314 N 
HETATM    9  C3  UNL     1      -3.789   3.046  51.582  1.00  0.00     0.146 A 
HETATM   10  C1  UNL     1      -5.021   2.581  54.010  1.00  0.00     0.196 A 
ATOM     11  H2  UNL     1      -5.184   4.616  54.107  1.00  0.00     0.170 HD
HETATM   12  N1  UNL     1      -5.649   2.300  55.251  1.00  0.00    -0.063 NA
HETATM   13  N5  UNL     1      -4.562   1.561  53.230  1.00  0.00    -0.295 N 
HETATM   14  C10 UNL     1      -3.964   1.765  52.054  1.00  0.00     0.278 A 
ATOM     15  H5  UNL     1      -4.679   0.603  53.560  1.00  0.00     0.171 HD
HETATM   16  O11 UNL     1      -3.549   0.785  51.356  1.00  0.00    -0.265 OA
HETATM   17  N3  UNL     1      -3.247   3.570  50.481  1.00  0.00    -0.345 N 
HETATM   18  C4  UNL     1      -3.348   4.903  50.534  1.00  0.00     0.188 A 
ATOM     19  H3  UNL     1      -2.823   3.039  49.720  1.00  0.00     0.167 HD
ENDBRANCH   1   6
BRANCH   5  20
HETATM   20  O10 UNL     1      -4.389   8.464  50.737  1.00  0.00    -0.388 OA
ATOM     21  H10 UNL     1      -4.869   9.220  51.052  1.00  0.00     0.210 HD
ENDBRANCH   5  20
BRANCH   3  22
HETATM   22  C7  UNL     1      -7.217   7.341  54.024  1.00  0.00     0.216 C 
BRANCH  22  23
HETATM   23  O2  UNL     1      -8.188   7.043  53.085  1.00  0.00    -0.287 OA
BRANCH  23  24
HETATM   24  P1  UNL     1      -9.037   5.638  53.421  1.00  0.00     0.418 P 
HETATM   25  O3  UNL     1      -8.960   4.776  52.156  1.00  0.00    -0.624 OA
HETATM   26  O4  UNL     1     -10.657   5.935  53.803  1.00  0.00    -0.624 OA
BRANCH  24  27
HETATM   27  O5  UNL     1      -8.318   4.876  54.731  1.00  0.00    -0.173 OA
BRANCH  27  28
HETATM   28  P2  UNL     1      -9.239   3.662  55.397  1.00  0.00     0.431 P 
HETATM   29  O6  UNL     1      -8.310   2.796  56.253  1.00  0.00    -0.616 OA
HETATM   30  O7  UNL     1      -9.808   2.632  54.163  1.00  0.00    -0.616 OA
HETATM   31  O8  UNL     1     -10.474   4.189  56.384  1.00  0.00    -0.616 OA
ENDBRANCH  27  28
ENDBRANCH  24  27
ENDBRANCH  23  24
ENDBRANCH  22  23
ENDBRANCH   3  22
BRANCH   4  32
HETATM   32  O9  UNL     1      -6.722   8.933  51.461  1.00  0.00    -0.390 OA
ATOM     33  H9  UNL     1      -7.617   9.100  51.730  1.00  0.00     0.210 HD
ENDBRANCH   4  32
TORSDOF 8
ENDMDL
