MODEL 1
REMARK VINA RESULT: -9.226483798      0.000      0.000
REMARK  8 active torsions:
REMARK  status: ('A' for Active; 'I' for Inactive)
REMARK    1  A    between atoms: N4_10  and  C5_11 
REMARK    2  A    between atoms: C6_13  and  C7_14 
REMARK    3  A    between atoms: C7_14  and  O2_15 
REMARK    4  A    between atoms: O2_15  and  P1_16 
REMARK    5  A    between atoms: P1_16  and  O5_19 
REMARK    6  A    between atoms: O5_19  and  P2_20 
REMARK    7  A    between atoms: C8_24  and  O9_25 
REMARK    8  A    between atoms: C9_27  and  O10_28 
ROOT
HETATM    1  C5  UNL     1     -11.418   1.614  59.172  1.00  0.00     0.262 C 
HETATM    2  O1  UNL     1     -11.116   2.716  58.402  1.00  0.00    -0.353 OA
HETATM    3  C6  UNL     1      -9.762   2.889  58.524  1.00  0.00     0.180 C 
HETATM    4  C8  UNL     1      -9.226   1.487  58.323  1.00  0.00     0.182 C 
HETATM    5  C9  UNL     1     -10.240   0.668  59.091  1.00  0.00     0.198 C 
ENDROOT
BRANCH   1   6
HETATM    6  N4  UNL     1     -12.562   0.960  58.598  1.00  0.00    -0.297 N 
HETATM    7  C2  UNL     1     -13.499   0.305  59.330  1.00  0.00     0.146 A 
HETATM    8  N2  UNL     1     -13.641   0.084  60.655  1.00  0.00    -0.314 N 
HETATM    9  C3  UNL     1     -14.412  -0.172  58.429  1.00  0.00     0.146 A 
HETATM   10  C1  UNL     1     -14.681  -0.611  61.143  1.00  0.00     0.196 A 
ATOM     11  H2  UNL     1     -12.943   0.454  61.299  1.00  0.00     0.170 HD
HETATM   12  N1  UNL     1     -14.855  -0.858  62.529  1.00  0.00    -0.063 NA
HETATM   13  N5  UNL     1     -15.590  -1.086  60.245  1.00  0.00    -0.295 N 
HETATM   14  C10 UNL     1     -15.478  -0.884  58.930  1.00  0.00     0.278 A 
ATOM     15  H5  UNL     1     -16.389  -1.617  60.592  1.00  0.00     0.171 HD
HETATM   16  O11 UNL     1     -16.349  -1.344  58.124  1.00  0.00    -0.265 OA
HETATM   17  N3  UNL     1     -14.024   0.192  57.205  1.00  0.00    -0.345 N 
HETATM   18  C4  UNL     1     -12.885   0.890  57.296  1.00  0.00     0.188 A 
ATOM     19  H3  UNL     1     -14.515  -0.027  56.339  1.00  0.00     0.167 HD
ENDBRANCH   1   6
BRANCH   5  20
HETATM   20  O10 UNL     1      -9.687   0.423  60.362  1.00  0.00    -0.388 OA
ATOM     21  H10 UNL     1      -9.049   1.086  60.596  1.00  0.00     0.210 HD
ENDBRANCH   5  20
BRANCH   3  22
HETATM   22  C7  UNL     1      -9.180   3.731  57.384  1.00  0.00     0.216 C 
BRANCH  22  23
HETATM   23  O2  UNL     1      -8.592   2.833  56.513  1.00  0.00    -0.287 OA
BRANCH  23  24
HETATM   24  P1  UNL     1      -8.542   3.371  54.927  1.00  0.00     0.418 P 
HETATM   25  O3  UNL     1      -9.708   2.689  54.204  1.00  0.00    -0.624 OA
HETATM   26  O4  UNL     1      -7.091   2.975  54.154  1.00  0.00    -0.624 OA
BRANCH  24  27
HETATM   27  O5  UNL     1      -8.703   5.040  54.920  1.00  0.00    -0.173 OA
BRANCH  27  28
HETATM   28  P2  UNL     1      -9.216   5.665  53.467  1.00  0.00     0.431 P 
HETATM   29  O6  UNL     1      -8.371   6.909  53.178  1.00  0.00    -0.616 OA
HETATM   30  O7  UNL     1     -10.817   6.232  53.620  1.00  0.00    -0.616 OA
HETATM   31  O8  UNL     1      -9.044   4.636  52.168  1.00  0.00    -0.616 OA
ENDBRANCH  27  28
ENDBRANCH  24  27
ENDBRANCH  23  24
ENDBRANCH  22  23
ENDBRANCH   3  22
BRANCH   4  32
HETATM   32  O9  UNL     1      -7.946   1.345  58.843  1.00  0.00    -0.390 OA
ATOM     33  H9  UNL     1      -7.964   1.071  59.752  1.00  0.00     0.210 HD
ENDBRANCH   4  32
TORSDOF 8
ENDMDL
