MODEL 4
REMARK VINA RESULT: -8.430335472      8.270     10.615
REMARK  8 active torsions:
REMARK  status: ('A' for Active; 'I' for Inactive)
REMARK    1  A    between atoms: N4_10  and  C5_11 
REMARK    2  A    between atoms: C6_13  and  C7_14 
REMARK    3  A    between atoms: C7_14  and  O2_15 
REMARK    4  A    between atoms: O2_15  and  P1_16 
REMARK    5  A    between atoms: P1_16  and  O5_19 
REMARK    6  A    between atoms: O5_19  and  P2_20 
REMARK    7  A    between atoms: C8_24  and  O9_25 
REMARK    8  A    between atoms: C9_27  and  O10_28 
ROOT
HETATM    1  C5  UNL     1      -3.825   5.630  52.331  1.00  0.00     0.262 C 
HETATM    2  O1  UNL     1      -4.326   4.369  52.572  1.00  0.00    -0.353 OA
HETATM    3  C6  UNL     1      -4.628   4.343  53.908  1.00  0.00     0.180 C 
HETATM    4  C8  UNL     1      -5.368   5.649  54.109  1.00  0.00     0.182 C 
HETATM    5  C9  UNL     1      -4.552   6.589  53.248  1.00  0.00     0.198 C 
ENDROOT
BRANCH   1   6
HETATM    6  N4  UNL     1      -4.132   5.987  50.972  1.00  0.00    -0.297 N 
HETATM    7  C2  UNL     1      -4.493   5.087  50.022  1.00  0.00     0.146 A 
HETATM    8  N2  UNL     1      -4.658   3.746  50.041  1.00  0.00    -0.314 N 
HETATM    9  C3  UNL     1      -4.697   5.810  48.879  1.00  0.00     0.146 A 
HETATM   10  C1  UNL     1      -5.029   3.068  48.944  1.00  0.00     0.196 A 
ATOM     11  H2  UNL     1      -4.498   3.237  50.910  1.00  0.00     0.170 HD
HETATM   12  N1  UNL     1      -5.210   1.662  48.935  1.00  0.00    -0.063 NA
HETATM   13  N5  UNL     1      -5.233   3.791  47.805  1.00  0.00    -0.295 N 
HETATM   14  C10 UNL     1      -5.078   5.116  47.754  1.00  0.00     0.278 A 
ATOM     15  H5  UNL     1      -5.515   3.298  46.957  1.00  0.00     0.171 HD
HETATM   16  O11 UNL     1      -5.278   5.753  46.670  1.00  0.00    -0.265 OA
HETATM   17  N3  UNL     1      -4.464   7.096  49.149  1.00  0.00    -0.345 N 
HETATM   18  C4  UNL     1      -4.115   7.217  50.435  1.00  0.00     0.188 A 
ATOM     19  H3  UNL     1      -4.539   7.864  48.481  1.00  0.00     0.167 HD
ENDBRANCH   1   6
BRANCH   5  20
HETATM   20  O10 UNL     1      -3.659   7.256  54.108  1.00  0.00    -0.388 OA
ATOM     21  H10 UNL     1      -4.120   7.814  54.722  1.00  0.00     0.210 HD
ENDBRANCH   5  20
BRANCH   3  22
HETATM   22  C7  UNL     1      -5.626   3.234  54.254  1.00  0.00     0.216 C 
BRANCH  22  23
HETATM   23  O2  UNL     1      -6.830   3.621  53.695  1.00  0.00    -0.287 OA
BRANCH  23  24
HETATM   24  P1  UNL     1      -8.122   3.535  54.758  1.00  0.00     0.418 P 
HETATM   25  O3  UNL     1      -7.549   3.056  56.095  1.00  0.00    -0.624 OA
HETATM   26  O4  UNL     1      -9.317   2.457  54.239  1.00  0.00    -0.624 OA
BRANCH  24  27
HETATM   27  O5  UNL     1      -8.810   5.059  54.891  1.00  0.00    -0.173 OA
BRANCH  27  28
HETATM   28  P2  UNL     1      -9.290   5.715  53.441  1.00  0.00     0.431 P 
HETATM   29  O6  UNL     1      -8.419   6.947  53.181  1.00  0.00    -0.616 OA
HETATM   30  O7  UNL     1     -10.883   6.309  53.580  1.00  0.00    -0.616 OA
HETATM   31  O8  UNL     1      -9.119   4.701  52.129  1.00  0.00    -0.616 OA
ENDBRANCH  27  28
ENDBRANCH  24  27
ENDBRANCH  23  24
ENDBRANCH  22  23
ENDBRANCH   3  22
BRANCH   4  32
HETATM   32  O9  UNL     1      -5.370   6.039  55.442  1.00  0.00    -0.390 OA
ATOM     33  H9  UNL     1      -5.853   6.847  55.571  1.00  0.00     0.210 HD
ENDBRANCH   4  32
TORSDOF 8
ENDMDL
