MODEL 3
REMARK VINA RESULT: -8.608419429      0.686      1.038
REMARK  8 active torsions:
REMARK  status: ('A' for Active; 'I' for Inactive)
REMARK    1  A    between atoms: N4_10  and  C5_11 
REMARK    2  A    between atoms: C6_13  and  C7_14 
REMARK    3  A    between atoms: C7_14  and  O2_15 
REMARK    4  A    between atoms: O2_15  and  P1_16 
REMARK    5  A    between atoms: P1_16  and  O5_19 
REMARK    6  A    between atoms: O5_19  and  P2_20 
REMARK    7  A    between atoms: C8_24  and  O9_25 
REMARK    8  A    between atoms: C9_27  and  O10_28 
ROOT
HETATM    1  C5  UNL     1     -11.366   1.604  59.116  1.00  0.00     0.262 C 
HETATM    2  O1  UNL     1     -11.164   2.802  58.466  1.00  0.00    -0.353 OA
HETATM    3  C6  UNL     1      -9.811   3.018  58.504  1.00  0.00     0.180 C 
HETATM    4  C8  UNL     1      -9.248   1.673  58.092  1.00  0.00     0.182 C 
HETATM    5  C9  UNL     1     -10.168   0.726  58.829  1.00  0.00     0.198 C 
ENDROOT
BRANCH   1   6
HETATM    6  N4  UNL     1     -12.530   0.976  58.554  1.00  0.00    -0.297 N 
HETATM    7  C2  UNL     1     -13.473   0.339  59.297  1.00  0.00     0.146 A 
HETATM    8  N2  UNL     1     -13.604   0.119  60.623  1.00  0.00    -0.314 N 
HETATM    9  C3  UNL     1     -14.406  -0.117  58.407  1.00  0.00     0.146 A 
HETATM   10  C1  UNL     1     -14.651  -0.555  61.123  1.00  0.00     0.196 A 
ATOM     11  H2  UNL     1     -12.890   0.473  61.259  1.00  0.00     0.170 HD
HETATM   12  N1  UNL     1     -14.815  -0.800  62.510  1.00  0.00    -0.063 NA
HETATM   13  N5  UNL     1     -15.581  -1.009  60.235  1.00  0.00    -0.295 N 
HETATM   14  C10 UNL     1     -15.481  -0.807  58.919  1.00  0.00     0.278 A 
ATOM     15  H5  UNL     1     -16.387  -1.523  60.591  1.00  0.00     0.171 HD
HETATM   16  O11 UNL     1     -16.371  -1.248  58.123  1.00  0.00    -0.265 OA
HETATM   17  N3  UNL     1     -14.025   0.240  57.179  1.00  0.00    -0.345 N 
HETATM   18  C4  UNL     1     -12.871   0.914  57.257  1.00  0.00     0.188 A 
ATOM     19  H3  UNL     1     -14.532   0.033  56.318  1.00  0.00     0.167 HD
ENDBRANCH   1   6
BRANCH   5  20
HETATM   20  O10 UNL     1      -9.506   0.354  60.015  1.00  0.00    -0.388 OA
ATOM     21  H10 UNL     1      -9.106  -0.503  59.935  1.00  0.00     0.210 HD
ENDBRANCH   5  20
BRANCH   3  22
HETATM   22  C7  UNL     1      -9.352   4.014  57.436  1.00  0.00     0.216 C 
BRANCH  22  23
HETATM   23  O2  UNL     1      -8.786   3.254  56.429  1.00  0.00    -0.287 OA
BRANCH  23  24
HETATM   24  P1  UNL     1      -7.579   4.053  55.583  1.00  0.00     0.418 P 
HETATM   25  O3  UNL     1      -6.984   3.028  54.612  1.00  0.00    -0.624 OA
HETATM   26  O4  UNL     1      -6.361   4.644  56.595  1.00  0.00    -0.624 OA
BRANCH  24  27
HETATM   27  O5  UNL     1      -8.263   5.350  54.769  1.00  0.00    -0.173 OA
BRANCH  27  28
HETATM   28  P2  UNL     1      -9.423   4.918  53.659  1.00  0.00     0.431 P 
HETATM   29  O6  UNL     1      -8.813   5.089  52.265  1.00  0.00    -0.616 OA
HETATM   30  O7  UNL     1     -10.720   6.024  53.725  1.00  0.00    -0.616 OA
HETATM   31  O8  UNL     1      -9.947   3.340  53.780  1.00  0.00    -0.616 OA
ENDBRANCH  27  28
ENDBRANCH  24  27
ENDBRANCH  23  24
ENDBRANCH  22  23
ENDBRANCH   3  22
BRANCH   4  32
HETATM   32  O9  UNL     1      -7.926   1.525  58.492  1.00  0.00    -0.390 OA
ATOM     33  H9  UNL     1      -7.856   1.042  59.306  1.00  0.00     0.210 HD
ENDBRANCH   4  32
TORSDOF 8
ENDMDL
