MODEL 2
REMARK VINA RESULT: -12.716162491      2.479      4.329
REMARK  17 active torsions:
REMARK  status: ('A' for Active; 'I' for Inactive)
REMARK    1  A    between atoms: C9_9  and  O1_10 
REMARK    2  A    between atoms: C17_19  and  C18_20 
REMARK    3  A    between atoms: C18_20  and  C19_21 
REMARK    4  A    between atoms: C19_21  and  C20_22 
REMARK    5  A    between atoms: C20_22  and  C21_23 
REMARK    6  A    between atoms: C21_23  and  C22_24 
REMARK    7  A    between atoms: C22_24  and  C23_25 
REMARK    8  A    between atoms: C23_25  and  C24_26 
REMARK    9  A    between atoms: C24_26  and  C25_27 
REMARK   10  A    between atoms: C25_27  and  C26_28 
REMARK   11  A    between atoms: C26_28  and  O3_30 
REMARK   12  A    between atoms: O3_30  and  C27_31 
REMARK   13  A    between atoms: C27_31  and  C28_32 
REMARK   14  A    between atoms: C29_34  and  N1_35 
REMARK   15  A    between atoms: C35_48  and  O5_49 
REMARK   16  A    between atoms: C36_51  and  O6_52 
REMARK   17  A    between atoms: C37_54  and  O7_55 
ROOT
HETATM    1  C23 UNL     1      14.641   0.502 -10.511  1.00  0.00     0.000 C 
ENDROOT
BRANCH   1   2
HETATM    2  C22 UNL     1      13.873   1.034 -11.638  1.00  0.00     0.000 C 
BRANCH   2   3
HETATM    3  C21 UNL     1      12.663   1.858 -11.458  1.00  0.00     0.000 C 
BRANCH   3   4
HETATM    4  C20 UNL     1      11.639   1.458 -10.478  1.00  0.00     0.000 C 
BRANCH   4   5
HETATM    5  C19 UNL     1      11.272   2.585  -9.497  1.00  0.00     0.000 C 
BRANCH   5   6
HETATM    6  C18 UNL     1      12.414   3.460  -9.205  1.00  0.00     0.007 C 
BRANCH   6   7
HETATM    7  C17 UNL     1      12.261   4.897  -9.520  1.00  0.00     0.015 C 
HETATM    8  C16 UNL     1      11.537   5.178 -10.845  1.00  0.00     0.013 C 
HETATM    9  C15 UNL     1      11.499   6.658 -10.683  1.00  0.00     0.001 C 
HETATM   10  C2  UNL     1      10.823   6.777  -9.310  1.00  0.00    -0.014 C 
HETATM   11  C14 UNL     1      10.775   7.494 -11.620  1.00  0.00    -0.001 C 
HETATM   12  C1  UNL     1       9.400   6.345  -9.317  1.00  0.00     0.018 C 
HETATM   13  C3  UNL     1      10.955   8.196  -8.895  1.00  0.00     0.013 C 
HETATM   14  C37 UNL     1      11.642   5.785  -8.518  1.00  0.00     0.130 C 
HETATM   15  C4  UNL     1      11.646   9.082  -9.888  1.00  0.00     0.010 C 
HETATM   16  C5  UNL     1      11.261   8.931 -11.287  1.00  0.00     0.023 C 
HETATM   17  C6  UNL     1      10.309   9.826 -11.897  1.00  0.00    -0.047 A 
HETATM   18  C7  UNL     1       9.934  11.001 -11.314  1.00  0.00     0.011 A 
HETATM   19  C11 UNL     1       9.765   9.481 -13.116  1.00  0.00    -0.049 A 
HETATM   20  C8  UNL     1       9.008  11.856 -11.933  1.00  0.00     0.037 A 
HETATM   21  C9  UNL     1       8.476  11.503 -13.139  1.00  0.00     0.066 A 
HETATM   22  C10 UNL     1       8.857  10.331 -13.709  1.00  0.00     0.044 A 
HETATM   23  C12 UNL     1      10.096   8.238 -13.842  1.00  0.00     0.039 C 
HETATM   24  C13 UNL     1      10.992   7.309 -13.076  1.00  0.00     0.010 C 
BRANCH  21  25
HETATM   25  O1  UNL     1       7.550  12.384 -13.732  1.00  0.00    -0.361 OA
ATOM     26  H1  UNL     1       6.640  12.317 -13.464  1.00  0.00     0.217 HD
ENDBRANCH  21  25
BRANCH  14  27
HETATM   27  O7  UNL     1      10.828   5.192  -7.595  1.00  0.00    -0.394 OA
ATOM     28  H7  UNL     1      10.821   4.255  -7.756  1.00  0.00     0.210 HD
ENDBRANCH  14  27
ENDBRANCH   6   7
ENDBRANCH   5   6
ENDBRANCH   4   5
ENDBRANCH   3   4
ENDBRANCH   2   3
ENDBRANCH   1   2
BRANCH   1  29
HETATM   29  C24 UNL     1      14.920   1.308  -9.311  1.00  0.00     0.010 C 
BRANCH  29  30
HETATM   30  C25 UNL     1      15.869   2.463  -9.728  1.00  0.00     0.111 C 
BRANCH  30  31
HETATM   31  C26 UNL     1      16.231   3.238  -8.524  1.00  0.00     0.258 C 
HETATM   32  O2  UNL     1      17.204   2.901  -7.789  1.00  0.00    -0.265 OA
BRANCH  31  33
HETATM   33  O3  UNL     1      15.519   4.347  -8.173  1.00  0.00    -0.319 OA
BRANCH  33  34
HETATM   34  C27 UNL     1      15.186   4.769  -6.889  1.00  0.00     0.213 C 
BRANCH  34  35
HETATM   35  C28 UNL     1      14.224   3.918  -6.138  1.00  0.00     0.180 C 
HETATM   36  O4  UNL     1      14.724   2.729  -5.693  1.00  0.00    -0.353 OA
HETATM   37  C29 UNL     1      13.823   2.288  -4.716  1.00  0.00     0.262 C 
HETATM   38  C35 UNL     1      13.617   3.539  -3.887  1.00  0.00     0.198 C 
HETATM   39  C36 UNL     1      13.687   4.649  -4.920  1.00  0.00     0.182 C 
BRANCH  37  40
HETATM   40  N1  UNL     1      14.386   1.211  -3.963  1.00  0.00    -0.297 N 
HETATM   41  C30 UNL     1      14.943   1.201  -2.745  1.00  0.00     0.188 A 
HETATM   42  N2  UNL     1      15.345  -0.042  -2.418  1.00  0.00    -0.346 N 
HETATM   43  C31 UNL     1      15.039  -0.851  -3.447  1.00  0.00     0.119 A 
ATOM     44  H2  UNL     1      15.799  -0.319  -1.548  1.00  0.00     0.167 HD
HETATM   45  C32 UNL     1      15.216  -2.191  -3.658  1.00  0.00     0.148 A 
HETATM   46  C34 UNL     1      14.445  -0.073  -4.405  1.00  0.00     0.142 A 
HETATM   47  N3  UNL     1      15.828  -3.029  -2.687  1.00  0.00    -0.080 NA
HETATM   48  N4  UNL     1      14.802  -2.736  -4.812  1.00  0.00    -0.339 N 
HETATM   49  C33 UNL     1      14.221  -1.972  -5.744  1.00  0.00     0.183 A 
ATOM     50  H4  UNL     1      14.930  -3.734  -4.979  1.00  0.00     0.167 HD
HETATM   51  N5  UNL     1      14.047  -0.660  -5.541  1.00  0.00    -0.336 N 
ATOM     52  H5  UNL     1      13.603  -0.097  -6.266  1.00  0.00     0.168 HD
ENDBRANCH  37  40
BRANCH  38  53
HETATM   53  O5  UNL     1      12.368   3.554  -3.268  1.00  0.00    -0.388 OA
ATOM     54  H5  UNL     1      12.317   4.215  -2.588  1.00  0.00     0.210 HD
ENDBRANCH  38  53
BRANCH  39  55
HETATM   55  O6  UNL     1      12.400   5.142  -5.148  1.00  0.00    -0.390 OA
ATOM     56  H6  UNL     1      11.774   4.769  -4.538  1.00  0.00     0.210 HD
ENDBRANCH  39  55
ENDBRANCH  34  35
ENDBRANCH  33  34
ENDBRANCH  31  33
ENDBRANCH  30  31
ENDBRANCH  29  30
ENDBRANCH   1  29
TORSDOF 17
ENDMDL
