MODEL 3
REMARK VINA RESULT: -12.695426632      1.637      2.360
REMARK  17 active torsions:
REMARK  status: ('A' for Active; 'I' for Inactive)
REMARK    1  A    between atoms: C9_9  and  O1_10 
REMARK    2  A    between atoms: C17_19  and  C18_20 
REMARK    3  A    between atoms: C18_20  and  C19_21 
REMARK    4  A    between atoms: C19_21  and  C20_22 
REMARK    5  A    between atoms: C20_22  and  C21_23 
REMARK    6  A    between atoms: C21_23  and  C22_24 
REMARK    7  A    between atoms: C22_24  and  C23_25 
REMARK    8  A    between atoms: C23_25  and  C24_26 
REMARK    9  A    between atoms: C24_26  and  C25_27 
REMARK   10  A    between atoms: C25_27  and  C26_28 
REMARK   11  A    between atoms: C26_28  and  O3_30 
REMARK   12  A    between atoms: O3_30  and  C27_31 
REMARK   13  A    between atoms: C27_31  and  C28_32 
REMARK   14  A    between atoms: C29_34  and  N1_35 
REMARK   15  A    between atoms: C35_48  and  O5_49 
REMARK   16  A    between atoms: C36_51  and  O6_52 
REMARK   17  A    between atoms: C37_54  and  O7_55 
ROOT
HETATM    1  C23 UNL     1      16.087   2.952  -8.012  1.00  0.00     0.000 C 
ENDROOT
BRANCH   1   2
HETATM    2  C22 UNL     1      16.269   2.812  -9.458  1.00  0.00     0.000 C 
BRANCH   2   3
HETATM    3  C21 UNL     1      15.460   1.889 -10.276  1.00  0.00     0.000 C 
BRANCH   3   4
HETATM    4  C20 UNL     1      14.085   1.554  -9.867  1.00  0.00     0.000 C 
BRANCH   4   5
HETATM    5  C19 UNL     1      13.050   2.596 -10.323  1.00  0.00     0.000 C 
BRANCH   5   6
HETATM    6  C18 UNL     1      12.609   3.460  -9.220  1.00  0.00     0.007 C 
BRANCH   6   7
HETATM    7  C17 UNL     1      12.418   4.895  -9.522  1.00  0.00     0.015 C 
HETATM    8  C16 UNL     1      11.696   5.169 -10.850  1.00  0.00     0.013 C 
HETATM    9  C15 UNL     1      11.615   6.646 -10.674  1.00  0.00     0.001 C 
HETATM   10  C2  UNL     1      10.926   6.732  -9.305  1.00  0.00    -0.014 C 
HETATM   11  C14 UNL     1      10.874   7.471 -11.608  1.00  0.00    -0.001 C 
HETATM   12  C1  UNL     1       9.516   6.261  -9.326  1.00  0.00     0.018 C 
HETATM   13  C3  UNL     1      11.015   8.150  -8.875  1.00  0.00     0.013 C 
HETATM   14  C37 UNL     1      11.766   5.755  -8.517  1.00  0.00     0.130 C 
HETATM   15  C4  UNL     1      11.688   9.065  -9.853  1.00  0.00     0.010 C 
HETATM   16  C5  UNL     1      11.318   8.918 -11.256  1.00  0.00     0.023 C 
HETATM   17  C6  UNL     1      10.346   9.792 -11.865  1.00  0.00    -0.047 A 
HETATM   18  C7  UNL     1       9.934  10.950 -11.273  1.00  0.00     0.011 A 
HETATM   19  C11 UNL     1       9.821   9.444 -13.091  1.00  0.00    -0.049 A 
HETATM   20  C8  UNL     1       8.989  11.784 -11.891  1.00  0.00     0.037 A 
HETATM   21  C9  UNL     1       8.476  11.430 -13.104  1.00  0.00     0.066 A 
HETATM   22  C10 UNL     1       8.894  10.274 -13.683  1.00  0.00     0.044 A 
HETATM   23  C12 UNL     1      10.191   8.218 -13.827  1.00  0.00     0.039 C 
HETATM   24  C13 UNL     1      11.107   7.307 -13.064  1.00  0.00     0.010 C 
BRANCH  21  25
HETATM   25  O1  UNL     1       7.529  12.290 -13.695  1.00  0.00    -0.361 OA
ATOM     26  H1  UNL     1       7.805  12.803 -14.446  1.00  0.00     0.217 HD
ENDBRANCH  21  25
BRANCH  14  27
HETATM   27  O7  UNL     1      10.963   5.130  -7.605  1.00  0.00    -0.394 OA
ATOM     28  H7  UNL     1      11.430   4.379  -7.257  1.00  0.00     0.210 HD
ENDBRANCH  14  27
ENDBRANCH   6   7
ENDBRANCH   5   6
ENDBRANCH   4   5
ENDBRANCH   3   4
ENDBRANCH   2   3
ENDBRANCH   1   2
BRANCH   1  29
HETATM   29  C24 UNL     1      15.613   4.208  -7.407  1.00  0.00     0.010 C 
BRANCH  29  30
HETATM   30  C25 UNL     1      15.264   3.916  -5.924  1.00  0.00     0.111 C 
BRANCH  30  31
HETATM   31  C26 UNL     1      13.795   3.883  -5.780  1.00  0.00     0.258 C 
HETATM   32  O2  UNL     1      13.129   4.934  -5.554  1.00  0.00    -0.265 OA
BRANCH  31  33
HETATM   33  O3  UNL     1      13.115   2.706  -5.888  1.00  0.00    -0.319 OA
BRANCH  33  34
HETATM   34  C27 UNL     1      13.639   1.447  -6.169  1.00  0.00     0.213 C 
BRANCH  34  35
HETATM   35  C28 UNL     1      13.449   0.401  -5.129  1.00  0.00     0.180 C 
HETATM   36  O4  UNL     1      14.486  -0.477  -4.990  1.00  0.00    -0.353 OA
HETATM   37  C29 UNL     1      14.286  -1.095  -3.749  1.00  0.00     0.262 C 
HETATM   38  C35 UNL     1      13.987   0.087  -2.850  1.00  0.00     0.198 C 
HETATM   39  C36 UNL     1      13.221   1.026  -3.764  1.00  0.00     0.182 C 
BRANCH  37  40
HETATM   40  N1  UNL     1      15.458  -1.811  -3.352  1.00  0.00    -0.297 N 
HETATM   41  C30 UNL     1      16.350  -1.549  -2.387  1.00  0.00     0.188 A 
HETATM   42  N2  UNL     1      17.308  -2.496  -2.358  1.00  0.00    -0.346 N 
HETATM   43  C31 UNL     1      17.027  -3.387  -3.324  1.00  0.00     0.119 A 
ATOM     44  H2  UNL     1      18.102  -2.529  -1.719  1.00  0.00     0.167 HD
HETATM   45  C32 UNL     1      17.650  -4.532  -3.739  1.00  0.00     0.148 A 
HETATM   46  C34 UNL     1      15.881  -2.961  -3.940  1.00  0.00     0.142 A 
HETATM   47  N3  UNL     1      18.841  -5.004  -3.124  1.00  0.00    -0.080 NA
HETATM   48  N4  UNL     1      17.127  -5.233  -4.757  1.00  0.00    -0.339 N 
HETATM   49  C33 UNL     1      16.007  -4.814  -5.354  1.00  0.00     0.183 A 
ATOM     50  H4  UNL     1      17.584  -6.087  -5.075  1.00  0.00     0.167 HD
HETATM   51  N5  UNL     1      15.394  -3.693  -4.950  1.00  0.00    -0.336 N 
ATOM     52  H5  UNL     1      14.541  -3.392  -5.422  1.00  0.00     0.168 HD
ENDBRANCH  37  40
BRANCH  38  53
HETATM   53  O5  UNL     1      13.185  -0.272  -1.768  1.00  0.00    -0.388 OA
ATOM     54  H5  UNL     1      13.685  -0.691  -1.078  1.00  0.00     0.210 HD
ENDBRANCH  38  53
BRANCH  39  55
HETATM   55  O6  UNL     1      11.869   1.002  -3.412  1.00  0.00    -0.390 OA
ATOM     56  H6  UNL     1      11.466   1.854  -3.528  1.00  0.00     0.210 HD
ENDBRANCH  39  55
ENDBRANCH  34  35
ENDBRANCH  33  34
ENDBRANCH  31  33
ENDBRANCH  30  31
ENDBRANCH  29  30
ENDBRANCH   1  29
TORSDOF 17
ENDMDL
