MODEL 4
REMARK VINA RESULT: -12.509978644      1.915      3.238
REMARK  17 active torsions:
REMARK  status: ('A' for Active; 'I' for Inactive)
REMARK    1  A    between atoms: C9_9  and  O1_10 
REMARK    2  A    between atoms: C17_19  and  C18_20 
REMARK    3  A    between atoms: C18_20  and  C19_21 
REMARK    4  A    between atoms: C19_21  and  C20_22 
REMARK    5  A    between atoms: C20_22  and  C21_23 
REMARK    6  A    between atoms: C21_23  and  C22_24 
REMARK    7  A    between atoms: C22_24  and  C23_25 
REMARK    8  A    between atoms: C23_25  and  C24_26 
REMARK    9  A    between atoms: C24_26  and  C25_27 
REMARK   10  A    between atoms: C25_27  and  C26_28 
REMARK   11  A    between atoms: C26_28  and  O3_30 
REMARK   12  A    between atoms: O3_30  and  C27_31 
REMARK   13  A    between atoms: C27_31  and  C28_32 
REMARK   14  A    between atoms: C29_34  and  N1_35 
REMARK   15  A    between atoms: C35_48  and  O5_49 
REMARK   16  A    between atoms: C36_51  and  O6_52 
REMARK   17  A    between atoms: C37_54  and  O7_55 
ROOT
HETATM    1  C23 UNL     1      15.621   1.751  -4.543  1.00  0.00     0.000 C 
ENDROOT
BRANCH   1   2
HETATM    2  C22 UNL     1      14.342   2.180  -5.110  1.00  0.00     0.000 C 
BRANCH   2   3
HETATM    3  C21 UNL     1      14.016   2.031  -6.541  1.00  0.00     0.000 C 
BRANCH   3   4
HETATM    4  C20 UNL     1      15.000   2.423  -7.565  1.00  0.00     0.000 C 
BRANCH   4   5
HETATM    5  C19 UNL     1      14.763   3.839  -8.117  1.00  0.00     0.000 C 
BRANCH   5   6
HETATM    6  C18 UNL     1      13.375   4.041  -8.554  1.00  0.00     0.007 C 
BRANCH   6   7
HETATM    7  C17 UNL     1      12.977   5.415  -8.925  1.00  0.00     0.015 C 
HETATM    8  C16 UNL     1      12.384   5.540 -10.337  1.00  0.00     0.013 C 
HETATM    9  C15 UNL     1      12.029   6.982 -10.222  1.00  0.00     0.001 C 
HETATM   10  C2  UNL     1      11.176   6.964  -8.947  1.00  0.00    -0.014 C 
HETATM   11  C14 UNL     1      11.275   7.651 -11.264  1.00  0.00    -0.001 C 
HETATM   12  C1  UNL     1       9.880   6.252  -9.116  1.00  0.00     0.018 C 
HETATM   13  C3  UNL     1      10.966   8.381  -8.558  1.00  0.00     0.013 C 
HETATM   14  C37 UNL     1      12.070   6.161  -8.033  1.00  0.00     0.130 C 
HETATM   15  C4  UNL     1      11.583   9.387  -9.483  1.00  0.00     0.010 C 
HETATM   16  C5  UNL     1      11.416   9.158 -10.913  1.00  0.00     0.023 C 
HETATM   17  C6  UNL     1      10.388   9.839 -11.661  1.00  0.00    -0.047 A 
HETATM   18  C7  UNL     1       9.713  10.915 -11.161  1.00  0.00     0.011 A 
HETATM   19  C11 UNL     1      10.082   9.388 -12.927  1.00  0.00    -0.049 A 
HETATM   20  C8  UNL     1       8.720  11.562 -11.913  1.00  0.00     0.037 A 
HETATM   21  C9  UNL     1       8.426  11.106 -13.165  1.00  0.00     0.066 A 
HETATM   22  C10 UNL     1       9.104  10.034 -13.651  1.00  0.00     0.044 A 
HETATM   23  C12 UNL     1      10.745   8.236 -13.572  1.00  0.00     0.039 C 
HETATM   24  C13 UNL     1      11.706   7.511 -12.677  1.00  0.00     0.010 C 
BRANCH  21  25
HETATM   25  O1  UNL     1       7.423  11.778 -13.891  1.00  0.00    -0.361 OA
ATOM     26  H1  UNL     1       6.596  11.331 -14.023  1.00  0.00     0.217 HD
ENDBRANCH  21  25
BRANCH  14  27
HETATM   27  O7  UNL     1      11.284   5.417  -7.200  1.00  0.00    -0.394 OA
ATOM     28  H7  UNL     1      11.399   5.735  -6.312  1.00  0.00     0.210 HD
ENDBRANCH  14  27
ENDBRANCH   6   7
ENDBRANCH   5   6
ENDBRANCH   4   5
ENDBRANCH   3   4
ENDBRANCH   2   3
ENDBRANCH   1   2
BRANCH   1  29
HETATM   29  C24 UNL     1      15.692   0.796  -3.424  1.00  0.00     0.010 C 
BRANCH  29  30
HETATM   30  C25 UNL     1      14.406  -0.072  -3.460  1.00  0.00     0.111 C 
BRANCH  30  31
HETATM   31  C26 UNL     1      14.770  -1.443  -3.870  1.00  0.00     0.258 C 
HETATM   32  O2  UNL     1      14.570  -1.855  -5.049  1.00  0.00    -0.265 OA
BRANCH  31  33
HETATM   33  O3  UNL     1      15.337  -2.305  -2.978  1.00  0.00    -0.319 OA
BRANCH  33  34
HETATM   34  C27 UNL     1      16.653  -2.760  -2.958  1.00  0.00     0.213 C 
BRANCH  34  35
HETATM   35  C28 UNL     1      16.883  -4.103  -2.361  1.00  0.00     0.180 C 
HETATM   36  O4  UNL     1      15.753  -4.812  -2.073  1.00  0.00    -0.353 OA
HETATM   37  C29 UNL     1      16.178  -6.136  -1.906  1.00  0.00     0.262 C 
HETATM   38  C35 UNL     1      17.078  -6.335  -3.108  1.00  0.00     0.198 C 
HETATM   39  C36 UNL     1      17.721  -4.971  -3.282  1.00  0.00     0.182 C 
BRANCH  37  40
HETATM   40  N1  UNL     1      15.058  -7.025  -1.899  1.00  0.00    -0.297 N 
HETATM   41  C30 UNL     1      14.155  -7.291  -2.851  1.00  0.00     0.188 A 
HETATM   42  N2  UNL     1      13.263  -8.201  -2.418  1.00  0.00    -0.346 N 
HETATM   43  C31 UNL     1      13.599  -8.531  -1.159  1.00  0.00     0.119 A 
ATOM     44  H2  UNL     1      12.475  -8.573  -2.948  1.00  0.00     0.167 HD
HETATM   45  C32 UNL     1      13.052  -9.393  -0.248  1.00  0.00     0.148 A 
HETATM   46  C34 UNL     1      14.711  -7.800  -0.838  1.00  0.00     0.142 A 
HETATM   47  N3  UNL     1      11.898 -10.167  -0.547  1.00  0.00    -0.080 NA
HETATM   48  N4  UNL     1      13.616  -9.515   0.963  1.00  0.00    -0.339 N 
HETATM   49  C33 UNL     1      14.704  -8.801   1.271  1.00  0.00     0.183 A 
ATOM     50  H4  UNL     1      13.216 -10.155   1.649  1.00  0.00     0.167 HD
HETATM   51  N5  UNL     1      15.242  -7.955   0.382  1.00  0.00    -0.336 N 
ATOM     52  H5  UNL     1      16.071  -7.420   0.640  1.00  0.00     0.168 HD
ENDBRANCH  37  40
BRANCH  38  53
HETATM   53  O5  UNL     1      18.064  -7.290  -2.868  1.00  0.00    -0.388 OA
ATOM     54  H5  UNL     1      18.716  -7.308  -3.558  1.00  0.00     0.210 HD
ENDBRANCH  38  53
BRANCH  39  55
HETATM   55  O6  UNL     1      19.049  -5.035  -2.853  1.00  0.00    -0.390 OA
ATOM     56  H6  UNL     1      19.343  -5.935  -2.771  1.00  0.00     0.210 HD
ENDBRANCH  39  55
ENDBRANCH  34  35
ENDBRANCH  33  34
ENDBRANCH  31  33
ENDBRANCH  30  31
ENDBRANCH  29  30
ENDBRANCH   1  29
TORSDOF 17
ENDMDL
