MODEL 5
REMARK VINA RESULT: -12.498026647      2.619      3.940
REMARK  17 active torsions:
REMARK  status: ('A' for Active; 'I' for Inactive)
REMARK    1  A    between atoms: C9_9  and  O1_10 
REMARK    2  A    between atoms: C17_19  and  C18_20 
REMARK    3  A    between atoms: C18_20  and  C19_21 
REMARK    4  A    between atoms: C19_21  and  C20_22 
REMARK    5  A    between atoms: C20_22  and  C21_23 
REMARK    6  A    between atoms: C21_23  and  C22_24 
REMARK    7  A    between atoms: C22_24  and  C23_25 
REMARK    8  A    between atoms: C23_25  and  C24_26 
REMARK    9  A    between atoms: C24_26  and  C25_27 
REMARK   10  A    between atoms: C25_27  and  C26_28 
REMARK   11  A    between atoms: C26_28  and  O3_30 
REMARK   12  A    between atoms: O3_30  and  C27_31 
REMARK   13  A    between atoms: C27_31  and  C28_32 
REMARK   14  A    between atoms: C29_34  and  N1_35 
REMARK   15  A    between atoms: C35_48  and  O5_49 
REMARK   16  A    between atoms: C36_51  and  O6_52 
REMARK   17  A    between atoms: C37_54  and  O7_55 
ROOT
HETATM    1  C23 UNL     1      15.177   1.867 -10.839  1.00  0.00     0.000 C 
ENDROOT
BRANCH   1   2
HETATM    2  C22 UNL     1      14.338   0.738 -10.433  1.00  0.00     0.000 C 
BRANCH   2   3
HETATM    3  C21 UNL     1      12.869   0.750 -10.565  1.00  0.00     0.000 C 
BRANCH   3   4
HETATM    4  C20 UNL     1      12.030   1.146  -9.421  1.00  0.00     0.000 C 
BRANCH   4   5
HETATM    5  C19 UNL     1      11.530   2.598  -9.515  1.00  0.00     0.000 C 
BRANCH   5   6
HETATM    6  C18 UNL     1      12.483   3.553  -8.933  1.00  0.00     0.007 C 
BRANCH   6   7
HETATM    7  C17 UNL     1      12.314   4.978  -9.290  1.00  0.00     0.015 C 
HETATM    8  C16 UNL     1      11.629   5.210 -10.645  1.00  0.00     0.013 C 
HETATM    9  C15 UNL     1      11.558   6.693 -10.523  1.00  0.00     0.001 C 
HETATM   10  C2  UNL     1      10.835   6.834  -9.177  1.00  0.00    -0.014 C 
HETATM   11  C14 UNL     1      10.850   7.491 -11.505  1.00  0.00    -0.001 C 
HETATM   12  C1  UNL     1       9.420   6.374  -9.219  1.00  0.00     0.018 C 
HETATM   13  C3  UNL     1      10.926   8.265  -8.795  1.00  0.00     0.013 C 
HETATM   14  C37 UNL     1      11.644   5.878  -8.333  1.00  0.00     0.130 C 
HETATM   15  C4  UNL     1      11.633   9.139  -9.787  1.00  0.00     0.010 C 
HETATM   16  C5  UNL     1      11.298   8.945 -11.193  1.00  0.00     0.023 C 
HETATM   17  C6  UNL     1      10.351   9.806 -11.858  1.00  0.00    -0.047 A 
HETATM   18  C7  UNL     1       9.934  10.988 -11.318  1.00  0.00     0.011 A 
HETATM   19  C11 UNL     1       9.855   9.420 -13.084  1.00  0.00    -0.049 A 
HETATM   20  C8  UNL     1       9.014  11.808 -11.989  1.00  0.00     0.037 A 
HETATM   21  C9  UNL     1       8.530  11.415 -13.203  1.00  0.00     0.066 A 
HETATM   22  C10 UNL     1       8.951  10.236 -13.729  1.00  0.00     0.044 A 
HETATM   23  C12 UNL     1      10.233   8.165 -13.767  1.00  0.00     0.039 C 
HETATM   24  C13 UNL     1      11.120   7.274 -12.948  1.00  0.00     0.010 C 
BRANCH  21  25
HETATM   25  O1  UNL     1       7.607  12.262 -13.848  1.00  0.00    -0.361 OA
ATOM     26  H1  UNL     1       7.694  12.378 -14.787  1.00  0.00     0.217 HD
ENDBRANCH  21  25
BRANCH  14  27
HETATM   27  O7  UNL     1      10.812   5.293  -7.422  1.00  0.00    -0.394 OA
ATOM     28  H7  UNL     1      10.490   4.477  -7.788  1.00  0.00     0.210 HD
ENDBRANCH  14  27
ENDBRANCH   6   7
ENDBRANCH   5   6
ENDBRANCH   4   5
ENDBRANCH   3   4
ENDBRANCH   2   3
ENDBRANCH   1   2
BRANCH   1  29
HETATM   29  C24 UNL     1      16.181   2.452  -9.935  1.00  0.00     0.010 C 
BRANCH  29  30
HETATM   30  C25 UNL     1      15.662   2.287  -8.482  1.00  0.00     0.111 C 
BRANCH  30  31
HETATM   31  C26 UNL     1      15.703   3.601  -7.811  1.00  0.00     0.258 C 
HETATM   32  O2  UNL     1      15.734   4.680  -8.471  1.00  0.00    -0.265 OA
BRANCH  31  33
HETATM   33  O3  UNL     1      15.708   3.684  -6.449  1.00  0.00    -0.319 OA
BRANCH  33  34
HETATM   34  C27 UNL     1      14.647   4.039  -5.619  1.00  0.00     0.213 C 
BRANCH  34  35
HETATM   35  C28 UNL     1      13.767   2.932  -5.156  1.00  0.00     0.180 C 
HETATM   36  O4  UNL     1      14.181   1.678  -5.500  1.00  0.00    -0.353 OA
HETATM   37  C29 UNL     1      13.468   0.809  -4.664  1.00  0.00     0.262 C 
HETATM   38  C35 UNL     1      13.631   1.466  -3.309  1.00  0.00     0.198 C 
HETATM   39  C36 UNL     1      13.625   2.947  -3.644  1.00  0.00     0.182 C 
BRANCH  37  40
HETATM   40  N1  UNL     1      14.027  -0.505  -4.713  1.00  0.00    -0.297 N 
HETATM   41  C30 UNL     1      14.582  -1.250  -3.748  1.00  0.00     0.188 A 
HETATM   42  N2  UNL     1      14.981  -2.440  -4.237  1.00  0.00    -0.346 N 
HETATM   43  C31 UNL     1      14.676  -2.463  -5.546  1.00  0.00     0.119 A 
ATOM     44  H2  UNL     1      15.432  -3.187  -3.710  1.00  0.00     0.167 HD
HETATM   45  C32 UNL     1      14.850  -3.406  -6.522  1.00  0.00     0.148 A 
HETATM   46  C34 UNL     1      14.086  -1.263  -5.840  1.00  0.00     0.142 A 
HETATM   47  N3  UNL     1      15.459  -4.661  -6.253  1.00  0.00    -0.080 NA
HETATM   48  N4  UNL     1      14.438  -3.142  -7.772  1.00  0.00    -0.339 N 
HETATM   49  C33 UNL     1      13.861  -1.970  -8.054  1.00  0.00     0.183 A 
ATOM     50  H4  UNL     1      14.565  -3.837  -8.507  1.00  0.00     0.167 HD
HETATM   51  N5  UNL     1      13.689  -1.044  -7.101  1.00  0.00    -0.336 N 
ATOM     52  H5  UNL     1      13.247  -0.156  -7.340  1.00  0.00     0.168 HD
ENDBRANCH  37  40
BRANCH  38  53
HETATM   53  O5  UNL     1      12.568   1.175  -2.457  1.00  0.00    -0.388 OA
ATOM     54  H5  UNL     1      11.735   1.454  -2.819  1.00  0.00     0.210 HD
ENDBRANCH  38  53
BRANCH  39  55
HETATM   55  O6  UNL     1      12.402   3.497  -3.253  1.00  0.00    -0.390 OA
ATOM     56  H6  UNL     1      12.059   3.063  -2.481  1.00  0.00     0.210 HD
ENDBRANCH  39  55
ENDBRANCH  34  35
ENDBRANCH  33  34
ENDBRANCH  31  33
ENDBRANCH  30  31
ENDBRANCH  29  30
ENDBRANCH   1  29
TORSDOF 17
ENDMDL
