MODEL 13
REMARK VINA RESULT: -7.575385236      2.177      6.195
REMARK  5 active torsions:
REMARK  status: ('A' for Active; 'I' for Inactive)
REMARK    1  A    between atoms: O1_2  and  C2_3 
REMARK    2  A    between atoms: C2_3  and  C3_5 
REMARK    3  A    between atoms: C4_6  and  O3_7 
REMARK    4  A    between atoms: O3_7  and  C5_8 
REMARK    5  A    between atoms: C5_8  and  C6_10 
ROOT
HETATM    1  C3  UNL     1      38.217   5.628  48.060  1.00  0.00     0.148 C 
HETATM    2  C4  UNL     1      38.485   7.022  47.552  1.00  0.00     0.150 C 
HETATM    3  C12 UNL     1      37.550   8.069  48.052  1.00  0.00     0.069 C 
HETATM    4  C13 UNL     1      37.414   7.908  49.552  1.00  0.00     0.225 C 
HETATM    5  C14 UNL     1      38.716   7.799  50.270  1.00  0.00     0.038 C 
HETATM    6  C15 UNL     1      39.080   6.335  50.297  1.00  0.00     0.039 C 
HETATM    7  C16 UNL     1      37.924   5.712  49.535  1.00  0.00     0.239 C 
HETATM    8  N1  UNL     1      36.810   6.592  49.743  1.00  0.00     0.094 N 
HETATM    9  C17 UNL     1      36.238   6.468  51.070  1.00  0.00     0.310 C 
ENDROOT
BRANCH   2  10
HETATM   10  O3  UNL     1      38.541   7.098  46.162  1.00  0.00    -0.311 OA
BRANCH  10  11
HETATM   11  C5  UNL     1      39.702   6.750  45.507  1.00  0.00     0.293 C 
HETATM   12  O4  UNL     1      40.664   7.559  45.511  1.00  0.00    -0.259 OA
BRANCH  11  13
HETATM   13  C6  UNL     1      39.834   5.462  44.807  1.00  0.00     0.039 A 
HETATM   14  C7  UNL     1      38.867   4.990  43.949  1.00  0.00     0.017 A 
HETATM   15  C8  UNL     1      39.035   3.767  43.311  1.00  0.00     0.001 A 
HETATM   16  C9  UNL     1      40.163   2.980  43.505  1.00  0.00     0.000 A 
HETATM   17  C10 UNL     1      41.121   3.465  44.366  1.00  0.00     0.001 A 
HETATM   18  C11 UNL     1      40.956   4.678  44.999  1.00  0.00     0.017 A 
ENDBRANCH  11  13
ENDBRANCH  10  11
ENDBRANCH   2  10
BRANCH   1  19
HETATM   19  C2  UNL     1      37.147   4.914  47.369  1.00  0.00     0.267 C 
HETATM   20  O2  UNL     1      35.957   5.284  47.497  1.00  0.00    -0.265 OA
BRANCH  19  21
HETATM   21  O1  UNL     1      37.372   3.812  46.551  1.00  0.00    -0.326 OA
HETATM   22  C1  UNL     1      38.382   2.855  46.904  1.00  0.00     0.213 C 
ENDBRANCH  19  21
ENDBRANCH   1  19
TORSDOF 5
ENDMDL
