MODEL 7
REMARK VINA RESULT: -8.185639826      2.163      5.644
REMARK  5 active torsions:
REMARK  status: ('A' for Active; 'I' for Inactive)
REMARK    1  A    between atoms: O1_2  and  C2_3 
REMARK    2  A    between atoms: C2_3  and  C3_5 
REMARK    3  A    between atoms: C4_6  and  O3_7 
REMARK    4  A    between atoms: O3_7  and  C5_8 
REMARK    5  A    between atoms: C5_8  and  C6_10 
ROOT
HETATM    1  C3  UNL     1      39.477   5.790  48.499  1.00  0.00     0.148 C 
HETATM    2  C4  UNL     1      38.270   5.050  47.981  1.00  0.00     0.150 C 
HETATM    3  C12 UNL     1      37.012   5.278  48.747  1.00  0.00     0.069 C 
HETATM    4  C13 UNL     1      36.852   6.767  48.967  1.00  0.00     0.225 C 
HETATM    5  C14 UNL     1      37.020   7.584  47.731  1.00  0.00     0.038 C 
HETATM    6  C15 UNL     1      38.488   7.911  47.618  1.00  0.00     0.039 C 
HETATM    7  C16 UNL     1      39.060   7.199  48.831  1.00  0.00     0.239 C 
HETATM    8  N1  UNL     1      37.993   7.158  49.790  1.00  0.00     0.094 N 
HETATM    9  C17 UNL     1      37.763   8.441  50.426  1.00  0.00     0.310 C 
ENDROOT
BRANCH   2  10
HETATM   10  O3  UNL     1      38.478   3.678  47.859  1.00  0.00    -0.311 OA
BRANCH  10  11
HETATM   11  C5  UNL     1      38.543   3.108  46.606  1.00  0.00     0.293 C 
HETATM   12  O4  UNL     1      38.012   1.982  46.427  1.00  0.00    -0.259 OA
BRANCH  11  13
HETATM   13  C6  UNL     1      39.215   3.785  45.486  1.00  0.00     0.039 A 
HETATM   14  C7  UNL     1      38.517   4.460  44.510  1.00  0.00     0.017 A 
HETATM   15  C8  UNL     1      39.196   5.085  43.471  1.00  0.00     0.001 A 
HETATM   16  C9  UNL     1      40.581   5.058  43.370  1.00  0.00     0.000 A 
HETATM   17  C10 UNL     1      41.265   4.379  44.352  1.00  0.00     0.001 A 
HETATM   18  C11 UNL     1      40.593   3.759  45.384  1.00  0.00     0.017 A 
ENDBRANCH  11  13
ENDBRANCH  10  11
ENDBRANCH   2  10
BRANCH   1  19
HETATM   19  C2  UNL     1      40.137   5.171  49.645  1.00  0.00     0.267 C 
HETATM   20  O2  UNL     1      41.250   4.615  49.507  1.00  0.00    -0.265 OA
BRANCH  19  21
HETATM   21  O1  UNL     1      39.589   5.158  50.924  1.00  0.00    -0.326 OA
HETATM   22  C1  UNL     1      40.235   5.877  51.984  1.00  0.00     0.213 C 
ENDBRANCH  19  21
ENDBRANCH   1  19
TORSDOF 5
ENDMDL
