MODEL 8
REMARK VINA RESULT: -8.160139932      1.044      1.533
REMARK  5 active torsions:
REMARK  status: ('A' for Active; 'I' for Inactive)
REMARK    1  A    between atoms: O1_2  and  C2_3 
REMARK    2  A    between atoms: C2_3  and  C3_5 
REMARK    3  A    between atoms: C4_6  and  O3_7 
REMARK    4  A    between atoms: O3_7  and  C5_8 
REMARK    5  A    between atoms: C5_8  and  C6_10 
ROOT
HETATM    1  C3  UNL     1      38.953   4.692  47.445  1.00  0.00     0.148 C 
HETATM    2  C4  UNL     1      38.534   6.082  47.033  1.00  0.00     0.150 C 
HETATM    3  C12 UNL     1      39.443   6.755  46.063  1.00  0.00     0.069 C 
HETATM    4  C13 UNL     1      39.751   5.780  44.945  1.00  0.00     0.225 C 
HETATM    5  C14 UNL     1      38.546   5.124  44.363  1.00  0.00     0.038 C 
HETATM    6  C15 UNL     1      38.289   3.879  45.175  1.00  0.00     0.039 C 
HETATM    7  C16 UNL     1      39.397   3.950  46.212  1.00  0.00     0.239 C 
HETATM    8  N1  UNL     1      40.463   4.677  45.585  1.00  0.00     0.094 N 
HETATM    9  C17 UNL     1      41.182   3.883  44.607  1.00  0.00     0.310 C 
ENDROOT
BRANCH   2  10
HETATM   10  O3  UNL     1      38.323   6.934  48.115  1.00  0.00    -0.311 OA
BRANCH  10  11
HETATM   11  C5  UNL     1      37.109   6.919  48.767  1.00  0.00     0.293 C 
HETATM   12  O4  UNL     1      36.136   6.340  48.220  1.00  0.00    -0.259 OA
BRANCH  11  13
HETATM   13  C6  UNL     1      36.932   7.565  50.077  1.00  0.00     0.039 A 
HETATM   14  C7  UNL     1      35.766   7.452  50.800  1.00  0.00     0.017 A 
HETATM   15  C8  UNL     1      35.645   8.080  52.033  1.00  0.00     0.001 A 
HETATM   16  C9  UNL     1      36.672   8.835  52.584  1.00  0.00     0.000 A 
HETATM   17  C10 UNL     1      37.832   8.938  51.850  1.00  0.00     0.001 A 
HETATM   18  C11 UNL     1      37.954   8.316  50.626  1.00  0.00     0.017 A 
ENDBRANCH  11  13
ENDBRANCH  10  11
ENDBRANCH   2  10
BRANCH   1  19
HETATM   19  C2  UNL     1      39.989   4.638  48.472  1.00  0.00     0.267 C 
HETATM   20  O2  UNL     1      41.164   4.973  48.200  1.00  0.00    -0.265 OA
BRANCH  19  21
HETATM   21  O1  UNL     1      39.745   4.224  49.778  1.00  0.00    -0.326 OA
HETATM   22  C1  UNL     1      39.886   5.155  50.860  1.00  0.00     0.213 C 
ENDBRANCH  19  21
ENDBRANCH   1  19
TORSDOF 5
ENDMDL
