MODEL 3
REMARK VINA RESULT: -8.903465401      1.206      1.706
REMARK  5 active torsions:
REMARK  status: ('A' for Active; 'I' for Inactive)
REMARK    1  A    between atoms: O1_2  and  C2_3 
REMARK    2  A    between atoms: C2_3  and  C3_5 
REMARK    3  A    between atoms: C4_6  and  O3_7 
REMARK    4  A    between atoms: O3_7  and  C5_8 
REMARK    5  A    between atoms: C5_8  and  C6_10 
ROOT
HETATM    1  C3  UNL     1      38.900   5.038  46.647  1.00  0.00     0.148 C 
HETATM    2  C4  UNL     1      39.070   6.438  46.111  1.00  0.00     0.150 C 
HETATM    3  C12 UNL     1      40.229   6.626  45.193  1.00  0.00     0.069 C 
HETATM    4  C13 UNL     1      40.214   5.507  44.173  1.00  0.00     0.225 C 
HETATM    5  C14 UNL     1      38.891   5.298  43.520  1.00  0.00     0.038 C 
HETATM    6  C15 UNL     1      38.127   4.323  44.380  1.00  0.00     0.039 C 
HETATM    7  C16 UNL     1      39.107   4.070  45.512  1.00  0.00     0.239 C 
HETATM    8  N1  UNL     1      40.408   4.283  44.946  1.00  0.00     0.094 N 
HETATM    9  C17 UNL     1      40.833   3.189  44.094  1.00  0.00     0.310 C 
ENDROOT
BRANCH   2  10
HETATM   10  O3  UNL     1      39.130   7.405  47.112  1.00  0.00    -0.311 OA
BRANCH  10  11
HETATM   11  C5  UNL     1      37.963   7.944  47.609  1.00  0.00     0.293 C 
HETATM   12  O4  UNL     1      37.287   8.705  46.871  1.00  0.00    -0.259 OA
BRANCH  11  13
HETATM   13  C6  UNL     1      37.499   7.649  48.974  1.00  0.00     0.039 A 
HETATM   14  C7  UNL     1      36.546   6.690  49.235  1.00  0.00     0.017 A 
HETATM   15  C8  UNL     1      36.139   6.447  50.541  1.00  0.00     0.001 A 
HETATM   16  C9  UNL     1      36.663   7.144  51.622  1.00  0.00     0.000 A 
HETATM   17  C10 UNL     1      37.615   8.099  51.346  1.00  0.00     0.001 A 
HETATM   18  C11 UNL     1      38.020   8.341  50.050  1.00  0.00     0.017 A 
ENDBRANCH  11  13
ENDBRANCH  10  11
ENDBRANCH   2  10
BRANCH   1  19
HETATM   19  C2  UNL     1      39.767   4.697  47.771  1.00  0.00     0.267 C 
HETATM   20  O2  UNL     1      41.007   4.846  47.678  1.00  0.00    -0.265 OA
BRANCH  19  21
HETATM   21  O1  UNL     1      39.288   4.200  48.979  1.00  0.00    -0.326 OA
HETATM   22  C1  UNL     1      39.725   4.785  50.214  1.00  0.00     0.213 C 
ENDBRANCH  19  21
ENDBRANCH   1  19
TORSDOF 5
ENDMDL
