MODEL 9
REMARK VINA RESULT: -8.154001281      2.097      5.941
REMARK  5 active torsions:
REMARK  status: ('A' for Active; 'I' for Inactive)
REMARK    1  A    between atoms: O1_2  and  C2_3 
REMARK    2  A    between atoms: C2_3  and  C3_5 
REMARK    3  A    between atoms: C4_6  and  O3_7 
REMARK    4  A    between atoms: O3_7  and  C5_8 
REMARK    5  A    between atoms: C5_8  and  C6_10 
ROOT
HETATM    1  C3  UNL     1      39.435   6.119  49.733  1.00  0.00     0.148 C 
HETATM    2  C4  UNL     1      39.077   5.528  48.393  1.00  0.00     0.150 C 
HETATM    3  C12 UNL     1      37.694   4.984  48.290  1.00  0.00     0.069 C 
HETATM    4  C13 UNL     1      36.736   6.011  48.856  1.00  0.00     0.225 C 
HETATM    5  C14 UNL     1      36.937   7.388  48.320  1.00  0.00     0.038 C 
HETATM    6  C15 UNL     1      37.950   8.061  49.212  1.00  0.00     0.039 C 
HETATM    7  C16 UNL     1      38.276   6.957  50.203  1.00  0.00     0.239 C 
HETATM    8  N1  UNL     1      37.099   6.139  50.264  1.00  0.00     0.094 N 
HETATM    9  C17 UNL     1      36.029   6.754  51.026  1.00  0.00     0.310 C 
ENDROOT
BRANCH   2  10
HETATM   10  O3  UNL     1      39.976   4.552  47.967  1.00  0.00    -0.311 OA
BRANCH  10  11
HETATM   11  C5  UNL     1      40.539   4.645  46.713  1.00  0.00     0.293 C 
HETATM   12  O4  UNL     1      41.770   4.883  46.620  1.00  0.00    -0.259 OA
BRANCH  11  13
HETATM   13  C6  UNL     1      39.734   4.475  45.493  1.00  0.00     0.039 A 
HETATM   14  C7  UNL     1      39.211   3.257  45.122  1.00  0.00     0.017 A 
HETATM   15  C8  UNL     1      38.457   3.144  43.961  1.00  0.00     0.001 A 
HETATM   16  C9  UNL     1      38.201   4.232  43.136  1.00  0.00     0.000 A 
HETATM   17  C10 UNL     1      38.730   5.443  43.519  1.00  0.00     0.001 A 
HETATM   18  C11 UNL     1      39.479   5.556  44.672  1.00  0.00     0.017 A 
ENDBRANCH  11  13
ENDBRANCH  10  11
ENDBRANCH   2  10
BRANCH   1  19
HETATM   19  C2  UNL     1      39.808   5.147  50.758  1.00  0.00     0.267 C 
HETATM   20  O2  UNL     1      40.056   3.961  50.440  1.00  0.00    -0.265 OA
BRANCH  19  21
HETATM   21  O1  UNL     1      39.907   5.464  52.108  1.00  0.00    -0.326 OA
HETATM   22  C1  UNL     1      40.715   6.576  52.522  1.00  0.00     0.213 C 
ENDBRANCH  19  21
ENDBRANCH   1  19
TORSDOF 5
ENDMDL
