MODEL 11
REMARK VINA RESULT: -7.920590418      1.118      1.751
REMARK  5 active torsions:
REMARK  status: ('A' for Active; 'I' for Inactive)
REMARK    1  A    between atoms: O1_2  and  C2_3 
REMARK    2  A    between atoms: C2_3  and  C3_5 
REMARK    3  A    between atoms: C4_6  and  O3_7 
REMARK    4  A    between atoms: O3_7  and  C5_8 
REMARK    5  A    between atoms: C5_8  and  C6_10 
ROOT
HETATM    1  C3  UNL     1      39.492   4.171  46.545  1.00  0.00     0.148 C 
HETATM    2  C4  UNL     1      38.332   5.010  46.071  1.00  0.00     0.150 C 
HETATM    3  C12 UNL     1      38.372   5.385  44.629  1.00  0.00     0.069 C 
HETATM    4  C13 UNL     1      38.685   4.143  43.822  1.00  0.00     0.225 C 
HETATM    5  C14 UNL     1      37.837   2.966  44.167  1.00  0.00     0.038 C 
HETATM    6  C15 UNL     1      38.538   2.234  45.285  1.00  0.00     0.039 C 
HETATM    7  C16 UNL     1      39.759   3.108  45.513  1.00  0.00     0.239 C 
HETATM    8  N1  UNL     1      40.021   3.736  44.249  1.00  0.00     0.094 N 
HETATM    9  C17 UNL     1      40.623   2.831  43.289  1.00  0.00     0.310 C 
ENDROOT
BRANCH   2  10
HETATM   10  O3  UNL     1      38.143   6.162  46.830  1.00  0.00    -0.311 OA
BRANCH  10  11
HETATM   11  C5  UNL     1      37.378   6.106  47.975  1.00  0.00     0.293 C 
HETATM   12  O4  UNL     1      36.238   5.580  47.915  1.00  0.00    -0.259 OA
BRANCH  11  13
HETATM   13  C6  UNL     1      37.867   6.647  49.253  1.00  0.00     0.039 A 
HETATM   14  C7  UNL     1      37.533   7.908  49.692  1.00  0.00     0.017 A 
HETATM   15  C8  UNL     1      38.019   8.377  50.907  1.00  0.00     0.001 A 
HETATM   16  C9  UNL     1      38.847   7.611  51.717  1.00  0.00     0.000 A 
HETATM   17  C10 UNL     1      39.173   6.353  51.265  1.00  0.00     0.001 A 
HETATM   18  C11 UNL     1      38.691   5.887  50.060  1.00  0.00     0.017 A 
ENDBRANCH  11  13
ENDBRANCH  10  11
ENDBRANCH   2  10
BRANCH   1  19
HETATM   19  C2  UNL     1      40.715   4.915  46.836  1.00  0.00     0.267 C 
HETATM   20  O2  UNL     1      41.203   4.898  47.989  1.00  0.00    -0.265 OA
BRANCH  19  21
HETATM   21  O1  UNL     1      41.393   5.667  45.883  1.00  0.00    -0.326 OA
HETATM   22  C1  UNL     1      42.572   5.135  45.262  1.00  0.00     0.213 C 
ENDBRANCH  19  21
ENDBRANCH   1  19
TORSDOF 5
ENDMDL
