MODEL 2
REMARK VINA RESULT: -9.114803810      0.038      1.006
REMARK  5 active torsions:
REMARK  status: ('A' for Active; 'I' for Inactive)
REMARK    1  A    between atoms: O1_2  and  C2_3 
REMARK    2  A    between atoms: C2_3  and  C3_5 
REMARK    3  A    between atoms: C4_6  and  O3_7 
REMARK    4  A    between atoms: O3_7  and  C5_8 
REMARK    5  A    between atoms: C5_8  and  C6_10 
ROOT
HETATM    1  C3  UNL     1      39.256   4.273  46.914  1.00  0.00     0.148 C 
HETATM    2  C4  UNL     1      38.302   5.265  46.297  1.00  0.00     0.150 C 
HETATM    3  C12 UNL     1      38.729   5.820  44.982  1.00  0.00     0.069 C 
HETATM    4  C13 UNL     1      39.173   4.670  44.103  1.00  0.00     0.225 C 
HETATM    5  C14 UNL     1      38.205   3.538  44.050  1.00  0.00     0.038 C 
HETATM    6  C15 UNL     1      38.556   2.608  45.185  1.00  0.00     0.039 C 
HETATM    7  C16 UNL     1      39.722   3.334  45.833  1.00  0.00     0.239 C 
HETATM    8  N1  UNL     1      40.331   4.094  44.780  1.00  0.00     0.094 N 
HETATM    9  C17 UNL     1      41.111   3.273  43.875  1.00  0.00     0.310 C 
ENDROOT
BRANCH   2  10
HETATM   10  O3  UNL     1      37.985   6.322  47.148  1.00  0.00    -0.311 OA
BRANCH  10  11
HETATM   11  C5  UNL     1      36.981   6.170  48.080  1.00  0.00     0.293 C 
HETATM   12  O4  UNL     1      36.030   5.389  47.821  1.00  0.00    -0.259 OA
BRANCH  11  13
HETATM   13  C6  UNL     1      37.001   6.898  49.358  1.00  0.00     0.039 A 
HETATM   14  C7  UNL     1      36.079   6.661  50.353  1.00  0.00     0.017 A 
HETATM   15  C8  UNL     1      36.137   7.374  51.544  1.00  0.00     0.001 A 
HETATM   16  C9  UNL     1      37.107   8.339  51.782  1.00  0.00     0.000 A 
HETATM   17  C10 UNL     1      38.022   8.565  50.779  1.00  0.00     0.001 A 
HETATM   18  C11 UNL     1      37.965   7.858  49.596  1.00  0.00     0.017 A 
ENDBRANCH  11  13
ENDBRANCH  10  11
ENDBRANCH   2  10
BRANCH   1  19
HETATM   19  C2  UNL     1      40.400   4.862  47.604  1.00  0.00     0.267 C 
HETATM   20  O2  UNL     1      41.503   4.966  47.020  1.00  0.00    -0.265 OA
BRANCH  19  21
HETATM   21  O1  UNL     1      40.341   5.332  48.912  1.00  0.00    -0.326 OA
HETATM   22  C1  UNL     1      39.913   4.457  49.965  1.00  0.00     0.213 C 
ENDBRANCH  19  21
ENDBRANCH   1  19
TORSDOF 5
ENDMDL
