MODEL 5
REMARK VINA RESULT: -7.594208179      1.613      2.158
REMARK  5 active torsions:
REMARK  status: ('A' for Active; 'I' for Inactive)
REMARK    1  A    between atoms: N1_1  and  S1_4 
REMARK    2  A    between atoms: S1_4  and  C1_7 
REMARK    3  A    between atoms: C4_10  and  C5_11 
REMARK       I    between atoms: C5_11  and  N2_13 
REMARK    4  A    between atoms: N2_13  and  C6_15 
REMARK    5  A    between atoms: C6_15  and  C7_16 
ROOT
HETATM    1  C5  UNL     1      -5.771   5.982  14.199  1.00  0.00     0.251 C 
HETATM    2  O3  UNL     1      -4.922   6.910  14.232  1.00  0.00    -0.268 OA
HETATM    3  N2  UNL     1      -7.103   6.351  13.784  1.00  0.00    -0.353 N 
ATOM      4  H2  UNL     1      -7.849   5.658  13.731  1.00  0.00     0.163 HD
ENDROOT
BRANCH   1   5
HETATM    5  C4  UNL     1      -5.434   4.611  14.558  1.00  0.00     0.032 A 
HETATM    6  C3  UNL     1      -6.455   3.787  14.976  1.00  0.00     0.018 A 
HETATM    7  C2  UNL     1      -6.258   2.476  15.342  1.00  0.00     0.026 A 
HETATM    8  C1  UNL     1      -4.984   1.954  15.289  1.00  0.00     0.079 A 
HETATM    9  C14 UNL     1      -3.941   2.754  14.874  1.00  0.00     0.026 A 
HETATM   10  C13 UNL     1      -4.173   4.072  14.513  1.00  0.00     0.018 A 
BRANCH   8  11
HETATM   11  S1  UNL     1      -4.687   0.299  15.741  1.00  0.00     0.256 S 
HETATM   12  O1  UNL     1      -3.568   0.157  16.717  1.00  0.00    -0.201 OA
HETATM   13  O2  UNL     1      -5.934  -0.286  16.361  1.00  0.00    -0.201 OA
BRANCH  11  14
HETATM   14  N1  UNL     1      -4.362  -0.660  14.324  1.00  0.00    -0.324 N 
ATOM     15  H12 UNL     1      -3.505  -1.193  14.176  1.00  0.00     0.169 HD
ATOM     16  H11 UNL     1      -5.151  -0.604  13.680  1.00  0.00     0.169 HD
ENDBRANCH  11  14
ENDBRANCH   8  11
ENDBRANCH   1   5
BRANCH   3  17
HETATM   17  C6  UNL     1      -7.344   7.734  13.448  1.00  0.00     0.164 C 
BRANCH  17  18
HETATM   18  C7  UNL     1      -7.227   8.067  12.036  1.00  0.00     0.001 A 
HETATM   19  C8  UNL     1      -7.768   7.389  10.993  1.00  0.00     0.054 A 
HETATM   20  C9  UNL     1      -7.598   7.790   9.665  1.00  0.00     0.117 A 
HETATM   21  F1  UNL     1      -8.142   7.105   8.643  1.00  0.00    -0.206 F 
HETATM   22  C10 UNL     1      -6.857   8.916   9.387  1.00  0.00     0.045 A 
HETATM   23  C11 UNL     1      -6.296   9.624  10.419  1.00  0.00     0.046 A 
HETATM   24  C12 UNL     1      -6.480   9.207  11.700  1.00  0.00     0.124 A 
HETATM   25  F2  UNL     1      -5.909   9.934  12.691  1.00  0.00    -0.205 F 
ENDBRANCH  17  18
ENDBRANCH   3  17
TORSDOF 5
ENDMDL
