MODEL 3
REMARK VINA RESULT: -7.672868261      1.255      1.736
REMARK  5 active torsions:
REMARK  status: ('A' for Active; 'I' for Inactive)
REMARK    1  A    between atoms: N1_1  and  S1_4 
REMARK    2  A    between atoms: S1_4  and  C1_7 
REMARK    3  A    between atoms: C4_10  and  C5_11 
REMARK       I    between atoms: C5_11  and  N2_13 
REMARK    4  A    between atoms: N2_13  and  C6_15 
REMARK    5  A    between atoms: C6_15  and  C7_16 
ROOT
HETATM    1  C5  UNL     1      -5.752   5.854  14.173  1.00  0.00     0.251 C 
HETATM    2  O3  UNL     1      -4.869   6.750  14.135  1.00  0.00    -0.268 OA
HETATM    3  N2  UNL     1      -7.078   6.248  13.763  1.00  0.00    -0.353 N 
ATOM      4  H2  UNL     1      -7.849   5.581  13.765  1.00  0.00     0.163 HD
ENDROOT
BRANCH   1   5
HETATM    5  C4  UNL     1      -5.457   4.495  14.607  1.00  0.00     0.032 A 
HETATM    6  C3  UNL     1      -6.486   3.756  15.148  1.00  0.00     0.018 A 
HETATM    7  C2  UNL     1      -6.328   2.465  15.592  1.00  0.00     0.026 A 
HETATM    8  C1  UNL     1      -5.086   1.874  15.494  1.00  0.00     0.079 A 
HETATM    9  C14 UNL     1      -4.037   2.588  14.957  1.00  0.00     0.026 A 
HETATM   10  C13 UNL     1      -4.229   3.889  14.519  1.00  0.00     0.018 A 
BRANCH   8  11
HETATM   11  S1  UNL     1      -4.839   0.240  16.043  1.00  0.00     0.256 S 
HETATM   12  O1  UNL     1      -4.954  -0.764  14.946  1.00  0.00    -0.201 OA
HETATM   13  O2  UNL     1      -3.463   0.116  16.656  1.00  0.00    -0.201 OA
BRANCH  11  14
HETATM   14  N1  UNL     1      -5.966  -0.141  17.315  1.00  0.00    -0.324 N 
ATOM     15  H12 UNL     1      -6.222  -1.090  17.590  1.00  0.00     0.169 HD
ATOM     16  H11 UNL     1      -6.321   0.719  17.733  1.00  0.00     0.169 HD
ENDBRANCH  11  14
ENDBRANCH   8  11
ENDBRANCH   1   5
BRANCH   3  17
HETATM   17  C6  UNL     1      -7.275   7.616  13.349  1.00  0.00     0.164 C 
BRANCH  17  18
HETATM   18  C7  UNL     1      -7.193   7.859  11.918  1.00  0.00     0.001 A 
HETATM   19  C8  UNL     1      -7.623   7.038  10.927  1.00  0.00     0.054 A 
HETATM   20  C9  UNL     1      -7.498   7.362   9.573  1.00  0.00     0.117 A 
HETATM   21  F1  UNL     1      -7.931   6.534   8.604  1.00  0.00    -0.206 F 
HETATM   22  C10 UNL     1      -6.918   8.556   9.213  1.00  0.00     0.045 A 
HETATM   23  C11 UNL     1      -6.473   9.409  10.189  1.00  0.00     0.046 A 
HETATM   24  C12 UNL     1      -6.609   9.065  11.498  1.00  0.00     0.124 A 
HETATM   25  F2  UNL     1      -6.155   9.936  12.433  1.00  0.00    -0.205 F 
ENDBRANCH  17  18
ENDBRANCH   3  17
TORSDOF 5
ENDMDL
