MODEL 1
REMARK VINA RESULT: -7.766711154      0.000      0.000
REMARK  5 active torsions:
REMARK  status: ('A' for Active; 'I' for Inactive)
REMARK    1  A    between atoms: N1_1  and  S1_4 
REMARK    2  A    between atoms: S1_4  and  C1_7 
REMARK    3  A    between atoms: C4_10  and  C5_11 
REMARK       I    between atoms: C5_11  and  N2_13 
REMARK    4  A    between atoms: N2_13  and  C6_15 
REMARK    5  A    between atoms: C6_15  and  C7_16 
ROOT
HETATM    1  C5  UNL     1      -5.780   5.557  13.426  1.00  0.00     0.251 C 
HETATM    2  O3  UNL     1      -6.257   6.571  13.998  1.00  0.00    -0.268 OA
HETATM    3  N2  UNL     1      -5.395   5.726  12.047  1.00  0.00    -0.353 N 
ATOM      4  H2  UNL     1      -5.000   4.953  11.511  1.00  0.00     0.163 HD
ENDROOT
BRANCH   1   5
HETATM    5  C4  UNL     1      -5.625   4.282  14.113  1.00  0.00     0.032 A 
HETATM    6  C3  UNL     1      -4.497   3.539  13.842  1.00  0.00     0.018 A 
HETATM    7  C2  UNL     1      -4.242   2.322  14.429  1.00  0.00     0.026 A 
HETATM    8  C1  UNL     1      -5.151   1.815  15.332  1.00  0.00     0.079 A 
HETATM    9  C14 UNL     1      -6.290   2.534  15.624  1.00  0.00     0.026 A 
HETATM   10  C13 UNL     1      -6.517   3.759  15.015  1.00  0.00     0.018 A 
BRANCH   8  11
HETATM   11  S1  UNL     1      -4.870   0.278  16.100  1.00  0.00     0.256 S 
HETATM   12  O1  UNL     1      -4.969  -0.870  15.153  1.00  0.00    -0.201 OA
HETATM   13  O2  UNL     1      -3.491   0.266  16.717  1.00  0.00    -0.201 OA
BRANCH  11  14
HETATM   14  N1  UNL     1      -5.985   0.055  17.419  1.00  0.00    -0.324 N 
ATOM     15  H12 UNL     1      -6.273  -0.855  17.780  1.00  0.00     0.169 HD
ATOM     16  H11 UNL     1      -6.298   0.962  17.766  1.00  0.00     0.169 HD
ENDBRANCH  11  14
ENDBRANCH   8  11
ENDBRANCH   1   5
BRANCH   3  17
HETATM   17  C6  UNL     1      -5.586   7.026  11.449  1.00  0.00     0.164 C 
BRANCH  17  18
HETATM   18  C7  UNL     1      -6.515   7.073  10.330  1.00  0.00     0.001 A 
HETATM   19  C8  UNL     1      -6.853   6.047   9.509  1.00  0.00     0.054 A 
HETATM   20  C9  UNL     1      -7.760   6.194   8.456  1.00  0.00     0.117 A 
HETATM   21  F1  UNL     1      -8.083   5.164   7.651  1.00  0.00    -0.206 F 
HETATM   22  C10 UNL     1      -8.343   7.419   8.229  1.00  0.00     0.045 A 
HETATM   23  C11 UNL     1      -8.024   8.477   9.041  1.00  0.00     0.046 A 
HETATM   24  C12 UNL     1      -7.137   8.302  10.057  1.00  0.00     0.124 A 
HETATM   25  F2  UNL     1      -6.847   9.373  10.836  1.00  0.00    -0.205 F 
ENDBRANCH  17  18
ENDBRANCH   3  17
TORSDOF 5
ENDMDL
