MODEL 1
REMARK VINA RESULT: -7.228780722      0.000      0.000
REMARK  5 active torsions:
REMARK  status: ('A' for Active; 'I' for Inactive)
REMARK    1  A    between atoms: N1_1  and  S1_4 
REMARK    2  A    between atoms: S1_4  and  C1_7 
REMARK    3  A    between atoms: C4_10  and  C5_11 
REMARK       I    between atoms: C5_11  and  N2_13 
REMARK    4  A    between atoms: N2_13  and  C6_15 
REMARK    5  A    between atoms: C6_15  and  C7_16 
ROOT
HETATM    1  C5  UNL     1      -4.353   2.740  13.156  1.00  0.00     0.251 C 
HETATM    2  O3  UNL     1      -5.123   3.355  12.354  1.00  0.00    -0.268 OA
HETATM    3  N2  UNL     1      -2.934   2.849  13.016  1.00  0.00    -0.352 N 
ATOM      4  H2  UNL     1      -2.324   2.346  13.661  1.00  0.00     0.163 HD
ENDROOT
BRANCH   1   5
HETATM    5  C4  UNL     1      -4.899   1.927  14.215  1.00  0.00     0.032 A 
HETATM    6  C3  UNL     1      -6.137   2.102  14.757  1.00  0.00     0.018 A 
HETATM    7  C2  UNL     1      -6.613   1.282  15.779  1.00  0.00     0.026 A 
HETATM    8  C1  UNL     1      -5.830   0.273  16.262  1.00  0.00     0.079 A 
HETATM    9  C14 UNL     1      -4.592   0.085  15.733  1.00  0.00     0.026 A 
HETATM   10  C13 UNL     1      -4.110   0.888  14.723  1.00  0.00     0.018 A 
BRANCH   8  11
HETATM   11  S1  UNL     1      -6.482  -0.729  17.552  1.00  0.00     0.256 S 
HETATM   12  O1  UNL     1      -7.958  -0.978  17.295  1.00  0.00    -0.201 OA
HETATM   13  O2  UNL     1      -5.719  -1.991  17.726  1.00  0.00    -0.201 OA
BRANCH  11  14
HETATM   14  N1  UNL     1      -6.416   0.194  19.026  1.00  0.00    -0.324 N 
ATOM     15  H12 UNL     1      -6.820  -0.068  19.925  1.00  0.00     0.169 HD
ATOM     16  H11 UNL     1      -5.894   1.040  18.795  1.00  0.00     0.169 HD
ENDBRANCH  11  14
ENDBRANCH   8  11
ENDBRANCH   1   5
BRANCH   3  17
HETATM   17  C6  UNL     1      -2.361   3.647  11.991  1.00  0.00     0.167 C 
BRANCH  17  18
HETATM   18  C7  UNL     1      -1.071   3.212  11.442  1.00  0.00     0.037 A 
HETATM   19  C8  UNL     1      -1.163   2.196  10.472  1.00  0.00     0.130 A 
HETATM   20  F1  UNL     1      -2.377   1.705  10.080  1.00  0.00    -0.205 F 
HETATM   21  C9  UNL     1       0.008   1.720   9.940  1.00  0.00     0.085 A 
HETATM   22  C10 UNL     1       1.253   2.199  10.318  1.00  0.00     0.122 A 
HETATM   23  F2  UNL     1       2.370   1.682   9.748  1.00  0.00    -0.206 F 
HETATM   24  C11 UNL     1       1.283   3.190  11.268  1.00  0.00     0.085 A 
HETATM   25  C12 UNL     1       0.117   3.713  11.846  1.00  0.00     0.130 A 
HETATM   26  F3  UNL     1       0.224   4.662  12.798  1.00  0.00    -0.205 F 
ENDBRANCH  17  18
ENDBRANCH   3  17
TORSDOF 5
ENDMDL
