MODEL 17
REMARK VINA RESULT: -6.844751349      3.358      4.589
REMARK  5 active torsions:
REMARK  status: ('A' for Active; 'I' for Inactive)
REMARK    1  A    between atoms: N1_1  and  S1_4 
REMARK    2  A    between atoms: S1_4  and  C1_7 
REMARK    3  A    between atoms: C4_10  and  C5_11 
REMARK       I    between atoms: C5_11  and  N2_13 
REMARK    4  A    between atoms: N2_13  and  C6_15 
REMARK    5  A    between atoms: C6_15  and  C7_16 
ROOT
HETATM    1  C5  UNL     1      -4.169   3.589  13.769  1.00  0.00     0.251 C 
HETATM    2  O3  UNL     1      -3.540   3.256  12.716  1.00  0.00    -0.268 OA
HETATM    3  N2  UNL     1      -4.305   4.969  14.119  1.00  0.00    -0.352 N 
ATOM      4  H2  UNL     1      -4.806   5.225  14.970  1.00  0.00     0.163 HD
ENDROOT
BRANCH   1   5
HETATM    5  C4  UNL     1      -4.752   2.581  14.621  1.00  0.00     0.032 A 
HETATM    6  C3  UNL     1      -6.047   2.588  15.042  1.00  0.00     0.018 A 
HETATM    7  C2  UNL     1      -6.557   1.584  15.865  1.00  0.00     0.026 A 
HETATM    8  C1  UNL     1      -5.749   0.560  16.268  1.00  0.00     0.079 A 
HETATM    9  C14 UNL     1      -4.454   0.539  15.857  1.00  0.00     0.026 A 
HETATM   10  C13 UNL     1      -3.938   1.524  15.045  1.00  0.00     0.018 A 
BRANCH   8  11
HETATM   11  S1  UNL     1      -6.445  -0.677  17.306  1.00  0.00     0.256 S 
HETATM   12  O1  UNL     1      -7.918  -0.842  16.969  1.00  0.00    -0.201 OA
HETATM   13  O2  UNL     1      -5.703  -1.961  17.230  1.00  0.00    -0.201 OA
BRANCH  11  14
HETATM   14  N1  UNL     1      -6.406  -0.083  18.942  1.00  0.00    -0.324 N 
ATOM     15  H12 UNL     1      -7.160  -0.139  19.626  1.00  0.00     0.169 HD
ATOM     16  H11 UNL     1      -5.480   0.327  19.061  1.00  0.00     0.169 HD
ENDBRANCH  11  14
ENDBRANCH   8  11
ENDBRANCH   1   5
BRANCH   3  17
HETATM   17  C6  UNL     1      -3.752   5.987  13.299  1.00  0.00     0.167 C 
BRANCH  17  18
HETATM   18  C7  UNL     1      -2.892   6.983  13.951  1.00  0.00     0.037 A 
HETATM   19  C8  UNL     1      -1.626   6.500  14.332  1.00  0.00     0.130 A 
HETATM   20  F1  UNL     1      -1.255   5.210  14.068  1.00  0.00    -0.205 F 
HETATM   21  C9  UNL     1      -0.783   7.369  14.975  1.00  0.00     0.085 A 
HETATM   22  C10 UNL     1      -1.130   8.681  15.257  1.00  0.00     0.122 A 
HETATM   23  F2  UNL     1      -0.246   9.486  15.896  1.00  0.00    -0.206 F 
HETATM   24  C11 UNL     1      -2.379   9.099  14.863  1.00  0.00     0.085 A 
HETATM   25  C12 UNL     1      -3.281   8.252  14.203  1.00  0.00     0.130 A 
HETATM   26  F3  UNL     1      -4.502   8.721  13.876  1.00  0.00    -0.205 F 
ENDBRANCH  17  18
ENDBRANCH   3  17
TORSDOF 5
ENDMDL
