MODEL 3
REMARK VINA RESULT: -7.199208046      0.119      1.730
REMARK  5 active torsions:
REMARK  status: ('A' for Active; 'I' for Inactive)
REMARK    1  A    between atoms: N1_1  and  S1_4 
REMARK    2  A    between atoms: S1_4  and  C1_7 
REMARK    3  A    between atoms: C4_10  and  C5_11 
REMARK       I    between atoms: C5_11  and  N2_13 
REMARK    4  A    between atoms: N2_13  and  C6_15 
REMARK    5  A    between atoms: C6_15  and  C7_16 
ROOT
HETATM    1  C5  UNL     1      -4.258   2.623  13.149  1.00  0.00     0.251 C 
HETATM    2  O3  UNL     1      -4.994   3.101  12.230  1.00  0.00    -0.268 OA
HETATM    3  N2  UNL     1      -2.847   2.860  13.136  1.00  0.00    -0.352 N 
ATOM      4  H2  UNL     1      -2.264   2.467  13.876  1.00  0.00     0.163 HD
ENDROOT
BRANCH   1   5
HETATM    5  C4  UNL     1      -4.834   1.840  14.215  1.00  0.00     0.032 A 
HETATM    6  C3  UNL     1      -6.061   2.071  14.760  1.00  0.00     0.018 A 
HETATM    7  C2  UNL     1      -6.567   1.277  15.789  1.00  0.00     0.026 A 
HETATM    8  C1  UNL     1      -5.828   0.237  16.273  1.00  0.00     0.079 A 
HETATM    9  C14 UNL     1      -4.601  -0.006  15.740  1.00  0.00     0.026 A 
HETATM   10  C13 UNL     1      -4.089   0.770  14.724  1.00  0.00     0.018 A 
BRANCH   8  11
HETATM   11  S1  UNL     1      -6.516  -0.729  17.571  1.00  0.00     0.256 S 
HETATM   12  O1  UNL     1      -7.987  -0.976  17.283  1.00  0.00    -0.201 OA
HETATM   13  O2  UNL     1      -5.766  -1.991  17.795  1.00  0.00    -0.201 OA
BRANCH  11  14
HETATM   14  N1  UNL     1      -6.482   0.230  19.023  1.00  0.00    -0.324 N 
ATOM     15  H12 UNL     1      -7.061   1.044  19.227  1.00  0.00     0.169 HD
ATOM     16  H11 UNL     1      -5.767  -0.195  19.614  1.00  0.00     0.169 HD
ENDBRANCH  11  14
ENDBRANCH   8  11
ENDBRANCH   1   5
BRANCH   3  17
HETATM   17  C6  UNL     1      -2.247   3.634  12.108  1.00  0.00     0.167 C 
BRANCH  17  18
HETATM   18  C7  UNL     1      -1.073   3.063  11.437  1.00  0.00     0.037 A 
HETATM   19  C8  UNL     1       0.155   3.628  11.829  1.00  0.00     0.130 A 
HETATM   20  F1  UNL     1       0.208   4.606  12.784  1.00  0.00    -0.205 F 
HETATM   21  C9  UNL     1       1.291   3.164  11.218  1.00  0.00     0.085 A 
HETATM   22  C10 UNL     1       1.270   2.174  10.246  1.00  0.00     0.122 A 
HETATM   23  F2  UNL     1       2.433   1.761   9.685  1.00  0.00    -0.206 F 
HETATM   24  C11 UNL     1       0.043   1.659   9.902  1.00  0.00     0.085 A 
HETATM   25  C12 UNL     1      -1.149   2.098  10.494  1.00  0.00     0.130 A 
HETATM   26  F3  UNL     1      -2.320   1.570  10.083  1.00  0.00    -0.205 F 
ENDBRANCH  17  18
ENDBRANCH   3  17
TORSDOF 5
ENDMDL
