MODEL 2
REMARK VINA RESULT: -7.213048997      4.808      8.457
REMARK  5 active torsions:
REMARK  status: ('A' for Active; 'I' for Inactive)
REMARK    1  A    between atoms: N1_1  and  S1_4 
REMARK    2  A    between atoms: S1_4  and  C1_7 
REMARK    3  A    between atoms: C4_10  and  C5_11 
REMARK       I    between atoms: C5_11  and  N2_13 
REMARK    4  A    between atoms: N2_13  and  C6_15 
REMARK    5  A    between atoms: C6_15  and  C7_16 
ROOT
HETATM    1  C5  UNL     1      -3.326   0.675  12.181  1.00  0.00     0.251 C 
HETATM    2  O3  UNL     1      -4.072   0.265  11.237  1.00  0.00    -0.268 OA
HETATM    3  N2  UNL     1      -3.751   0.546  13.541  1.00  0.00    -0.352 N 
ATOM      4  H2  UNL     1      -3.147   0.884  14.291  1.00  0.00     0.163 HD
ENDROOT
BRANCH   1   5
HETATM    5  C4  UNL     1      -2.044   1.271  11.893  1.00  0.00     0.032 A 
HETATM    6  C3  UNL     1      -1.547   2.367  12.531  1.00  0.00     0.018 A 
HETATM    7  C2  UNL     1      -0.298   2.898  12.212  1.00  0.00     0.026 A 
HETATM    8  C1  UNL     1       0.459   2.317  11.236  1.00  0.00     0.079 A 
HETATM    9  C14 UNL     1      -0.023   1.224  10.589  1.00  0.00     0.026 A 
HETATM   10  C13 UNL     1      -1.255   0.689  10.895  1.00  0.00     0.018 A 
BRANCH   8  11
HETATM   11  S1  UNL     1       2.025   3.031  10.874  1.00  0.00     0.256 S 
HETATM   12  O1  UNL     1       2.871   2.023  10.115  1.00  0.00    -0.201 OA
HETATM   13  O2  UNL     1       1.904   4.323  10.152  1.00  0.00    -0.201 OA
BRANCH  11  14
HETATM   14  N1  UNL     1       2.853   3.288  12.384  1.00  0.00    -0.324 N 
ATOM     15  H12 UNL     1       2.895   2.641  13.171  1.00  0.00     0.169 HD
ATOM     16  H11 UNL     1       3.278   4.212  12.308  1.00  0.00     0.169 HD
ENDBRANCH  11  14
ENDBRANCH   8  11
ENDBRANCH   1   5
BRANCH   3  17
HETATM   17  C6  UNL     1      -5.001  -0.045  13.862  1.00  0.00     0.167 C 
BRANCH  17  18
HETATM   18  C7  UNL     1      -5.490   0.121  15.236  1.00  0.00     0.037 A 
HETATM   19  C8  UNL     1      -5.022  -0.849  16.142  1.00  0.00     0.130 A 
HETATM   20  F1  UNL     1      -4.159  -1.830  15.740  1.00  0.00    -0.205 F 
HETATM   21  C9  UNL     1      -5.464  -0.772  17.438  1.00  0.00     0.085 A 
HETATM   22  C10 UNL     1      -6.339   0.211  17.875  1.00  0.00     0.122 A 
HETATM   23  F2  UNL     1      -6.734   0.228  19.172  1.00  0.00    -0.206 F 
HETATM   24  C11 UNL     1      -6.763   1.132  16.947  1.00  0.00     0.085 A 
HETATM   25  C12 UNL     1      -6.344   1.099  15.610  1.00  0.00     0.130 A 
HETATM   26  F3  UNL     1      -6.828   2.016  14.747  1.00  0.00    -0.205 F 
ENDBRANCH  17  18
ENDBRANCH   3  17
TORSDOF 5
ENDMDL
