MODEL 7
REMARK VINA RESULT: -7.084982709      3.359      4.939
REMARK  5 active torsions:
REMARK  status: ('A' for Active; 'I' for Inactive)
REMARK    1  A    between atoms: N1_1  and  S1_4 
REMARK    2  A    between atoms: S1_4  and  C1_7 
REMARK    3  A    between atoms: C4_10  and  C5_11 
REMARK       I    between atoms: C5_11  and  N2_13 
REMARK    4  A    between atoms: N2_13  and  C6_15 
REMARK    5  A    between atoms: C6_15  and  C7_16 
ROOT
HETATM    1  C5  UNL     1      -4.648   3.427  13.573  1.00  0.00     0.251 C 
HETATM    2  O3  UNL     1      -5.218   3.550  12.445  1.00  0.00    -0.268 OA
HETATM    3  N2  UNL     1      -3.550   4.277  13.921  1.00  0.00    -0.352 N 
ATOM      4  H2  UNL     1      -3.096   4.166  14.828  1.00  0.00     0.163 HD
ENDROOT
BRANCH   1   5
HETATM    5  C4  UNL     1      -5.100   2.434  14.517  1.00  0.00     0.032 A 
HETATM    6  C3  UNL     1      -6.344   2.411  15.071  1.00  0.00     0.018 A 
HETATM    7  C2  UNL     1      -6.726   1.422  15.976  1.00  0.00     0.026 A 
HETATM    8  C1  UNL     1      -5.842   0.443  16.328  1.00  0.00     0.079 A 
HETATM    9  C14 UNL     1      -4.596   0.452  15.784  1.00  0.00     0.026 A 
HETATM   10  C13 UNL     1      -4.206   1.423  14.889  1.00  0.00     0.018 A 
BRANCH   8  11
HETATM   11  S1  UNL     1      -6.378  -0.777  17.475  1.00  0.00     0.256 S 
HETATM   12  O1  UNL     1      -7.851  -1.067  17.245  1.00  0.00    -0.201 OA
HETATM   13  O2  UNL     1      -5.546  -2.006  17.421  1.00  0.00    -0.201 OA
BRANCH  11  14
HETATM   14  N1  UNL     1      -6.285  -0.085  19.070  1.00  0.00    -0.324 N 
ATOM     15  H12 UNL     1      -6.925   0.599  19.473  1.00  0.00     0.169 HD
ATOM     16  H11 UNL     1      -5.463  -0.508  19.502  1.00  0.00     0.169 HD
ENDBRANCH  11  14
ENDBRANCH   8  11
ENDBRANCH   1   5
BRANCH   3  17
HETATM   17  C6  UNL     1      -3.085   5.271  13.021  1.00  0.00     0.167 C 
BRANCH  17  18
HETATM   18  C7  UNL     1      -3.316   6.673  13.392  1.00  0.00     0.037 A 
HETATM   19  C8  UNL     1      -2.348   7.214  14.259  1.00  0.00     0.130 A 
HETATM   20  F1  UNL     1      -1.278   6.469  14.673  1.00  0.00    -0.205 F 
HETATM   21  C9  UNL     1      -2.518   8.510  14.671  1.00  0.00     0.085 A 
HETATM   22  C10 UNL     1      -3.592   9.290  14.268  1.00  0.00     0.122 A 
HETATM   23  F2  UNL     1      -3.698  10.566  14.714  1.00  0.00    -0.206 F 
HETATM   24  C11 UNL     1      -4.507   8.711  13.422  1.00  0.00     0.085 A 
HETATM   25  C12 UNL     1      -4.381   7.389  12.971  1.00  0.00     0.130 A 
HETATM   26  F3  UNL     1      -5.336   6.876  12.168  1.00  0.00    -0.205 F 
ENDBRANCH  17  18
ENDBRANCH   3  17
TORSDOF 5
ENDMDL
