MODEL 8
REMARK VINA RESULT: -7.074827153      3.386      4.733
REMARK  5 active torsions:
REMARK  status: ('A' for Active; 'I' for Inactive)
REMARK    1  A    between atoms: N1_1  and  S1_4 
REMARK    2  A    between atoms: S1_4  and  C1_7 
REMARK    3  A    between atoms: C4_10  and  C5_11 
REMARK       I    between atoms: C5_11  and  N2_13 
REMARK    4  A    between atoms: N2_13  and  C6_15 
REMARK    5  A    between atoms: C6_15  and  C7_16 
ROOT
HETATM    1  C5  UNL     1      -4.624   3.537  13.668  1.00  0.00     0.251 C 
HETATM    2  O3  UNL     1      -5.233   3.738  12.571  1.00  0.00    -0.268 OA
HETATM    3  N2  UNL     1      -3.481   4.325  14.011  1.00  0.00    -0.352 N 
ATOM      4  H2  UNL     1      -2.995   4.152  14.892  1.00  0.00     0.163 HD
ENDROOT
BRANCH   1   5
HETATM    5  C4  UNL     1      -5.078   2.515  14.580  1.00  0.00     0.032 A 
HETATM    6  C3  UNL     1      -6.348   2.428  15.065  1.00  0.00     0.018 A 
HETATM    7  C2  UNL     1      -6.730   1.414  15.943  1.00  0.00     0.026 A 
HETATM    8  C1  UNL     1      -5.820   0.476  16.336  1.00  0.00     0.079 A 
HETATM    9  C14 UNL     1      -4.548   0.549  15.862  1.00  0.00     0.026 A 
HETATM   10  C13 UNL     1      -4.158   1.545  14.994  1.00  0.00     0.018 A 
BRANCH   8  11
HETATM   11  S1  UNL     1      -6.358  -0.778  17.445  1.00  0.00     0.256 S 
HETATM   12  O1  UNL     1      -7.828  -1.068  17.197  1.00  0.00    -0.201 OA
HETATM   13  O2  UNL     1      -5.520  -2.001  17.363  1.00  0.00    -0.201 OA
BRANCH  11  14
HETATM   14  N1  UNL     1      -6.278  -0.131  19.059  1.00  0.00    -0.324 N 
ATOM     15  H12 UNL     1      -5.570   0.507  19.423  1.00  0.00     0.169 HD
ATOM     16  H11 UNL     1      -7.081  -0.523  19.551  1.00  0.00     0.169 HD
ENDBRANCH  11  14
ENDBRANCH   8  11
ENDBRANCH   1   5
BRANCH   3  17
HETATM   17  C6  UNL     1      -3.011   5.346  13.143  1.00  0.00     0.167 C 
BRANCH  17  18
HETATM   18  C7  UNL     1      -3.054   6.725  13.643  1.00  0.00     0.037 A 
HETATM   19  C8  UNL     1      -4.174   7.465  13.221  1.00  0.00     0.130 A 
HETATM   20  F1  UNL     1      -5.138   6.896  12.435  1.00  0.00    -0.205 F 
HETATM   21  C9  UNL     1      -4.262   8.772  13.627  1.00  0.00     0.085 A 
HETATM   22  C10 UNL     1      -3.301   9.376  14.424  1.00  0.00     0.122 A 
HETATM   23  F2  UNL     1      -3.452  10.673  14.789  1.00  0.00    -0.206 F 
HETATM   24  C11 UNL     1      -2.228   8.607  14.806  1.00  0.00     0.085 A 
HETATM   25  C12 UNL     1      -2.089   7.266  14.419  1.00  0.00     0.130 A 
HETATM   26  F3  UNL     1      -0.992   6.582  14.804  1.00  0.00    -0.205 F 
ENDBRANCH  17  18
ENDBRANCH   3  17
TORSDOF 5
ENDMDL
