MODEL 6
REMARK VINA RESULT: -10.155546003      1.275      1.694
REMARK  8 active torsions:
REMARK  status: ('A' for Active; 'I' for Inactive)
REMARK    1  A    between atoms: C4_4  and  C5_5 
REMARK    2  A    between atoms: C15_15  and  C16_16 
REMARK    3  A    between atoms: C16_16  and  C18_18 
REMARK    4  A    between atoms: C18_18  and  C19_19 
REMARK    5  A    between atoms: C20_20  and  C21_21 
REMARK    6  A    between atoms: C21_21  and  O1_24 
REMARK    7  A    between atoms: C25_27  and  O2_28 
REMARK    8  A    between atoms: C27_31  and  O3_32 
ROOT
HETATM    1  C5  UNL     1      14.610  21.210  34.036  1.00  0.00     0.004 C 
HETATM    2  C6  UNL     1      14.088  22.109  33.246  1.00  0.00    -0.075 C 
HETATM    3  C7  UNL     1      13.951  21.823  31.786  1.00  0.00     0.034 C 
HETATM    4  C8  UNL     1      13.240  23.032  31.216  1.00  0.00     0.005 C 
HETATM    5  C9  UNL     1      11.959  23.390  31.923  1.00  0.00     0.010 C 
HETATM    6  C10 UNL     1      12.080  23.457  33.445  1.00  0.00    -0.032 C 
HETATM    7  C11 UNL     1      11.584  22.168  33.972  1.00  0.00     0.016 C 
HETATM    8  C12 UNL     1      13.620  23.408  33.662  1.00  0.00     0.023 C 
HETATM    9  C13 UNL     1      13.682  23.750  35.110  1.00  0.00     0.010 C 
HETATM   10  C14 UNL     1      12.852  25.050  35.050  1.00  0.00     0.007 C 
HETATM   11  C15 UNL     1      11.752  24.719  34.038  1.00  0.00     0.002 C 
ENDROOT
BRANCH   1  12
HETATM   12  C4  UNL     1      15.062  19.931  33.520  1.00  0.00     0.008 C 
HETATM   13  C3  UNL     1      14.721  18.782  34.099  1.00  0.00    -0.048 C 
HETATM   14  C2  UNL     1      15.185  17.509  33.567  1.00  0.00    -0.033 C 
HETATM   15  C24 UNL     1      13.852  18.759  35.312  1.00  0.00     0.071 C 
HETATM   16  C1  UNL     1      16.332  17.442  32.922  1.00  0.00     0.022 C 
HETATM   17  C27 UNL     1      14.395  16.255  33.728  1.00  0.00     0.153 C 
HETATM   18  C26 UNL     1      13.321  16.426  34.793  1.00  0.00     0.068 C 
HETATM   19  C25 UNL     1      13.790  17.384  35.878  1.00  0.00     0.125 C 
BRANCH  17  20
HETATM   20  O3  UNL     1      15.279  15.236  34.078  1.00  0.00    -0.391 OA
ATOM     21  H3  UNL     1      14.927  14.418  33.745  1.00  0.00     0.210 HD
ENDBRANCH  17  20
BRANCH  19  22
HETATM   22  O2  UNL     1      12.885  17.294  36.916  1.00  0.00    -0.395 OA
ATOM     23  H2  UNL     1      12.561  16.408  37.028  1.00  0.00     0.210 HD
ENDBRANCH  19  22
ENDBRANCH   1  12
BRANCH  11  24
HETATM   24  C16 UNL     1      10.410  25.074  34.638  1.00  0.00     0.009 C 
HETATM   25  C17 UNL     1      10.786  25.964  35.847  1.00  0.00     0.014 C 
BRANCH  24  26
HETATM   26  C18 UNL     1       9.495  25.823  33.814  1.00  0.00    -0.022 C 
BRANCH  26  27
HETATM   27  C19 UNL     1       8.179  26.321  34.168  1.00  0.00    -0.005 C 
HETATM   28  C20 UNL     1       6.974  25.696  34.629  1.00  0.00     0.009 C 
BRANCH  28  29
HETATM   29  C21 UNL     1       6.030  24.950  33.790  1.00  0.00     0.068 C 
HETATM   30  C22 UNL     1       6.393  24.114  32.655  1.00  0.00     0.050 C 
HETATM   31  C23 UNL     1       5.248  24.008  34.772  1.00  0.00     0.050 C 
BRANCH  29  32
HETATM   32  O1  UNL     1       4.968  25.824  33.359  1.00  0.00    -0.387 OA
ATOM     33  H1  UNL     1       4.141  25.358  33.385  1.00  0.00     0.211 HD
ENDBRANCH  29  32
ENDBRANCH  28  29
ENDBRANCH  26  27
ENDBRANCH  24  26
ENDBRANCH  11  24
TORSDOF 8
ENDMDL
