MODEL 8
REMARK VINA RESULT: -9.406302788      1.661      9.104
REMARK  8 active torsions:
REMARK  status: ('A' for Active; 'I' for Inactive)
REMARK    1  A    between atoms: C4_4  and  C5_5 
REMARK    2  A    between atoms: C15_15  and  C16_16 
REMARK    3  A    between atoms: C16_16  and  C18_18 
REMARK    4  A    between atoms: C18_18  and  C19_19 
REMARK    5  A    between atoms: C20_20  and  C21_21 
REMARK    6  A    between atoms: C21_21  and  O1_24 
REMARK    7  A    between atoms: C25_27  and  O2_28 
REMARK    8  A    between atoms: C27_31  and  O3_32 
ROOT
HETATM    1  C5  UNL     1       7.928  24.682  32.350  1.00  0.00     0.004 C 
HETATM    2  C6  UNL     1       9.082  25.168  32.722  1.00  0.00    -0.075 C 
HETATM    3  C7  UNL     1       9.160  26.555  33.271  1.00  0.00     0.034 C 
HETATM    4  C8  UNL     1      10.610  26.737  33.669  1.00  0.00     0.005 C 
HETATM    5  C9  UNL     1      11.146  25.658  34.572  1.00  0.00     0.010 C 
HETATM    6  C10 UNL     1      10.854  24.237  34.094  1.00  0.00    -0.032 C 
HETATM    7  C11 UNL     1       9.669  23.767  34.842  1.00  0.00     0.016 C 
HETATM    8  C12 UNL     1      10.341  24.469  32.644  1.00  0.00     0.023 C 
HETATM    9  C13 UNL     1      10.339  23.065  32.148  1.00  0.00     0.010 C 
HETATM   10  C14 UNL     1      11.798  22.717  32.509  1.00  0.00     0.007 C 
HETATM   11  C15 UNL     1      12.003  23.413  33.857  1.00  0.00     0.002 C 
ENDROOT
BRANCH   1  12
HETATM   12  C4  UNL     1       6.714  25.469  32.460  1.00  0.00     0.008 C 
HETATM   13  C3  UNL     1       5.568  24.935  32.876  1.00  0.00    -0.048 C 
HETATM   14  C2  UNL     1       4.360  25.740  32.979  1.00  0.00    -0.033 C 
HETATM   15  C24 UNL     1       5.483  23.493  33.251  1.00  0.00     0.071 C 
HETATM   16  C1  UNL     1       4.187  26.776  32.184  1.00  0.00     0.022 C 
HETATM   17  C27 UNL     1       3.291  25.429  33.971  1.00  0.00     0.153 C 
HETATM   18  C26 UNL     1       3.463  24.024  34.529  1.00  0.00     0.068 C 
HETATM   19  C25 UNL     1       4.065  23.101  33.481  1.00  0.00     0.125 C 
BRANCH  17  20
HETATM   20  O3  UNL     1       2.061  25.557  33.327  1.00  0.00    -0.391 OA
ATOM     21  H3  UNL     1       1.384  25.573  33.993  1.00  0.00     0.210 HD
ENDBRANCH  17  20
BRANCH  19  22
HETATM   22  O2  UNL     1       3.959  21.813  33.966  1.00  0.00    -0.395 OA
ATOM     23  H2  UNL     1       3.890  21.796  34.914  1.00  0.00     0.210 HD
ENDBRANCH  19  22
ENDBRANCH   1  12
BRANCH  11  24
HETATM   24  C16 UNL     1      12.576  22.420  34.842  1.00  0.00     0.009 C 
HETATM   25  C17 UNL     1      11.835  21.107  34.494  1.00  0.00     0.014 C 
BRANCH  24  26
HETATM   26  C18 UNL     1      13.991  22.155  34.766  1.00  0.00    -0.022 C 
BRANCH  26  27
HETATM   27  C19 UNL     1      14.701  21.377  33.767  1.00  0.00    -0.005 C 
HETATM   28  C20 UNL     1      14.502  20.076  33.199  1.00  0.00     0.009 C 
BRANCH  28  29
HETATM   29  C21 UNL     1      14.836  18.805  33.851  1.00  0.00     0.068 C 
HETATM   30  C22 UNL     1      14.130  18.234  34.989  1.00  0.00     0.050 C 
HETATM   31  C23 UNL     1      14.759  17.720  32.721  1.00  0.00     0.050 C 
BRANCH  29  32
HETATM   32  O1  UNL     1      16.244  18.772  34.156  1.00  0.00    -0.387 OA
ATOM     33  H1  UNL     1      16.370  18.462  35.045  1.00  0.00     0.211 HD
ENDBRANCH  29  32
ENDBRANCH  28  29
ENDBRANCH  26  27
ENDBRANCH  24  26
ENDBRANCH  11  24
TORSDOF 8
ENDMDL
