MODEL 9
REMARK VINA RESULT: -9.175552260      1.727      8.896
REMARK  8 active torsions:
REMARK  status: ('A' for Active; 'I' for Inactive)
REMARK    1  A    between atoms: C4_4  and  C5_5 
REMARK    2  A    between atoms: C15_15  and  C16_16 
REMARK    3  A    between atoms: C16_16  and  C18_18 
REMARK    4  A    between atoms: C18_18  and  C19_19 
REMARK    5  A    between atoms: C20_20  and  C21_21 
REMARK    6  A    between atoms: C21_21  and  O1_24 
REMARK    7  A    between atoms: C25_27  and  O2_28 
REMARK    8  A    between atoms: C27_31  and  O3_32 
ROOT
HETATM    1  C5  UNL     1       8.403  25.825  34.101  1.00  0.00     0.004 C 
HETATM    2  C6  UNL     1       9.345  25.046  34.560  1.00  0.00    -0.075 C 
HETATM    3  C7  UNL     1       9.020  24.023  35.600  1.00  0.00     0.034 C 
HETATM    4  C8  UNL     1      10.312  23.264  35.819  1.00  0.00     0.005 C 
HETATM    5  C9  UNL     1      10.936  22.724  34.560  1.00  0.00     0.010 C 
HETATM    6  C10 UNL     1      11.052  23.744  33.429  1.00  0.00    -0.032 C 
HETATM    7  C11 UNL     1       9.905  23.515  32.525  1.00  0.00     0.016 C 
HETATM    8  C12 UNL     1      10.727  25.083  34.150  1.00  0.00     0.023 C 
HETATM    9  C13 UNL     1      11.120  26.047  33.084  1.00  0.00     0.010 C 
HETATM   10  C14 UNL     1      12.548  25.513  32.841  1.00  0.00     0.007 C 
HETATM   11  C15 UNL     1      12.380  23.995  32.953  1.00  0.00     0.002 C 
ENDROOT
BRANCH   1  12
HETATM   12  C4  UNL     1       7.039  25.716  34.585  1.00  0.00     0.008 C 
HETATM   13  C3  UNL     1       6.064  25.223  33.826  1.00  0.00    -0.048 C 
HETATM   14  C2  UNL     1       4.702  25.122  34.328  1.00  0.00    -0.033 C 
HETATM   15  C24 UNL     1       6.333  24.755  32.434  1.00  0.00     0.071 C 
HETATM   16  C1  UNL     1       4.268  25.973  35.236  1.00  0.00     0.022 C 
HETATM   17  C27 UNL     1       3.761  24.072  33.844  1.00  0.00     0.153 C 
HETATM   18  C26 UNL     1       4.276  23.434  32.562  1.00  0.00     0.068 C 
HETATM   19  C25 UNL     1       5.055  24.446  31.736  1.00  0.00     0.125 C 
BRANCH  17  20
HETATM   20  O3  UNL     1       2.522  24.673  33.633  1.00  0.00    -0.391 OA
ATOM     21  H3  UNL     1       2.185  24.951  34.477  1.00  0.00     0.210 HD
ENDBRANCH  17  20
BRANCH  19  22
HETATM   22  O2  UNL     1       5.270  23.877  30.497  1.00  0.00    -0.395 OA
ATOM     23  H2  UNL     1       4.654  24.197  29.848  1.00  0.00     0.210 HD
ENDBRANCH  19  22
ENDBRANCH   1  12
BRANCH  11  24
HETATM   24  C16 UNL     1      13.008  23.341  31.743  1.00  0.00     0.009 C 
HETATM   25  C17 UNL     1      13.978  24.425  31.217  1.00  0.00     0.014 C 
BRANCH  24  26
HETATM   26  C18 UNL     1      13.774  22.140  31.963  1.00  0.00    -0.022 C 
BRANCH  26  27
HETATM   27  C19 UNL     1      14.381  21.684  33.200  1.00  0.00    -0.005 C 
HETATM   28  C20 UNL     1      15.271  20.608  33.528  1.00  0.00     0.009 C 
BRANCH  28  29
HETATM   29  C21 UNL     1      14.886  19.199  33.661  1.00  0.00     0.068 C 
HETATM   30  C22 UNL     1      13.672  18.716  34.303  1.00  0.00     0.050 C 
HETATM   31  C23 UNL     1      14.840  18.636  32.197  1.00  0.00     0.050 C 
BRANCH  29  32
HETATM   32  O1  UNL     1      15.989  18.444  34.201  1.00  0.00    -0.387 OA
ATOM     33  H1  UNL     1      16.418  17.962  33.504  1.00  0.00     0.211 HD
ENDBRANCH  29  32
ENDBRANCH  28  29
ENDBRANCH  26  27
ENDBRANCH  24  26
ENDBRANCH  11  24
TORSDOF 8
ENDMDL
