MODEL 7
REMARK VINA RESULT: -9.739686998      1.623      9.120
REMARK  8 active torsions:
REMARK  status: ('A' for Active; 'I' for Inactive)
REMARK    1  A    between atoms: C4_4  and  C5_5 
REMARK    2  A    between atoms: C15_15  and  C16_16 
REMARK    3  A    between atoms: C16_16  and  C18_18 
REMARK    4  A    between atoms: C18_18  and  C19_19 
REMARK    5  A    between atoms: C20_20  and  C21_21 
REMARK    6  A    between atoms: C21_21  and  O1_24 
REMARK    7  A    between atoms: C25_27  and  O2_28 
REMARK    8  A    between atoms: C27_31  and  O3_32 
ROOT
HETATM    1  C5  UNL     1      10.653  24.342  33.520  1.00  0.00     0.004 C 
HETATM    2  C6  UNL     1      11.848  24.129  33.999  1.00  0.00    -0.075 C 
HETATM    3  C7  UNL     1      12.173  24.552  35.395  1.00  0.00     0.034 C 
HETATM    4  C8  UNL     1      13.591  24.073  35.627  1.00  0.00     0.005 C 
HETATM    5  C9  UNL     1      13.810  22.613  35.331  1.00  0.00     0.010 C 
HETATM    6  C10 UNL     1      13.264  22.158  33.979  1.00  0.00    -0.032 C 
HETATM    7  C11 UNL     1      11.948  21.534  34.236  1.00  0.00     0.016 C 
HETATM    8  C12 UNL     1      12.932  23.508  33.280  1.00  0.00     0.023 C 
HETATM    9  C13 UNL     1      12.673  23.019  31.897  1.00  0.00     0.010 C 
HETATM   10  C14 UNL     1      13.990  22.238  31.704  1.00  0.00     0.007 C 
HETATM   11  C15 UNL     1      14.227  21.601  33.076  1.00  0.00     0.002 C 
ENDROOT
BRANCH   1  12
HETATM   12  C4  UNL     1       9.628  24.986  34.322  1.00  0.00     0.008 C 
HETATM   13  C3  UNL     1       8.340  24.922  33.994  1.00  0.00    -0.048 C 
HETATM   14  C2  UNL     1       7.326  25.574  34.811  1.00  0.00    -0.033 C 
HETATM   15  C24 UNL     1       7.889  24.179  32.781  1.00  0.00     0.071 C 
HETATM   16  C1  UNL     1       7.630  26.654  35.502  1.00  0.00     0.022 C 
HETATM   17  C27 UNL     1       5.932  25.056  34.895  1.00  0.00     0.153 C 
HETATM   18  C26 UNL     1       5.655  24.063  33.775  1.00  0.00     0.068 C 
HETATM   19  C25 UNL     1       6.444  24.430  32.527  1.00  0.00     0.125 C 
BRANCH  17  20
HETATM   20  O3  UNL     1       5.066  26.145  34.814  1.00  0.00    -0.391 OA
ATOM     21  H3  UNL     1       4.389  26.029  35.471  1.00  0.00     0.210 HD
ENDBRANCH  17  20
BRANCH  19  22
HETATM   22  O2  UNL     1       5.959  23.650  31.497  1.00  0.00    -0.395 OA
ATOM     23  H2  UNL     1       6.116  22.726  31.648  1.00  0.00     0.210 HD
ENDBRANCH  19  22
ENDBRANCH   1  12
BRANCH  11  24
HETATM   24  C16 UNL     1      14.493  20.125  32.893  1.00  0.00     0.009 C 
HETATM   25  C17 UNL     1      15.500  20.089  31.719  1.00  0.00     0.014 C 
BRANCH  24  26
HETATM   26  C18 UNL     1      15.087  19.418  33.999  1.00  0.00    -0.022 C 
BRANCH  26  27
HETATM   27  C19 UNL     1      15.807  18.157  33.970  1.00  0.00    -0.005 C 
HETATM   28  C20 UNL     1      15.449  16.821  33.594  1.00  0.00     0.009 C 
BRANCH  28  29
HETATM   29  C21 UNL     1      14.656  15.894  34.408  1.00  0.00     0.068 C 
HETATM   30  C22 UNL     1      14.899  14.464  34.530  1.00  0.00     0.050 C 
HETATM   31  C23 UNL     1      14.720  16.458  35.871  1.00  0.00     0.050 C 
BRANCH  29  32
HETATM   32  O1  UNL     1      13.255  16.070  34.117  1.00  0.00    -0.387 OA
ATOM     33  H1  UNL     1      12.811  15.232  34.169  1.00  0.00     0.211 HD
ENDBRANCH  29  32
ENDBRANCH  28  29
ENDBRANCH  26  27
ENDBRANCH  24  26
ENDBRANCH  11  24
TORSDOF 8
ENDMDL
