MODEL 1
REMARK VINA RESULT: -7.820701160      0.000      0.000
REMARK  7 active torsions:
REMARK  status: ('A' for Active; 'I' for Inactive)
REMARK    1  A    between atoms: C2_2  and  C3_3 
REMARK    2  A    between atoms: C2_2  and  C11_20 
REMARK    3  A    between atoms: C3_3  and  N1_4 
REMARK       I    between atoms: N1_4  and  C4_6 
REMARK    4  A    between atoms: C4_6  and  C5_8 
REMARK    5  A    between atoms: C8_11  and  S1_12 
REMARK    6  A    between atoms: S1_12  and  N2_13 
REMARK    7  A    between atoms: C11_20  and  N3_21 
ROOT
HETATM    1  N1  UNL     1      -4.148   4.437  12.409  1.00  0.00    -0.336 N 
ATOM      2  H1  UNL     1      -4.471   3.578  11.965  1.00  0.00     0.168 HD
HETATM    3  C4  UNL     1      -4.134   4.410  13.824  1.00  0.00     0.255 C 
HETATM    4  O1  UNL     1      -3.720   5.451  14.403  1.00  0.00    -0.267 OA
ENDROOT
BRANCH   1   5
HETATM    5  C3  UNL     1      -3.786   5.465  11.522  1.00  0.00     0.070 C 
BRANCH   5   6
HETATM    6  C2  UNL     1      -4.738   6.560  11.208  1.00  0.00     0.038 C 
HETATM    7  C1  UNL     1      -4.404   7.935  11.672  1.00  0.00     0.017 C 
BRANCH   6   8
HETATM    8  C11 UNL     1      -4.815   6.576   9.666  1.00  0.00     0.138 C 
BRANCH   8   9
HETATM    9  N3  UNL     1      -6.137   6.546   9.149  1.00  0.00    -0.355 N 
HETATM   10  C12 UNL     1      -6.846   5.416   8.923  1.00  0.00     0.092 A 
HETATM   11  C13 UNL     1      -8.098   5.707   8.446  1.00  0.00     0.031 A 
HETATM   12  C14 UNL     1      -8.176   7.072   8.371  1.00  0.00    -0.008 A 
HETATM   13  C15 UNL     1      -9.171   7.966   7.957  1.00  0.00     0.014 A 
HETATM   14  C19 UNL     1      -6.961   7.567   8.806  1.00  0.00     0.044 A 
HETATM   15  C16 UNL     1      -8.901   9.315   7.999  1.00  0.00     0.001 A 
HETATM   16  C17 UNL     1      -7.686   9.792   8.435  1.00  0.00     0.002 A 
HETATM   17  C18 UNL     1      -6.697   8.926   8.844  1.00  0.00     0.030 A 
ENDBRANCH   8   9
ENDBRANCH   6   8
ENDBRANCH   5   6
ENDBRANCH   1   5
BRANCH   3  18
HETATM   18  C5  UNL     1      -4.555   3.284  14.638  1.00  0.00     0.032 A 
HETATM   19  C6  UNL     1      -3.688   2.340  15.125  1.00  0.00     0.018 A 
HETATM   20  C7  UNL     1      -4.151   1.271  15.907  1.00  0.00     0.026 A 
HETATM   21  C8  UNL     1      -5.491   1.160  16.195  1.00  0.00     0.079 A 
HETATM   22  C9  UNL     1      -6.373   2.099  15.712  1.00  0.00     0.026 A 
HETATM   23  C10 UNL     1      -5.887   3.146  14.941  1.00  0.00     0.018 A 
BRANCH  21  24
HETATM   24  S1  UNL     1      -6.133  -0.147  17.164  1.00  0.00     0.256 S 
HETATM   25  O2  UNL     1      -5.759  -1.462  16.540  1.00  0.00    -0.201 OA
HETATM   26  O3  UNL     1      -5.614  -0.076  18.564  1.00  0.00    -0.201 OA
BRANCH  24  27
HETATM   27  N2  UNL     1      -7.875  -0.068  17.150  1.00  0.00    -0.324 N 
ATOM     28  H22 UNL     1      -8.434   0.264  16.364  1.00  0.00     0.169 HD
ATOM     29  H21 UNL     1      -8.232  -0.404  18.044  1.00  0.00     0.169 HD
ENDBRANCH  24  27
ENDBRANCH  21  24
ENDBRANCH   3  18
TORSDOF 7
ENDMDL
