MODEL 4
REMARK VINA RESULT: -7.691408031      1.065      2.145
REMARK  7 active torsions:
REMARK  status: ('A' for Active; 'I' for Inactive)
REMARK    1  A    between atoms: C2_2  and  C3_3 
REMARK    2  A    between atoms: C2_2  and  C11_20 
REMARK    3  A    between atoms: C3_3  and  N1_4 
REMARK       I    between atoms: N1_4  and  C4_6 
REMARK    4  A    between atoms: C4_6  and  C5_8 
REMARK    5  A    between atoms: C8_11  and  S1_12 
REMARK    6  A    between atoms: S1_12  and  N2_13 
REMARK    7  A    between atoms: C11_20  and  N3_21 
ROOT
HETATM    1  N1  UNL     1      -4.328   5.205  13.581  1.00  0.00    -0.336 N 
ATOM      2  H1  UNL     1      -5.221   5.401  14.032  1.00  0.00     0.168 HD
HETATM    3  C4  UNL     1      -3.802   3.915  13.830  1.00  0.00     0.255 C 
HETATM    4  O1  UNL     1      -2.708   3.635  13.269  1.00  0.00    -0.267 OA
ENDROOT
BRANCH   1   5
HETATM    5  C3  UNL     1      -3.808   6.257  12.807  1.00  0.00     0.070 C 
BRANCH   5   6
HETATM    6  C2  UNL     1      -4.351   6.537  11.454  1.00  0.00     0.038 C 
HETATM    7  C1  UNL     1      -4.384   5.423  10.467  1.00  0.00     0.017 C 
BRANCH   6   8
HETATM    8  C11 UNL     1      -5.803   7.001  11.707  1.00  0.00     0.138 C 
BRANCH   8   9
HETATM    9  N3  UNL     1      -6.273   7.973  10.784  1.00  0.00    -0.355 N 
HETATM   10  C12 UNL     1      -5.810   9.242  10.707  1.00  0.00     0.092 A 
HETATM   11  C13 UNL     1      -6.438   9.934   9.702  1.00  0.00     0.031 A 
HETATM   12  C14 UNL     1      -7.327   9.064   9.130  1.00  0.00    -0.008 A 
HETATM   13  C15 UNL     1      -8.253   9.171   8.086  1.00  0.00     0.014 A 
HETATM   14  C19 UNL     1      -7.209   7.865   9.810  1.00  0.00     0.044 A 
HETATM   15  C16 UNL     1      -9.019   8.071   7.771  1.00  0.00     0.001 A 
HETATM   16  C17 UNL     1      -8.890   6.885   8.458  1.00  0.00     0.002 A 
HETATM   17  C18 UNL     1      -7.984   6.765   9.487  1.00  0.00     0.030 A 
ENDBRANCH   8   9
ENDBRANCH   6   8
ENDBRANCH   5   6
ENDBRANCH   1   5
BRANCH   3  18
HETATM   18  C5  UNL     1      -4.429   2.911  14.671  1.00  0.00     0.032 A 
HETATM   19  C6  UNL     1      -5.776   2.879  14.930  1.00  0.00     0.018 A 
HETATM   20  C7  UNL     1      -6.328   1.885  15.751  1.00  0.00     0.026 A 
HETATM   21  C8  UNL     1      -5.516   0.924  16.309  1.00  0.00     0.079 A 
HETATM   22  C9  UNL     1      -4.163   0.945  16.059  1.00  0.00     0.026 A 
HETATM   23  C10 UNL     1      -3.644   1.940  15.242  1.00  0.00     0.018 A 
BRANCH  21  24
HETATM   24  S1  UNL     1      -6.142  -0.342  17.341  1.00  0.00     0.256 S 
HETATM   25  O2  UNL     1      -5.878  -1.679  16.708  1.00  0.00    -0.201 OA
HETATM   26  O3  UNL     1      -5.515  -0.280  18.696  1.00  0.00    -0.201 OA
BRANCH  24  27
HETATM   27  N2  UNL     1      -7.874  -0.180  17.458  1.00  0.00    -0.324 N 
ATOM     28  H22 UNL     1      -8.402  -0.216  18.330  1.00  0.00     0.169 HD
ATOM     29  H21 UNL     1      -8.262  -0.046  16.525  1.00  0.00     0.169 HD
ENDBRANCH  24  27
ENDBRANCH  21  24
ENDBRANCH   3  18
TORSDOF 7
ENDMDL
