MODEL 3
REMARK VINA RESULT: -7.342306743      3.124      5.763
REMARK  7 active torsions:
REMARK  status: ('A' for Active; 'I' for Inactive)
REMARK    1  A    between atoms: C2_2  and  C3_3 
REMARK    2  A    between atoms: C2_2  and  C11_20 
REMARK    3  A    between atoms: C3_3  and  N1_4 
REMARK       I    between atoms: N1_4  and  C4_6 
REMARK    4  A    between atoms: C4_6  and  C5_8 
REMARK    5  A    between atoms: C8_11  and  S1_12 
REMARK    6  A    between atoms: S1_12  and  N2_13 
REMARK    7  A    between atoms: C11_20  and  N3_21 
ROOT
HETATM    1  N1  UNL     1      -5.530   5.752  13.197  1.00  0.00    -0.336 N 
ATOM      2  H1  UNL     1      -6.362   5.840  13.781  1.00  0.00     0.168 HD
HETATM    3  C4  UNL     1      -4.766   4.618  13.479  1.00  0.00     0.255 C 
HETATM    4  O1  UNL     1      -3.723   4.460  12.813  1.00  0.00    -0.267 OA
ENDROOT
BRANCH   1   5
HETATM    5  C3  UNL     1      -5.383   6.790  12.278  1.00  0.00     0.070 C 
BRANCH   5   6
HETATM    6  C2  UNL     1      -6.492   7.430  11.572  1.00  0.00     0.038 C 
HETATM    7  C1  UNL     1      -7.768   7.418  12.353  1.00  0.00     0.017 C 
BRANCH   6   8
HETATM    8  C11 UNL     1      -6.623   6.727  10.233  1.00  0.00     0.138 C 
BRANCH   8   9
HETATM    9  N3  UNL     1      -6.689   7.654   9.096  1.00  0.00    -0.355 N 
HETATM   10  C12 UNL     1      -5.638   8.087   8.380  1.00  0.00     0.092 A 
HETATM   11  C13 UNL     1      -6.060   8.914   7.389  1.00  0.00     0.031 A 
HETATM   12  C14 UNL     1      -7.423   8.986   7.510  1.00  0.00    -0.008 A 
HETATM   13  C15 UNL     1      -8.384   9.676   6.793  1.00  0.00     0.014 A 
HETATM   14  C19 UNL     1      -7.800   8.197   8.577  1.00  0.00     0.044 A 
HETATM   15  C16 UNL     1      -9.707   9.579   7.144  1.00  0.00     0.001 A 
HETATM   16  C17 UNL     1     -10.077   8.790   8.211  1.00  0.00     0.002 A 
HETATM   17  C18 UNL     1      -9.141   8.098   8.933  1.00  0.00     0.030 A 
ENDBRANCH   8   9
ENDBRANCH   6   8
ENDBRANCH   5   6
ENDBRANCH   1   5
BRANCH   3  18
HETATM   18  C5  UNL     1      -5.125   3.638  14.489  1.00  0.00     0.032 A 
HETATM   19  C6  UNL     1      -4.359   2.540  14.774  1.00  0.00     0.018 A 
HETATM   20  C7  UNL     1      -4.722   1.607  15.749  1.00  0.00     0.026 A 
HETATM   21  C8  UNL     1      -5.895   1.836  16.420  1.00  0.00     0.079 A 
HETATM   22  C9  UNL     1      -6.666   2.926  16.144  1.00  0.00     0.026 A 
HETATM   23  C10 UNL     1      -6.293   3.827  15.188  1.00  0.00     0.018 A 
BRANCH  21  24
HETATM   24  S1  UNL     1      -6.382   0.683  17.651  1.00  0.00     0.256 S 
HETATM   25  O2  UNL     1      -7.714   0.115  17.209  1.00  0.00    -0.201 OA
HETATM   26  O3  UNL     1      -5.357  -0.379  17.829  1.00  0.00    -0.201 OA
BRANCH  24  27
HETATM   27  N2  UNL     1      -6.573   1.571  19.130  1.00  0.00    -0.324 N 
ATOM     28  H22 UNL     1      -7.293   2.269  19.317  1.00  0.00     0.169 HD
ATOM     29  H21 UNL     1      -5.834   1.260  19.761  1.00  0.00     0.169 HD
ENDBRANCH  24  27
ENDBRANCH  21  24
ENDBRANCH   3  18
TORSDOF 7
ENDMDL
