MODEL 1
REMARK VINA RESULT: -7.878761378      0.000      0.000
REMARK  7 active torsions:
REMARK  status: ('A' for Active; 'I' for Inactive)
REMARK    1  A    between atoms: C2_2  and  C3_3 
REMARK    2  A    between atoms: C2_2  and  C11_20 
REMARK    3  A    between atoms: C3_3  and  N1_4 
REMARK       I    between atoms: N1_4  and  C4_6 
REMARK    4  A    between atoms: C4_6  and  C5_8 
REMARK    5  A    between atoms: C8_11  and  S1_12 
REMARK    6  A    between atoms: S1_12  and  N2_13 
REMARK    7  A    between atoms: C11_20  and  N3_21 
ROOT
HETATM    1  N1  UNL     1      -4.977   5.223  12.878  1.00  0.00    -0.336 N 
ATOM      2  H1  UNL     1      -5.980   5.047  12.943  1.00  0.00     0.168 HD
HETATM    3  C4  UNL     1      -4.222   4.499  13.803  1.00  0.00     0.255 C 
HETATM    4  O1  UNL     1      -2.987   4.682  13.790  1.00  0.00    -0.267 OA
ENDROOT
BRANCH   1   5
HETATM    5  C3  UNL     1      -4.636   6.137  11.882  1.00  0.00     0.070 C 
BRANCH   5   6
HETATM    6  C2  UNL     1      -3.925   5.791  10.653  1.00  0.00     0.038 C 
HETATM    7  C1  UNL     1      -4.120   6.795   9.561  1.00  0.00     0.017 C 
BRANCH   6   8
HETATM    8  C11 UNL     1      -4.389   4.402  10.254  1.00  0.00     0.138 C 
BRANCH   8   9
HETATM    9  N3  UNL     1      -3.403   3.354  10.553  1.00  0.00    -0.355 N 
HETATM   10  C12 UNL     1      -2.082   3.441  10.329  1.00  0.00     0.092 A 
HETATM   11  C13 UNL     1      -1.465   2.303  10.743  1.00  0.00     0.031 A 
HETATM   12  C14 UNL     1      -2.455   1.495  11.238  1.00  0.00    -0.008 A 
HETATM   13  C15 UNL     1      -2.428   0.224  11.783  1.00  0.00     0.014 A 
HETATM   14  C19 UNL     1      -3.655   2.162  11.111  1.00  0.00     0.044 A 
HETATM   15  C16 UNL     1      -3.594  -0.372  12.195  1.00  0.00     0.001 A 
HETATM   16  C17 UNL     1      -4.791   0.299  12.065  1.00  0.00     0.002 A 
HETATM   17  C18 UNL     1      -4.837   1.558  11.528  1.00  0.00     0.030 A 
ENDBRANCH   8   9
ENDBRANCH   6   8
ENDBRANCH   5   6
ENDBRANCH   1   5
BRANCH   3  18
HETATM   18  C5  UNL     1      -4.796   3.568  14.758  1.00  0.00     0.032 A 
HETATM   19  C6  UNL     1      -6.072   3.679  15.239  1.00  0.00     0.018 A 
HETATM   20  C7  UNL     1      -6.607   2.773  16.159  1.00  0.00     0.026 A 
HETATM   21  C8  UNL     1      -5.790   1.752  16.570  1.00  0.00     0.079 A 
HETATM   22  C9  UNL     1      -4.517   1.632  16.097  1.00  0.00     0.026 A 
HETATM   23  C10 UNL     1      -4.014   2.527  15.198  1.00  0.00     0.018 A 
BRANCH  21  24
HETATM   24  S1  UNL     1      -6.428   0.596  17.726  1.00  0.00     0.256 S 
HETATM   25  O2  UNL     1      -7.797   0.191  17.222  1.00  0.00    -0.201 OA
HETATM   26  O3  UNL     1      -5.522  -0.574  17.873  1.00  0.00    -0.201 OA
BRANCH  24  27
HETATM   27  N2  UNL     1      -6.572   1.423  19.245  1.00  0.00    -0.324 N 
ATOM     28  H22 UNL     1      -5.919   2.118  19.608  1.00  0.00     0.169 HD
ATOM     29  H21 UNL     1      -7.422   1.080  19.692  1.00  0.00     0.169 HD
ENDBRANCH  24  27
ENDBRANCH  21  24
ENDBRANCH   3  18
TORSDOF 7
ENDMDL
