MODEL 2
REMARK VINA RESULT: -7.767657912      1.083      1.448
REMARK  7 active torsions:
REMARK  status: ('A' for Active; 'I' for Inactive)
REMARK    1  A    between atoms: C2_2  and  C3_3 
REMARK    2  A    between atoms: C2_2  and  C11_20 
REMARK    3  A    between atoms: C3_3  and  N1_4 
REMARK       I    between atoms: N1_4  and  C4_6 
REMARK    4  A    between atoms: C4_6  and  C5_8 
REMARK    5  A    between atoms: C8_11  and  S1_12 
REMARK    6  A    between atoms: S1_12  and  N2_13 
REMARK    7  A    between atoms: C11_20  and  N3_21 
ROOT
HETATM    1  N1  UNL     1      -3.527   5.019  13.264  1.00  0.00    -0.336 N 
ATOM      2  H1  UNL     1      -2.826   4.543  13.832  1.00  0.00     0.168 HD
HETATM    3  C4  UNL     1      -4.834   4.605  13.527  1.00  0.00     0.255 C 
HETATM    4  O1  UNL     1      -5.741   5.135  12.852  1.00  0.00    -0.267 OA
ENDROOT
BRANCH   1   5
HETATM    5  C3  UNL     1      -2.987   5.953  12.381  1.00  0.00     0.070 C 
BRANCH   5   6
HETATM    6  C2  UNL     1      -2.237   5.609  11.174  1.00  0.00     0.038 C 
HETATM    7  C1  UNL     1      -2.028   6.777  10.262  1.00  0.00     0.017 C 
BRANCH   6   8
HETATM    8  C11 UNL     1      -2.986   4.474  10.501  1.00  0.00     0.138 C 
BRANCH   8   9
HETATM    9  N3  UNL     1      -2.539   3.145  10.939  1.00  0.00    -0.355 N 
HETATM   10  C12 UNL     1      -1.264   2.789  11.169  1.00  0.00     0.092 A 
HETATM   11  C13 UNL     1      -1.211   1.496  11.582  1.00  0.00     0.031 A 
HETATM   12  C14 UNL     1      -2.507   1.051  11.602  1.00  0.00    -0.008 A 
HETATM   13  C15 UNL     1      -3.063  -0.174  11.926  1.00  0.00     0.014 A 
HETATM   14  C19 UNL     1      -3.321   2.088  11.198  1.00  0.00     0.044 A 
HETATM   15  C16 UNL     1      -4.421  -0.356  11.844  1.00  0.00     0.001 A 
HETATM   16  C17 UNL     1      -5.229   0.683  11.438  1.00  0.00     0.002 A 
HETATM   17  C18 UNL     1      -4.697   1.903  11.113  1.00  0.00     0.030 A 
ENDBRANCH   8   9
ENDBRANCH   6   8
ENDBRANCH   5   6
ENDBRANCH   1   5
BRANCH   3  18
HETATM   18  C5  UNL     1      -5.177   3.608  14.526  1.00  0.00     0.032 A 
HETATM   19  C6  UNL     1      -4.414   2.498  14.768  1.00  0.00     0.018 A 
HETATM   20  C7  UNL     1      -4.762   1.548  15.733  1.00  0.00     0.026 A 
HETATM   21  C8  UNL     1      -5.916   1.773  16.438  1.00  0.00     0.079 A 
HETATM   22  C9  UNL     1      -6.683   2.876  16.204  1.00  0.00     0.026 A 
HETATM   23  C10 UNL     1      -6.325   3.793  15.258  1.00  0.00     0.018 A 
BRANCH  21  24
HETATM   24  S1  UNL     1      -6.383   0.601  17.657  1.00  0.00     0.256 S 
HETATM   25  O2  UNL     1      -7.752   0.089  17.264  1.00  0.00    -0.201 OA
HETATM   26  O3  UNL     1      -5.386  -0.499  17.756  1.00  0.00    -0.201 OA
BRANCH  24  27
HETATM   27  N2  UNL     1      -6.474   1.448  19.169  1.00  0.00    -0.324 N 
ATOM     28  H22 UNL     1      -5.831   2.175  19.483  1.00  0.00     0.169 HD
ATOM     29  H21 UNL     1      -7.283   1.080  19.669  1.00  0.00     0.169 HD
ENDBRANCH  24  27
ENDBRANCH  21  24
ENDBRANCH   3  18
TORSDOF 7
ENDMDL
