MODEL 12
REMARK VINA RESULT: -8.518175518      3.352      4.253
REMARK  7 active torsions:
REMARK  status: ('A' for Active; 'I' for Inactive)
REMARK    1  A    between atoms: C3_4  and  O2_5 
REMARK    2  A    between atoms: O2_5  and  C4_6 
REMARK    3  A    between atoms: C11_13  and  O3_14 
REMARK    4  A    between atoms: C14_18  and  C15_19 
REMARK    5  A    between atoms: C21_27  and  O6_28 
REMARK    6  A    between atoms: C28_36  and  O7_37 
REMARK    7  A    between atoms: C29_39  and  O8_40 
ROOT
HETATM    1  C4  UNL     1     -16.157  29.916  29.859  1.00  0.00     0.125 C 
HETATM    2  C5  UNL     1     -15.217  30.169  28.725  1.00  0.00     0.033 C 
HETATM    3  C6  UNL     1     -13.813  30.090  29.290  1.00  0.00     0.012 C 
HETATM    4  C7  UNL     1     -13.460  28.724  29.789  1.00  0.00    -0.036 C 
HETATM    5  C8  UNL     1     -12.109  28.836  30.464  1.00  0.00     0.016 C 
HETATM    6  C9  UNL     1     -13.344  27.680  28.715  1.00  0.00     0.003 C 
HETATM    7  C10 UNL     1     -12.473  28.036  27.587  1.00  0.00     0.038 C 
HETATM    8  C11 UNL     1     -11.420  27.119  27.153  1.00  0.00     0.130 C 
HETATM    9  C12 UNL     1     -11.529  25.661  27.487  1.00  0.00     0.021 C 
HETATM   10  C13 UNL     1     -10.321  25.179  28.245  1.00  0.00     0.022 C 
HETATM   11  C14 UNL     1     -11.738  24.805  26.279  1.00  0.00     0.030 C 
HETATM   12  C19 UNL     1     -13.197  24.405  26.227  1.00  0.00     0.013 C 
HETATM   13  C20 UNL     1     -13.840  25.273  27.322  1.00  0.00     0.040 C 
HETATM   14  C21 UNL     1     -12.748  25.353  28.317  1.00  0.00     0.072 C 
HETATM   15  C22 UNL     1     -12.870  26.426  29.355  1.00  0.00     0.026 C 
HETATM   16  C23 UNL     1     -13.698  25.938  30.498  1.00  0.00     0.008 C 
HETATM   17  C24 UNL     1     -14.357  26.946  31.334  1.00  0.00     0.006 C 
HETATM   18  C25 UNL     1     -14.459  28.331  30.824  1.00  0.00    -0.004 C 
HETATM   19  C26 UNL     1     -15.898  28.536  30.372  1.00  0.00     0.037 C 
ENDROOT
BRANCH   1  20
HETATM   20  O2  UNL     1     -16.041  30.911  30.798  1.00  0.00    -0.356 OA
BRANCH  20  21
HETATM   21  C3  UNL     1     -16.888  30.783  31.870  1.00  0.00     0.263 C 
HETATM   22  O1  UNL     1     -17.971  31.657  31.840  1.00  0.00    -0.354 OA
HETATM   23  C2  UNL     1     -18.590  31.556  33.095  1.00  0.00     0.151 C 
HETATM   24  C1  UNL     1     -20.041  31.902  33.060  1.00  0.00     0.042 C 
HETATM   25  C29 UNL     1     -17.872  32.426  34.114  1.00  0.00     0.175 C 
HETATM   26  C28 UNL     1     -16.399  32.418  33.709  1.00  0.00     0.154 C 
HETATM   27  C27 UNL     1     -16.122  31.030  33.146  1.00  0.00     0.095 C 
BRANCH  25  28
HETATM   28  O8  UNL     1     -18.050  31.970  35.413  1.00  0.00    -0.390 OA
ATOM     29  H8  UNL     1     -18.351  31.069  35.440  1.00  0.00     0.210 HD
ENDBRANCH  25  28
BRANCH  26  30
HETATM   30  O7  UNL     1     -15.603  32.586  34.822  1.00  0.00    -0.393 OA
ATOM     31  H7  UNL     1     -15.539  33.518  34.994  1.00  0.00     0.210 HD
ENDBRANCH  26  30
ENDBRANCH  20  21
ENDBRANCH   1  20
BRANCH   8  32
HETATM   32  O3  UNL     1     -10.142  27.549  27.515  1.00  0.00    -0.395 OA
ATOM     33  H3  UNL     1      -9.478  26.883  27.386  1.00  0.00     0.210 HD
ENDBRANCH   8  32
BRANCH  14  34
HETATM   34  O6  UNL     1     -12.675  24.145  28.996  1.00  0.00    -0.389 OA
ATOM     35  H6  UNL     1     -12.724  24.231  29.941  1.00  0.00     0.210 HD
ENDBRANCH  14  34
BRANCH  11  36
HETATM   36  C15 UNL     1     -10.833  23.631  26.144  1.00  0.00    -0.045 A 
HETATM   37  C16 UNL     1      -9.749  23.616  25.377  1.00  0.00     0.087 A 
HETATM   38  C17 UNL     1      -9.097  22.330  25.471  1.00  0.00     0.283 A 
HETATM   39  O4  UNL     1      -8.042  21.918  24.896  1.00  0.00    -0.260 OA
HETATM   40  O5  UNL     1      -9.841  21.572  26.333  1.00  0.00    -0.314 OA
HETATM   41  C18 UNL     1     -10.958  22.295  26.755  1.00  0.00     0.213 A 
ENDBRANCH  11  36
TORSDOF 7
ENDMDL
