MODEL 7
REMARK VINA RESULT: -9.002258067      2.140      2.775
REMARK  7 active torsions:
REMARK  status: ('A' for Active; 'I' for Inactive)
REMARK    1  A    between atoms: C3_4  and  O2_5 
REMARK    2  A    between atoms: O2_5  and  C4_6 
REMARK    3  A    between atoms: C11_13  and  O3_14 
REMARK    4  A    between atoms: C14_18  and  C15_19 
REMARK    5  A    between atoms: C21_27  and  O6_28 
REMARK    6  A    between atoms: C28_36  and  O7_37 
REMARK    7  A    between atoms: C29_39  and  O8_40 
ROOT
HETATM    1  C4  UNL     1     -15.599  30.556  29.938  1.00  0.00     0.125 C 
HETATM    2  C5  UNL     1     -14.630  30.711  28.811  1.00  0.00     0.033 C 
HETATM    3  C6  UNL     1     -13.246  30.489  29.385  1.00  0.00     0.012 C 
HETATM    4  C7  UNL     1     -13.038  29.095  29.886  1.00  0.00    -0.036 C 
HETATM    5  C8  UNL     1     -11.686  29.068  30.570  1.00  0.00     0.016 C 
HETATM    6  C9  UNL     1     -13.022  28.043  28.813  1.00  0.00     0.003 C 
HETATM    7  C10 UNL     1     -12.111  28.307  27.691  1.00  0.00     0.038 C 
HETATM    8  C11 UNL     1     -11.155  27.287  27.264  1.00  0.00     0.130 C 
HETATM    9  C12 UNL     1     -11.415  25.848  27.597  1.00  0.00     0.021 C 
HETATM   10  C13 UNL     1     -10.268  25.245  28.363  1.00  0.00     0.022 C 
HETATM   11  C14 UNL     1     -11.703  25.017  26.388  1.00  0.00     0.030 C 
HETATM   12  C19 UNL     1     -13.195  24.769  26.326  1.00  0.00     0.013 C 
HETATM   13  C20 UNL     1     -13.752  25.699  27.417  1.00  0.00     0.040 C 
HETATM   14  C21 UNL     1     -12.665  25.667  28.419  1.00  0.00     0.072 C 
HETATM   15  C22 UNL     1     -12.683  26.747  29.456  1.00  0.00     0.026 C 
HETATM   16  C23 UNL     1     -13.565  26.347  30.593  1.00  0.00     0.008 C 
HETATM   17  C24 UNL     1     -14.122  27.418  31.425  1.00  0.00     0.006 C 
HETATM   18  C25 UNL     1     -14.079  28.806  30.915  1.00  0.00    -0.004 C 
HETATM   19  C26 UNL     1     -15.486  29.157  30.452  1.00  0.00     0.037 C 
ENDROOT
BRANCH   1  20
HETATM   20  O2  UNL     1     -15.388  31.535  30.878  1.00  0.00    -0.356 OA
BRANCH  20  21
HETATM   21  C3  UNL     1     -16.391  32.468  30.961  1.00  0.00     0.263 C 
HETATM   22  O1  UNL     1     -17.538  32.128  30.250  1.00  0.00    -0.354 OA
HETATM   23  C2  UNL     1     -18.351  33.271  30.250  1.00  0.00     0.151 C 
HETATM   24  C1  UNL     1     -19.802  32.954  30.105  1.00  0.00     0.042 C 
HETATM   25  C29 UNL     1     -17.917  34.234  29.157  1.00  0.00     0.175 C 
HETATM   26  C28 UNL     1     -16.404  34.070  29.030  1.00  0.00     0.154 C 
HETATM   27  C27 UNL     1     -15.888  33.791  30.436  1.00  0.00     0.095 C 
BRANCH  25  28
HETATM   28  O8  UNL     1     -18.270  35.546  29.441  1.00  0.00    -0.390 OA
ATOM     29  H8  UNL     1     -17.560  36.153  29.276  1.00  0.00     0.210 HD
ENDBRANCH  25  28
BRANCH  26  30
HETATM   30  O7  UNL     1     -15.836  35.251  28.601  1.00  0.00    -0.393 OA
ATOM     31  H7  UNL     1     -16.187  35.445  27.740  1.00  0.00     0.210 HD
ENDBRANCH  26  30
ENDBRANCH  20  21
ENDBRANCH   1  20
BRANCH   8  32
HETATM   32  O3  UNL     1      -9.843  27.584  27.635  1.00  0.00    -0.395 OA
ATOM     33  H3  UNL     1      -9.241  27.579  26.900  1.00  0.00     0.210 HD
ENDBRANCH   8  32
BRANCH  14  34
HETATM   34  O6  UNL     1     -12.720  24.458  29.099  1.00  0.00    -0.389 OA
ATOM     35  H6  UNL     1     -12.971  24.541  30.011  1.00  0.00     0.210 HD
ENDBRANCH  14  34
BRANCH  11  36
HETATM   36  C15 UNL     1     -10.922  23.756  26.260  1.00  0.00    -0.045 A 
HETATM   37  C16 UNL     1      -9.844  23.628  25.494  1.00  0.00     0.087 A 
HETATM   38  C17 UNL     1      -9.327  22.283  25.594  1.00  0.00     0.283 A 
HETATM   39  O4  UNL     1      -8.318  21.763  25.023  1.00  0.00    -0.260 OA
HETATM   40  O5  UNL     1     -10.144  21.607  26.458  1.00  0.00    -0.314 OA
HETATM   41  C18 UNL     1     -11.182  22.442  26.876  1.00  0.00     0.213 A 
ENDBRANCH  11  36
TORSDOF 7
ENDMDL
