MODEL 13
REMARK VINA RESULT: -8.430191488      2.580      3.746
REMARK  7 active torsions:
REMARK  status: ('A' for Active; 'I' for Inactive)
REMARK    1  A    between atoms: C3_4  and  O2_5 
REMARK    2  A    between atoms: O2_5  and  C4_6 
REMARK    3  A    between atoms: C11_13  and  O3_14 
REMARK    4  A    between atoms: C14_18  and  C15_19 
REMARK    5  A    between atoms: C21_27  and  O6_28 
REMARK    6  A    between atoms: C28_36  and  O7_37 
REMARK    7  A    between atoms: C29_39  and  O8_40 
ROOT
HETATM    1  C4  UNL     1     -10.495  32.225  31.233  1.00  0.00     0.125 C 
HETATM    2  C5  UNL     1     -11.040  30.987  31.868  1.00  0.00     0.033 C 
HETATM    3  C6  UNL     1     -12.337  30.660  31.157  1.00  0.00     0.012 C 
HETATM    4  C7  UNL     1     -12.140  30.303  29.717  1.00  0.00    -0.036 C 
HETATM    5  C8  UNL     1     -13.518  30.163  29.103  1.00  0.00     0.016 C 
HETATM    6  C9  UNL     1     -11.412  29.009  29.490  1.00  0.00     0.003 C 
HETATM    7  C10 UNL     1     -11.949  27.852  30.218  1.00  0.00     0.038 C 
HETATM    8  C11 UNL     1     -12.252  26.611  29.507  1.00  0.00     0.130 C 
HETATM    9  C12 UNL     1     -11.579  26.330  28.197  1.00  0.00     0.021 C 
HETATM   10  C13 UNL     1     -12.584  26.087  27.104  1.00  0.00     0.022 C 
HETATM   11  C14 UNL     1     -10.629  25.178  28.270  1.00  0.00     0.030 C 
HETATM   12  C19 UNL     1      -9.219  25.727  28.324  1.00  0.00     0.013 C 
HETATM   13  C20 UNL     1      -9.436  27.237  28.521  1.00  0.00     0.040 C 
HETATM   14  C21 UNL     1     -10.684  27.460  27.758  1.00  0.00     0.072 C 
HETATM   15  C22 UNL     1     -11.411  28.741  28.029  1.00  0.00     0.026 C 
HETATM   16  C23 UNL     1     -10.851  29.834  27.179  1.00  0.00     0.008 C 
HETATM   17  C24 UNL     1     -11.041  31.213  27.639  1.00  0.00     0.006 C 
HETATM   18  C25 UNL     1     -11.451  31.441  29.042  1.00  0.00    -0.004 C 
HETATM   19  C26 UNL     1     -10.219  31.922  29.796  1.00  0.00     0.037 C 
ENDROOT
BRANCH   1  20
HETATM   20  O2  UNL     1     -11.351  33.279  31.445  1.00  0.00    -0.356 OA
BRANCH  20  21
HETATM   21  C3  UNL     1     -10.951  34.146  32.430  1.00  0.00     0.263 C 
HETATM   22  O1  UNL     1     -11.429  35.443  32.267  1.00  0.00    -0.354 OA
HETATM   23  C2  UNL     1     -10.749  36.232  33.207  1.00  0.00     0.151 C 
HETATM   24  C1  UNL     1     -11.514  37.446  33.614  1.00  0.00     0.042 C 
HETATM   25  C29 UNL     1      -9.381  36.632  32.676  1.00  0.00     0.175 C 
HETATM   26  C28 UNL     1      -8.913  35.469  31.804  1.00  0.00     0.154 C 
HETATM   27  C27 UNL     1      -9.444  34.203  32.465  1.00  0.00     0.095 C 
BRANCH  25  28
HETATM   28  O8  UNL     1      -8.481  36.904  33.697  1.00  0.00    -0.390 OA
ATOM     29  H8  UNL     1      -7.978  36.138  33.947  1.00  0.00     0.210 HD
ENDBRANCH  25  28
BRANCH  26  30
HETATM   30  O7  UNL     1      -7.536  35.401  31.809  1.00  0.00    -0.393 OA
ATOM     31  H7  UNL     1      -7.216  35.959  31.111  1.00  0.00     0.210 HD
ENDBRANCH  26  30
ENDBRANCH  20  21
ENDBRANCH   1  20
BRANCH   8  32
HETATM   32  O3  UNL     1     -13.622  26.402  29.341  1.00  0.00    -0.395 OA
ATOM     33  H3  UNL     1     -13.883  26.370  28.428  1.00  0.00     0.210 HD
ENDBRANCH   8  32
BRANCH  14  34
HETATM   34  O6  UNL     1     -10.386  27.447  26.403  1.00  0.00    -0.389 OA
ATOM     35  H6  UNL     1      -9.589  27.914  26.180  1.00  0.00     0.210 HD
ENDBRANCH  14  34
BRANCH  11  36
HETATM   36  C15 UNL     1     -10.781  24.135  27.219  1.00  0.00    -0.045 A 
HETATM   37  C16 UNL     1     -10.001  24.045  26.147  1.00  0.00     0.087 A 
HETATM   38  C17 UNL     1     -10.415  22.929  25.330  1.00  0.00     0.283 A 
HETATM   39  O4  UNL     1      -9.930  22.510  24.233  1.00  0.00    -0.260 OA
HETATM   40  O5  UNL     1     -11.482  22.350  25.961  1.00  0.00    -0.314 OA
HETATM   41  C18 UNL     1     -11.796  23.071  27.115  1.00  0.00     0.213 A 
ENDBRANCH  11  36
TORSDOF 7
ENDMDL
