MODEL 6
REMARK VINA RESULT: -9.137905364      3.053      3.905
REMARK  7 active torsions:
REMARK  status: ('A' for Active; 'I' for Inactive)
REMARK    1  A    between atoms: C3_4  and  O2_5 
REMARK    2  A    between atoms: O2_5  and  C4_6 
REMARK    3  A    between atoms: C11_13  and  O3_14 
REMARK    4  A    between atoms: C14_18  and  C15_19 
REMARK    5  A    between atoms: C21_27  and  O6_28 
REMARK    6  A    between atoms: C28_36  and  O7_37 
REMARK    7  A    between atoms: C29_39  and  O8_40 
ROOT
HETATM    1  C4  UNL     1     -16.147  29.721  29.798  1.00  0.00     0.125 C 
HETATM    2  C5  UNL     1     -15.225  29.997  28.655  1.00  0.00     0.033 C 
HETATM    3  C6  UNL     1     -13.814  29.960  29.208  1.00  0.00     0.012 C 
HETATM    4  C7  UNL     1     -13.418  28.607  29.707  1.00  0.00    -0.036 C 
HETATM    5  C8  UNL     1     -12.064  28.759  30.370  1.00  0.00     0.016 C 
HETATM    6  C9  UNL     1     -13.281  27.562  28.636  1.00  0.00     0.003 C 
HETATM    7  C10 UNL     1     -12.431  27.939  27.499  1.00  0.00     0.038 C 
HETATM    8  C11 UNL     1     -11.356  27.051  27.059  1.00  0.00     0.130 C 
HETATM    9  C12 UNL     1     -11.420  25.592  27.398  1.00  0.00     0.021 C 
HETATM   10  C13 UNL     1     -10.193  25.147  28.147  1.00  0.00     0.022 C 
HETATM   11  C14 UNL     1     -11.616  24.726  26.195  1.00  0.00     0.030 C 
HETATM   12  C19 UNL     1     -13.063  24.285  26.157  1.00  0.00     0.013 C 
HETATM   13  C20 UNL     1     -13.721  25.138  27.255  1.00  0.00     0.040 C 
HETATM   14  C21 UNL     1     -12.623  25.252  28.240  1.00  0.00     0.072 C 
HETATM   15  C22 UNL     1     -12.766  26.324  29.275  1.00  0.00     0.026 C 
HETATM   16  C23 UNL     1     -13.570  25.816  30.427  1.00  0.00     0.008 C 
HETATM   17  C24 UNL     1     -14.249  26.808  31.266  1.00  0.00     0.006 C 
HETATM   18  C25 UNL     1     -14.396  28.188  30.753  1.00  0.00    -0.004 C 
HETATM   19  C26 UNL     1     -15.844  28.351  30.312  1.00  0.00     0.037 C 
ENDROOT
BRANCH   1  20
HETATM   20  O2  UNL     1     -16.051  30.723  30.733  1.00  0.00    -0.356 OA
BRANCH  20  21
HETATM   21  C3  UNL     1     -17.257  31.187  31.193  1.00  0.00     0.263 C 
HETATM   22  O1  UNL     1     -18.358  30.632  30.548  1.00  0.00    -0.354 OA
HETATM   23  C2  UNL     1     -19.473  31.373  30.969  1.00  0.00     0.151 C 
HETATM   24  C1  UNL     1     -20.747  30.600  30.904  1.00  0.00     0.042 C 
HETATM   25  C29 UNL     1     -19.598  32.653  30.158  1.00  0.00     0.175 C 
HETATM   26  C28 UNL     1     -18.171  33.077  29.819  1.00  0.00     0.154 C 
HETATM   27  C27 UNL     1     -17.317  32.684  31.018  1.00  0.00     0.095 C 
BRANCH  25  28
HETATM   28  O8  UNL     1     -20.281  33.646  30.845  1.00  0.00    -0.390 OA
ATOM     29  H8  UNL     1     -19.769  34.442  30.930  1.00  0.00     0.210 HD
ENDBRANCH  25  28
BRANCH  26  30
HETATM   30  O7  UNL     1     -18.106  34.448  29.687  1.00  0.00    -0.393 OA
ATOM     31  H7  UNL     1     -17.956  34.643  28.770  1.00  0.00     0.210 HD
ENDBRANCH  26  30
ENDBRANCH  20  21
ENDBRANCH   1  20
BRANCH   8  32
HETATM   32  O3  UNL     1     -10.088  27.518  27.408  1.00  0.00    -0.395 OA
ATOM     33  H3  UNL     1      -9.387  26.992  27.044  1.00  0.00     0.210 HD
ENDBRANCH   8  32
BRANCH  14  34
HETATM   34  O6  UNL     1     -12.510  24.049  28.922  1.00  0.00    -0.389 OA
ATOM     35  H6  UNL     1     -13.289  23.507  28.878  1.00  0.00     0.210 HD
ENDBRANCH  14  34
BRANCH  11  36
HETATM   36  C15 UNL     1     -10.679  23.577  26.056  1.00  0.00    -0.045 A 
HETATM   37  C16 UNL     1      -9.609  23.586  25.268  1.00  0.00     0.087 A 
HETATM   38  C17 UNL     1      -8.918  22.322  25.364  1.00  0.00     0.283 A 
HETATM   39  O4  UNL     1      -7.861  21.934  24.774  1.00  0.00    -0.260 OA
HETATM   40  O5  UNL     1      -9.623  21.551  26.247  1.00  0.00    -0.314 OA
HETATM   41  C18 UNL     1     -10.753  22.245  26.683  1.00  0.00     0.213 A 
ENDBRANCH  11  36
TORSDOF 7
ENDMDL
