MODEL 9
REMARK VINA RESULT: -8.783472283      2.993      4.578
REMARK  7 active torsions:
REMARK  status: ('A' for Active; 'I' for Inactive)
REMARK    1  A    between atoms: C3_4  and  O2_5 
REMARK    2  A    between atoms: O2_5  and  C4_6 
REMARK    3  A    between atoms: C11_13  and  O3_14 
REMARK    4  A    between atoms: C14_18  and  C15_19 
REMARK    5  A    between atoms: C21_27  and  O6_28 
REMARK    6  A    between atoms: C28_36  and  O7_37 
REMARK    7  A    between atoms: C29_39  and  O8_40 
ROOT
HETATM    1  C4  UNL     1     -10.316  32.164  31.493  1.00  0.00     0.125 C 
HETATM    2  C5  UNL     1     -10.864  30.913  32.101  1.00  0.00     0.033 C 
HETATM    3  C6  UNL     1     -12.187  30.634  31.417  1.00  0.00     0.012 C 
HETATM    4  C7  UNL     1     -12.039  30.325  29.961  1.00  0.00    -0.036 C 
HETATM    5  C8  UNL     1     -13.437  30.231  29.384  1.00  0.00     0.016 C 
HETATM    6  C9  UNL     1     -11.342  29.027  29.667  1.00  0.00     0.003 C 
HETATM    7  C10 UNL     1     -11.878  27.854  30.370  1.00  0.00     0.038 C 
HETATM    8  C11 UNL     1     -12.225  26.645  29.625  1.00  0.00     0.130 C 
HETATM    9  C12 UNL     1     -11.596  26.399  28.287  1.00  0.00     0.021 C 
HETATM   10  C13 UNL     1     -12.637  26.212  27.216  1.00  0.00     0.022 C 
HETATM   11  C14 UNL     1     -10.665  25.229  28.291  1.00  0.00     0.030 C 
HETATM   12  C19 UNL     1      -9.244  25.752  28.321  1.00  0.00     0.013 C 
HETATM   13  C20 UNL     1      -9.428  27.257  28.578  1.00  0.00     0.040 C 
HETATM   14  C21 UNL     1     -10.693  27.529  27.861  1.00  0.00     0.072 C 
HETATM   15  C22 UNL     1     -11.389  28.812  28.198  1.00  0.00     0.026 C 
HETATM   16  C23 UNL     1     -10.834  29.924  27.370  1.00  0.00     0.008 C 
HETATM   17  C24 UNL     1     -10.985  31.289  27.884  1.00  0.00     0.006 C 
HETATM   18  C25 UNL     1     -11.350  31.474  29.306  1.00  0.00    -0.004 C 
HETATM   19  C26 UNL     1     -10.087  31.906  30.039  1.00  0.00     0.037 C 
ENDROOT
BRANCH   1  20
HETATM   20  O2  UNL     1     -11.146  33.223  31.768  1.00  0.00    -0.356 OA
BRANCH  20  21
HETATM   21  C3  UNL     1     -10.607  34.164  32.609  1.00  0.00     0.263 C 
HETATM   22  O1  UNL     1      -9.225  34.069  32.749  1.00  0.00    -0.354 OA
HETATM   23  C2  UNL     1      -8.878  34.932  33.799  1.00  0.00     0.151 C 
HETATM   24  C1  UNL     1      -7.478  35.436  33.702  1.00  0.00     0.042 C 
HETATM   25  C29 UNL     1      -9.096  34.252  35.141  1.00  0.00     0.175 C 
HETATM   26  C28 UNL     1     -10.291  33.321  34.951  1.00  0.00     0.154 C 
HETATM   27  C27 UNL     1     -11.228  34.026  33.977  1.00  0.00     0.095 C 
BRANCH  25  28
HETATM   28  O8  UNL     1      -9.314  35.166  36.163  1.00  0.00    -0.390 OA
ATOM     29  H8  UNL     1      -8.610  35.166  36.801  1.00  0.00     0.210 HD
ENDBRANCH  25  28
BRANCH  26  30
HETATM   30  O7  UNL     1     -10.964  33.168  36.144  1.00  0.00    -0.393 OA
ATOM     31  H7  UNL     1     -10.317  33.128  36.838  1.00  0.00     0.210 HD
ENDBRANCH  26  30
ENDBRANCH  20  21
ENDBRANCH   1  20
BRANCH   8  32
HETATM   32  O3  UNL     1     -13.602  26.465  29.493  1.00  0.00    -0.395 OA
ATOM     33  H3  UNL     1     -13.878  25.577  29.683  1.00  0.00     0.210 HD
ENDBRANCH   8  32
BRANCH  14  34
HETATM   34  O6  UNL     1     -10.436  27.559  26.498  1.00  0.00    -0.389 OA
ATOM     35  H6  UNL     1      -9.974  28.338  26.211  1.00  0.00     0.210 HD
ENDBRANCH  14  34
BRANCH  11  36
HETATM   36  C15 UNL     1     -10.867  24.227  27.208  1.00  0.00    -0.045 A 
HETATM   37  C16 UNL     1     -10.014  24.036  26.208  1.00  0.00     0.087 A 
HETATM   38  C17 UNL     1     -10.505  22.996  25.335  1.00  0.00     0.283 A 
HETATM   39  O4  UNL     1      -9.988  22.522  24.276  1.00  0.00    -0.260 OA
HETATM   40  O5  UNL     1     -11.696  22.570  25.857  1.00  0.00    -0.314 OA
HETATM   41  C18 UNL     1     -12.008  23.319  26.993  1.00  0.00     0.213 A 
ENDBRANCH  11  36
TORSDOF 7
ENDMDL
