MODEL 8
REMARK VINA RESULT: -8.980898148      3.248      4.257
REMARK  7 active torsions:
REMARK  status: ('A' for Active; 'I' for Inactive)
REMARK    1  A    between atoms: C3_4  and  O2_5 
REMARK    2  A    between atoms: O2_5  and  C4_6 
REMARK    3  A    between atoms: C11_13  and  O3_14 
REMARK    4  A    between atoms: C14_18  and  C15_19 
REMARK    5  A    between atoms: C21_27  and  O6_28 
REMARK    6  A    between atoms: C28_36  and  O7_37 
REMARK    7  A    between atoms: C29_39  and  O8_40 
ROOT
HETATM    1  C4  UNL     1     -16.121  29.955  29.844  1.00  0.00     0.125 C 
HETATM    2  C5  UNL     1     -15.181  30.203  28.710  1.00  0.00     0.033 C 
HETATM    3  C6  UNL     1     -13.777  30.119  29.274  1.00  0.00     0.012 C 
HETATM    4  C7  UNL     1     -13.429  28.753  29.776  1.00  0.00    -0.036 C 
HETATM    5  C8  UNL     1     -12.077  28.861  30.450  1.00  0.00     0.016 C 
HETATM    6  C9  UNL     1     -13.317  27.706  28.704  1.00  0.00     0.003 C 
HETATM    7  C10 UNL     1     -12.445  28.056  27.575  1.00  0.00     0.038 C 
HETATM    8  C11 UNL     1     -11.396  27.135  27.143  1.00  0.00     0.130 C 
HETATM    9  C12 UNL     1     -11.510  25.678  27.480  1.00  0.00     0.021 C 
HETATM   10  C13 UNL     1     -10.304  25.192  28.238  1.00  0.00     0.022 C 
HETATM   11  C14 UNL     1     -11.723  24.820  26.274  1.00  0.00     0.030 C 
HETATM   12  C19 UNL     1     -13.184  24.426  26.222  1.00  0.00     0.013 C 
HETATM   13  C20 UNL     1     -13.823  25.298  27.316  1.00  0.00     0.040 C 
HETATM   14  C21 UNL     1     -12.731  25.376  28.311  1.00  0.00     0.072 C 
HETATM   15  C22 UNL     1     -12.847  26.451  29.346  1.00  0.00     0.026 C 
HETATM   16  C23 UNL     1     -13.678  25.969  30.490  1.00  0.00     0.008 C 
HETATM   17  C24 UNL     1     -14.332  26.981  31.325  1.00  0.00     0.006 C 
HETATM   18  C25 UNL     1     -14.429  28.365  30.812  1.00  0.00    -0.004 C 
HETATM   19  C26 UNL     1     -15.868  28.575  30.359  1.00  0.00     0.037 C 
ENDROOT
BRANCH   1  20
HETATM   20  O2  UNL     1     -16.001  30.952  30.781  1.00  0.00    -0.356 OA
BRANCH  20  21
HETATM   21  C3  UNL     1     -17.051  31.835  30.809  1.00  0.00     0.263 C 
HETATM   22  O1  UNL     1     -17.418  32.234  32.091  1.00  0.00    -0.354 OA
HETATM   23  C2  UNL     1     -18.627  32.933  31.952  1.00  0.00     0.151 C 
HETATM   24  C1  UNL     1     -18.853  33.929  33.039  1.00  0.00     0.042 C 
HETATM   25  C29 UNL     1     -19.797  31.965  31.880  1.00  0.00     0.175 C 
HETATM   26  C28 UNL     1     -19.266  30.716  31.181  1.00  0.00     0.154 C 
HETATM   27  C27 UNL     1     -18.254  31.203  30.151  1.00  0.00     0.095 C 
BRANCH  25  28
HETATM   28  O8  UNL     1     -20.886  32.506  31.209  1.00  0.00    -0.390 OA
ATOM     29  H8  UNL     1     -20.723  33.395  30.917  1.00  0.00     0.210 HD
ENDBRANCH  25  28
BRANCH  26  30
HETATM   30  O7  UNL     1     -20.287  30.086  30.501  1.00  0.00    -0.393 OA
ATOM     31  H7  UNL     1     -20.601  30.683  29.833  1.00  0.00     0.210 HD
ENDBRANCH  26  30
ENDBRANCH  20  21
ENDBRANCH   1  20
BRANCH   8  32
HETATM   32  O3  UNL     1     -10.116  27.560  27.504  1.00  0.00    -0.395 OA
ATOM     33  H3  UNL     1      -9.518  27.595  26.768  1.00  0.00     0.210 HD
ENDBRANCH   8  32
BRANCH  14  34
HETATM   34  O6  UNL     1     -12.662  24.169  28.992  1.00  0.00    -0.389 OA
ATOM     35  H6  UNL     1     -12.199  24.221  29.820  1.00  0.00     0.210 HD
ENDBRANCH  14  34
BRANCH  11  36
HETATM   36  C15 UNL     1     -10.822  23.642  26.141  1.00  0.00    -0.045 A 
HETATM   37  C16 UNL     1      -9.737  23.622  25.376  1.00  0.00     0.087 A 
HETATM   38  C17 UNL     1      -9.091  22.334  25.472  1.00  0.00     0.283 A 
HETATM   39  O4  UNL     1      -8.035  21.918  24.900  1.00  0.00    -0.260 OA
HETATM   40  O5  UNL     1      -9.839  21.578  26.332  1.00  0.00    -0.314 OA
HETATM   41  C18 UNL     1     -10.954  22.306  26.752  1.00  0.00     0.213 A 
ENDBRANCH  11  36
TORSDOF 7
ENDMDL
