MODEL 14
REMARK VINA RESULT: -8.350199954      1.847      3.304
REMARK  7 active torsions:
REMARK  status: ('A' for Active; 'I' for Inactive)
REMARK    1  A    between atoms: C3_4  and  O2_5 
REMARK    2  A    between atoms: O2_5  and  C4_6 
REMARK    3  A    between atoms: C11_13  and  O3_14 
REMARK    4  A    between atoms: C14_18  and  C15_19 
REMARK    5  A    between atoms: C21_27  and  O6_28 
REMARK    6  A    between atoms: C28_36  and  O7_37 
REMARK    7  A    between atoms: C29_39  and  O8_40 
ROOT
HETATM    1  C4  UNL     1     -10.494  32.256  31.271  1.00  0.00     0.125 C 
HETATM    2  C5  UNL     1     -11.033  31.016  31.908  1.00  0.00     0.033 C 
HETATM    3  C6  UNL     1     -12.335  30.690  31.204  1.00  0.00     0.012 C 
HETATM    4  C7  UNL     1     -12.147  30.335  29.763  1.00  0.00    -0.036 C 
HETATM    5  C8  UNL     1     -13.529  30.196  29.158  1.00  0.00     0.016 C 
HETATM    6  C9  UNL     1     -11.419  29.042  29.529  1.00  0.00     0.003 C 
HETATM    7  C10 UNL     1     -11.951  27.883  30.258  1.00  0.00     0.038 C 
HETATM    8  C11 UNL     1     -12.258  26.644  29.547  1.00  0.00     0.130 C 
HETATM    9  C12 UNL     1     -11.594  26.365  28.232  1.00  0.00     0.021 C 
HETATM   10  C13 UNL     1     -12.605  26.123  27.145  1.00  0.00     0.022 C 
HETATM   11  C14 UNL     1     -10.642  25.213  28.297  1.00  0.00     0.030 C 
HETATM   12  C19 UNL     1      -9.232  25.763  28.343  1.00  0.00     0.013 C 
HETATM   13  C20 UNL     1      -9.449  27.273  28.544  1.00  0.00     0.040 C 
HETATM   14  C21 UNL     1     -10.702  27.496  27.790  1.00  0.00     0.072 C 
HETATM   15  C22 UNL     1     -11.428  28.776  28.067  1.00  0.00     0.026 C 
HETATM   16  C23 UNL     1     -10.874  29.871  27.215  1.00  0.00     0.008 C 
HETATM   17  C24 UNL     1     -11.062  31.249  27.679  1.00  0.00     0.006 C 
HETATM   18  C25 UNL     1     -11.463  31.474  29.085  1.00  0.00    -0.004 C 
HETATM   19  C26 UNL     1     -10.226  31.955  29.832  1.00  0.00     0.037 C 
ENDROOT
BRANCH   1  20
HETATM   20  O2  UNL     1     -11.349  33.308  31.491  1.00  0.00    -0.356 OA
BRANCH  20  21
HETATM   21  C3  UNL     1     -10.873  34.524  31.071  1.00  0.00     0.263 C 
HETATM   22  O1  UNL     1     -10.445  35.350  32.107  1.00  0.00    -0.354 OA
HETATM   23  C2  UNL     1     -10.216  36.610  31.533  1.00  0.00     0.151 C 
HETATM   24  C1  UNL     1      -9.213  37.419  32.283  1.00  0.00     0.042 C 
HETATM   25  C29 UNL     1     -11.520  37.383  31.407  1.00  0.00     0.175 C 
HETATM   26  C28 UNL     1     -12.604  36.338  31.153  1.00  0.00     0.154 C 
HETATM   27  C27 UNL     1     -11.954  35.249  30.309  1.00  0.00     0.095 C 
BRANCH  25  28
HETATM   28  O8  UNL     1     -11.472  38.332  30.396  1.00  0.00    -0.390 OA
ATOM     29  H8  UNL     1     -10.821  39.002  30.562  1.00  0.00     0.210 HD
ENDBRANCH  25  28
BRANCH  26  30
HETATM   30  O7  UNL     1     -13.626  36.891  30.412  1.00  0.00    -0.393 OA
ATOM     31  H7  UNL     1     -13.749  37.785  30.709  1.00  0.00     0.210 HD
ENDBRANCH  26  30
ENDBRANCH  20  21
ENDBRANCH   1  20
BRANCH   8  32
HETATM   32  O3  UNL     1     -13.629  26.433  29.389  1.00  0.00    -0.395 OA
ATOM     33  H3  UNL     1     -13.946  26.691  28.532  1.00  0.00     0.210 HD
ENDBRANCH   8  32
BRANCH  14  34
HETATM   34  O6  UNL     1     -10.413  27.486  26.433  1.00  0.00    -0.389 OA
ATOM     35  H6  UNL     1      -9.486  27.561  26.236  1.00  0.00     0.210 HD
ENDBRANCH  14  34
BRANCH  11  36
HETATM   36  C15 UNL     1     -10.801  24.172  27.245  1.00  0.00    -0.045 A 
HETATM   37  C16 UNL     1     -10.016  24.073  26.178  1.00  0.00     0.087 A 
HETATM   38  C17 UNL     1     -10.438  22.962  25.358  1.00  0.00     0.283 A 
HETATM   39  O4  UNL     1      -9.952  22.537  24.263  1.00  0.00    -0.260 OA
HETATM   40  O5  UNL     1     -11.515  22.395  25.983  1.00  0.00    -0.314 OA
HETATM   41  C18 UNL     1     -11.827  23.120  27.135  1.00  0.00     0.213 A 
ENDBRANCH  11  36
TORSDOF 7
ENDMDL
