MODEL 7
REMARK VINA RESULT: -5.915151313      2.050      4.654
REMARK  5 active torsions:
REMARK  status: ('A' for Active; 'I' for Inactive)
REMARK    1  A    between atoms: C1_2  and  C2_4 
REMARK    2  A    between atoms: C2_4  and  O3_5 
REMARK    3  A    between atoms: C2_4  and  C3_7 
REMARK    4  A    between atoms: C3_7  and  O4_8 
REMARK    5  A    between atoms: O4_8  and  P1_9 
ROOT
HETATM    1  C2  UNL     1      47.163  15.006 -10.831  1.00  0.00     0.243 C 
ENDROOT
BRANCH   1   2
HETATM    2  C1  UNL     1      46.514  15.260  -9.502  1.00  0.00     0.205 C 
HETATM    3  O1  UNL     1      45.287  15.177  -9.317  1.00  0.00    -0.646 OA
HETATM    4  O2  UNL     1      47.312  15.607  -8.416  1.00  0.00    -0.646 OA
ENDBRANCH   1   2
BRANCH   1   5
HETATM    5  O3  UNL     1      47.135  13.629 -11.027  1.00  0.00    -0.383 OA
ATOM      6  H3  UNL     1      47.972  13.394 -11.408  1.00  0.00     0.210 HD
ENDBRANCH   1   5
BRANCH   1   7
HETATM    7  C3  UNL     1      48.564  15.502 -10.755  1.00  0.00     0.225 C 
BRANCH   7   8
HETATM    8  O4  UNL     1      48.992  16.161 -11.880  1.00  0.00    -0.280 OA
BRANCH   8   9
HETATM    9  P1  UNL     1      47.959  16.717 -12.948  1.00  0.00     0.422 P 
HETATM   10  O5  UNL     1      47.435  15.734 -14.256  1.00  0.00    -0.617 OA
HETATM   11  O6  UNL     1      48.986  17.333 -13.911  1.00  0.00    -0.617 OA
HETATM   12  O7  UNL     1      47.224  18.194 -12.792  1.00  0.00    -0.617 OA
ENDBRANCH   8   9
ENDBRANCH   7   8
ENDBRANCH   1   7
TORSDOF 5
ENDMDL
