MODEL 13
REMARK VINA RESULT: -5.734285963      1.318      1.931
REMARK  5 active torsions:
REMARK  status: ('A' for Active; 'I' for Inactive)
REMARK    1  A    between atoms: C1_2  and  C2_4 
REMARK    2  A    between atoms: C2_4  and  O3_5 
REMARK    3  A    between atoms: C2_4  and  C3_7 
REMARK    4  A    between atoms: C3_7  and  O4_8 
REMARK    5  A    between atoms: O4_8  and  P1_9 
ROOT
HETATM    1  C2  UNL     1      47.655  16.954 -11.808  1.00  0.00     0.243 C 
ENDROOT
BRANCH   1   2
HETATM    2  C1  UNL     1      47.694  17.091 -13.301  1.00  0.00     0.205 C 
HETATM    3  O1  UNL     1      46.689  16.966 -14.023  1.00  0.00    -0.646 OA
HETATM    4  O2  UNL     1      48.908  17.372 -13.922  1.00  0.00    -0.646 OA
ENDBRANCH   1   2
BRANCH   1   5
HETATM    5  O3  UNL     1      47.905  18.220 -11.288  1.00  0.00    -0.383 OA
ATOM      6  H3  UNL     1      47.114  18.487 -10.837  1.00  0.00     0.210 HD
ENDBRANCH   1   5
BRANCH   1   7
HETATM    7  C3  UNL     1      48.724  15.997 -11.411  1.00  0.00     0.225 C 
BRANCH   7   8
HETATM    8  O4  UNL     1      48.268  14.877 -10.763  1.00  0.00    -0.280 OA
BRANCH   8   9
HETATM    9  P1  UNL     1      47.216  14.984  -9.580  1.00  0.00     0.422 P 
HETATM   10  O5  UNL     1      47.691  15.562  -8.034  1.00  0.00    -0.617 OA
HETATM   11  O6  UNL     1      47.396  13.561  -9.029  1.00  0.00    -0.617 OA
HETATM   12  O7  UNL     1      45.599  14.692  -9.796  1.00  0.00    -0.617 OA
ENDBRANCH   8   9
ENDBRANCH   7   8
ENDBRANCH   1   7
TORSDOF 5
ENDMDL
