MODEL 3
REMARK VINA RESULT: -6.064224769      1.985      4.797
REMARK  5 active torsions:
REMARK  status: ('A' for Active; 'I' for Inactive)
REMARK    1  A    between atoms: C1_2  and  C2_4 
REMARK    2  A    between atoms: C2_4  and  O3_5 
REMARK    3  A    between atoms: C2_4  and  C3_7 
REMARK    4  A    between atoms: C3_7  and  O4_8 
REMARK    5  A    between atoms: O4_8  and  P1_9 
ROOT
HETATM    1  C2  UNL     1      46.593  14.351  -9.949  1.00  0.00     0.243 C 
ENDROOT
BRANCH   1   2
HETATM    2  C1  UNL     1      46.519  15.097  -8.650  1.00  0.00     0.205 C 
HETATM    3  O1  UNL     1      45.453  15.303  -8.044  1.00  0.00    -0.646 OA
HETATM    4  O2  UNL     1      47.693  15.587  -8.085  1.00  0.00    -0.646 OA
ENDBRANCH   1   2
BRANCH   1   5
HETATM    5  O3  UNL     1      47.134  13.103  -9.658  1.00  0.00    -0.383 OA
ATOM      6  H3  UNL     1      46.426  12.476  -9.743  1.00  0.00     0.210 HD
ENDBRANCH   1   5
BRANCH   1   7
HETATM    7  C3  UNL     1      47.484  15.116 -10.864  1.00  0.00     0.225 C 
BRANCH   7   8
HETATM    8  O4  UNL     1      47.069  16.398 -11.118  1.00  0.00    -0.280 OA
BRANCH   8   9
HETATM    9  P1  UNL     1      47.821  17.308 -12.178  1.00  0.00     0.422 P 
HETATM   10  O5  UNL     1      47.346  18.940 -12.427  1.00  0.00    -0.617 OA
HETATM   11  O6  UNL     1      46.959  16.942 -13.396  1.00  0.00    -0.617 OA
HETATM   12  O7  UNL     1      49.175  16.800 -12.988  1.00  0.00    -0.617 OA
ENDBRANCH   8   9
ENDBRANCH   7   8
ENDBRANCH   1   7
TORSDOF 5
ENDMDL
