MODEL 6
REMARK VINA RESULT: -5.969157764      2.014      4.790
REMARK  5 active torsions:
REMARK  status: ('A' for Active; 'I' for Inactive)
REMARK    1  A    between atoms: C1_2  and  C2_4 
REMARK    2  A    between atoms: C2_4  and  O3_5 
REMARK    3  A    between atoms: C2_4  and  C3_7 
REMARK    4  A    between atoms: C3_7  and  O4_8 
REMARK    5  A    between atoms: O4_8  and  P1_9 
ROOT
HETATM    1  C2  UNL     1      46.907  15.194  -9.830  1.00  0.00     0.243 C 
ENDROOT
BRANCH   1   2
HETATM    2  C1  UNL     1      47.783  14.371  -8.932  1.00  0.00     0.205 C 
HETATM    3  O1  UNL     1      48.592  13.528  -9.357  1.00  0.00    -0.646 OA
HETATM    4  O2  UNL     1      47.696  14.550  -7.554  1.00  0.00    -0.646 OA
ENDBRANCH   1   2
BRANCH   1   5
HETATM    5  O3  UNL     1      46.266  14.300 -10.682  1.00  0.00    -0.383 OA
ATOM      6  H3  UNL     1      45.381  14.201 -10.352  1.00  0.00     0.210 HD
ENDBRANCH   1   5
BRANCH   1   7
HETATM    7  C3  UNL     1      47.783  16.121 -10.596  1.00  0.00     0.225 C 
BRANCH   7   8
HETATM    8  O4  UNL     1      47.130  16.860 -11.549  1.00  0.00    -0.280 OA
BRANCH   8   9
HETATM    9  P1  UNL     1      47.578  16.817 -13.070  1.00  0.00     0.422 P 
HETATM   10  O5  UNL     1      46.416  16.642 -14.322  1.00  0.00    -0.617 OA
HETATM   11  O6  UNL     1      47.806  15.300 -13.163  1.00  0.00    -0.617 OA
HETATM   12  O7  UNL     1      49.144  17.077 -13.545  1.00  0.00    -0.617 OA
ENDBRANCH   8   9
ENDBRANCH   7   8
ENDBRANCH   1   7
TORSDOF 5
ENDMDL
