MODEL 5
REMARK VINA RESULT: -6.009029951      1.965      4.707
REMARK  5 active torsions:
REMARK  status: ('A' for Active; 'I' for Inactive)
REMARK    1  A    between atoms: C1_2  and  C2_4 
REMARK    2  A    between atoms: C2_4  and  O3_5 
REMARK    3  A    between atoms: C2_4  and  C3_7 
REMARK    4  A    between atoms: C3_7  and  O4_8 
REMARK    5  A    between atoms: O4_8  and  P1_9 
ROOT
HETATM    1  C2  UNL     1      47.246  13.934  -9.581  1.00  0.00     0.243 C 
ENDROOT
BRANCH   1   2
HETATM    2  C1  UNL     1      46.914  15.024  -8.606  1.00  0.00     0.205 C 
HETATM    3  O1  UNL     1      47.769  15.782  -8.116  1.00  0.00    -0.646 OA
HETATM    4  O2  UNL     1      45.588  15.206  -8.222  1.00  0.00    -0.646 OA
ENDBRANCH   1   2
BRANCH   1   5
HETATM    5  O3  UNL     1      48.570  13.580  -9.342  1.00  0.00    -0.383 OA
ATOM      6  H3  UNL     1      48.910  14.214  -8.722  1.00  0.00     0.210 HD
ENDBRANCH   1   5
BRANCH   1   7
HETATM    7  C3  UNL     1      47.085  14.486 -10.954  1.00  0.00     0.225 C 
BRANCH   7   8
HETATM    8  O4  UNL     1      48.145  15.241 -11.388  1.00  0.00    -0.280 OA
BRANCH   8   9
HETATM    9  P1  UNL     1      47.925  16.692 -11.994  1.00  0.00     0.422 P 
HETATM   10  O5  UNL     1      46.992  16.914 -13.418  1.00  0.00    -0.617 OA
HETATM   11  O6  UNL     1      49.175  16.721 -12.888  1.00  0.00    -0.617 OA
HETATM   12  O7  UNL     1      48.446  18.065 -11.228  1.00  0.00    -0.617 OA
ENDBRANCH   8   9
ENDBRANCH   7   8
ENDBRANCH   1   7
TORSDOF 5
ENDMDL
