MODEL 1
REMARK VINA RESULT: -6.256213605      0.000      0.000
REMARK  5 active torsions:
REMARK  status: ('A' for Active; 'I' for Inactive)
REMARK    1  A    between atoms: C1_2  and  C2_4 
REMARK    2  A    between atoms: C2_4  and  O3_5 
REMARK    3  A    between atoms: C2_4  and  C3_7 
REMARK    4  A    between atoms: C3_7  and  O4_8 
REMARK    5  A    between atoms: O4_8  and  P1_9 
ROOT
HETATM    1  C2  UNL     1      47.850  16.590 -12.542  1.00  0.00     0.243 C 
ENDROOT
BRANCH   1   2
HETATM    2  C1  UNL     1      47.131  15.727 -13.536  1.00  0.00     0.205 C 
HETATM    3  O1  UNL     1      46.269  16.164 -14.318  1.00  0.00    -0.646 OA
HETATM    4  O2  UNL     1      47.433  14.370 -13.596  1.00  0.00    -0.646 OA
ENDBRANCH   1   2
BRANCH   1   5
HETATM    5  O3  UNL     1      49.065  16.935 -13.124  1.00  0.00    -0.383 OA
ATOM      6  H3  UNL     1      49.340  17.746 -12.714  1.00  0.00     0.210 HD
ENDBRANCH   1   5
BRANCH   1   7
HETATM    7  C3  UNL     1      48.063  15.784 -11.309  1.00  0.00     0.225 C 
BRANCH   7   8
HETATM    8  O4  UNL     1      47.208  16.087 -10.279  1.00  0.00    -0.280 OA
BRANCH   8   9
HETATM    9  P1  UNL     1      46.860  15.017  -9.161  1.00  0.00     0.422 P 
HETATM   10  O5  UNL     1      45.539  15.263  -8.092  1.00  0.00    -0.617 OA
HETATM   11  O6  UNL     1      47.770  15.584  -8.059  1.00  0.00    -0.617 OA
HETATM   12  O7  UNL     1      47.641  13.560  -9.049  1.00  0.00    -0.617 OA
ENDBRANCH   8   9
ENDBRANCH   7   8
ENDBRANCH   1   7
TORSDOF 5
ENDMDL
