MODEL 16
REMARK VINA RESULT: -5.588710186      1.174      2.210
REMARK  5 active torsions:
REMARK  status: ('A' for Active; 'I' for Inactive)
REMARK    1  A    between atoms: C1_2  and  C2_4 
REMARK    2  A    between atoms: C2_4  and  O3_5 
REMARK    3  A    between atoms: C2_4  and  C3_7 
REMARK    4  A    between atoms: C3_7  and  O4_8 
REMARK    5  A    between atoms: O4_8  and  P1_9 
ROOT
HETATM    1  C2  UNL     1      47.614  15.611 -13.204  1.00  0.00     0.243 C 
ENDROOT
BRANCH   1   2
HETATM    2  C1  UNL     1      47.049  16.782 -13.951  1.00  0.00     0.205 C 
HETATM    3  O1  UNL     1      47.469  17.945 -13.812  1.00  0.00    -0.646 OA
HETATM    4  O2  UNL     1      46.004  16.573 -14.846  1.00  0.00    -0.646 OA
ENDBRANCH   1   2
BRANCH   1   5
HETATM    5  O3  UNL     1      46.633  14.624 -13.216  1.00  0.00    -0.383 OA
ATOM      6  H3  UNL     1      46.949  13.924 -12.657  1.00  0.00     0.210 HD
ENDBRANCH   1   5
BRANCH   1   7
HETATM    7  C3  UNL     1      47.904  16.054 -11.813  1.00  0.00     0.225 C 
BRANCH   7   8
HETATM    8  O4  UNL     1      48.422  15.076 -11.003  1.00  0.00    -0.280 OA
BRANCH   8   9
HETATM    9  P1  UNL     1      47.712  14.677  -9.642  1.00  0.00     0.422 P 
HETATM   10  O5  UNL     1      47.316  13.040  -9.305  1.00  0.00    -0.617 OA
HETATM   11  O6  UNL     1      46.262  14.859 -10.118  1.00  0.00    -0.617 OA
HETATM   12  O7  UNL     1      47.445  15.768  -8.424  1.00  0.00    -0.617 OA
ENDBRANCH   8   9
ENDBRANCH   7   8
ENDBRANCH   1   7
TORSDOF 5
ENDMDL
