MODEL 10
REMARK VINA RESULT: -6.168499306      3.081      4.737
REMARK  4 active torsions:
REMARK  status: ('A' for Active; 'I' for Inactive)
REMARK    1  A    between atoms: C1_2  and  C2_3 
REMARK       I    between atoms: C1_2  and  N1_9 
REMARK    2  A    between atoms: C2_3  and  O2_4 
REMARK    3  A    between atoms: O2_4  and  P1_5 
REMARK    4  A    between atoms: N1_9  and  O6_11 
ROOT
HETATM    1  O1  UNL     1      83.499 -12.481  65.466  1.00  0.00    -0.269 OA
HETATM    2  C1  UNL     1      83.900 -13.456  66.191  1.00  0.00     0.265 C 
HETATM    3  N1  UNL     1      84.404 -13.135  67.468  1.00  0.00    -0.236 N 
ATOM      4  H1  UNL     1      84.737 -13.876  68.085  1.00  0.00     0.197 HD
ENDROOT
BRANCH   2   5
HETATM    5  C2  UNL     1      83.794 -14.790  65.627  1.00  0.00     0.287 C 
BRANCH   5   6
HETATM    6  O2  UNL     1      82.473 -15.120  65.323  1.00  0.00    -0.273 OA
BRANCH   6   7
HETATM    7  P1  UNL     1      82.243 -15.779  63.953  1.00  0.00     0.422 P 
HETATM    8  O3  UNL     1      81.977 -16.361  62.557  1.00  0.00    -0.617 OA
HETATM    9  O4  UNL     1      83.867 -15.745  63.692  1.00  0.00    -0.617 OA
HETATM   10  O5  UNL     1      81.617 -17.123  64.675  1.00  0.00    -0.617 OA
ENDBRANCH   6   7
ENDBRANCH   5   6
ENDBRANCH   2   5
BRANCH   3  11
HETATM   11  O6  UNL     1      84.447 -11.855  67.873  1.00  0.00    -0.287 OA
ATOM     12  H6  UNL     1      83.653 -11.334  67.890  1.00  0.00     0.244 HD
ENDBRANCH   3  11
TORSDOF 4
ENDMDL
