MODEL 3
REMARK VINA RESULT: -6.388422765      0.830      1.606
REMARK  4 active torsions:
REMARK  status: ('A' for Active; 'I' for Inactive)
REMARK    1  A    between atoms: C1_2  and  C2_3 
REMARK       I    between atoms: C1_2  and  N1_9 
REMARK    2  A    between atoms: C2_3  and  O2_4 
REMARK    3  A    between atoms: O2_4  and  P1_5 
REMARK    4  A    between atoms: N1_9  and  O6_11 
ROOT
HETATM    1  O1  UNL     1      85.525 -15.548  64.614  1.00  0.00    -0.269 OA
HETATM    2  C1  UNL     1      86.267 -15.522  65.656  1.00  0.00     0.265 C 
HETATM    3  N1  UNL     1      87.381 -16.386  65.668  1.00  0.00    -0.236 N 
ATOM      4  H1  UNL     1      88.003 -16.404  66.477  1.00  0.00     0.197 HD
ENDROOT
BRANCH   2   5
HETATM    5  C2  UNL     1      85.886 -14.607  66.718  1.00  0.00     0.287 C 
BRANCH   5   6
HETATM    6  O2  UNL     1      85.547 -13.348  66.219  1.00  0.00    -0.273 OA
BRANCH   6   7
HETATM    7  P1  UNL     1      84.087 -12.914  66.429  1.00  0.00     0.422 P 
HETATM    8  O3  UNL     1      82.615 -12.555  66.686  1.00  0.00    -0.617 OA
HETATM    9  O4  UNL     1      84.613 -11.715  67.426  1.00  0.00    -0.617 OA
HETATM   10  O5  UNL     1      83.934 -12.558  64.826  1.00  0.00    -0.617 OA
ENDBRANCH   6   7
ENDBRANCH   5   6
ENDBRANCH   2   5
BRANCH   3  11
HETATM   11  O6  UNL     1      87.623 -17.186  64.618  1.00  0.00    -0.287 OA
ATOM     12  H6  UNL     1      87.411 -18.111  64.664  1.00  0.00     0.244 HD
ENDBRANCH   3  11
TORSDOF 4
ENDMDL
