MODEL 1
REMARK VINA RESULT: -6.973500037      0.000      0.000
REMARK  4 active torsions:
REMARK  status: ('A' for Active; 'I' for Inactive)
REMARK    1  A    between atoms: C1_2  and  C2_3 
REMARK       I    between atoms: C1_2  and  N1_9 
REMARK    2  A    between atoms: C2_3  and  O2_4 
REMARK    3  A    between atoms: O2_4  and  P1_5 
REMARK    4  A    between atoms: N1_9  and  O6_11 
ROOT
HETATM    1  O1  UNL     1      85.475 -15.550  64.491  1.00  0.00    -0.269 OA
HETATM    2  C1  UNL     1      86.090 -15.542  65.612  1.00  0.00     0.265 C 
HETATM    3  N1  UNL     1      87.234 -16.361  65.718  1.00  0.00    -0.236 N 
ATOM      4  H1  UNL     1      87.760 -16.391  66.592  1.00  0.00     0.197 HD
ENDROOT
BRANCH   2   5
HETATM    5  C2  UNL     1      85.550 -14.694  66.660  1.00  0.00     0.287 C 
BRANCH   5   6
HETATM    6  O2  UNL     1      84.396 -14.029  66.243  1.00  0.00    -0.273 OA
BRANCH   6   7
HETATM    7  P1  UNL     1      84.459 -12.493  66.268  1.00  0.00     0.422 P 
HETATM    8  O3  UNL     1      84.602 -10.963  66.253  1.00  0.00    -0.617 OA
HETATM    9  O4  UNL     1      83.274 -12.450  65.127  1.00  0.00    -0.617 OA
HETATM   10  O5  UNL     1      83.993 -12.473  67.850  1.00  0.00    -0.617 OA
ENDBRANCH   6   7
ENDBRANCH   5   6
ENDBRANCH   2   5
BRANCH   3  11
HETATM   11  O6  UNL     1      87.631 -17.101  64.670  1.00  0.00    -0.287 OA
ATOM     12  H6  UNL     1      88.091 -17.920  64.813  1.00  0.00     0.244 HD
ENDBRANCH   3  11
TORSDOF 4
ENDMDL
