MODEL 6
REMARK VINA RESULT: -6.340594373      1.433      1.786
REMARK  4 active torsions:
REMARK  status: ('A' for Active; 'I' for Inactive)
REMARK    1  A    between atoms: C1_2  and  C2_3 
REMARK       I    between atoms: C1_2  and  N1_9 
REMARK    2  A    between atoms: C2_3  and  O2_4 
REMARK    3  A    between atoms: O2_4  and  P1_5 
REMARK    4  A    between atoms: N1_9  and  O6_11 
ROOT
HETATM    1  O1  UNL     1      84.348 -16.329  64.342  1.00  0.00    -0.269 OA
HETATM    2  C1  UNL     1      84.801 -15.189  64.706  1.00  0.00     0.265 C 
HETATM    3  N1  UNL     1      86.173 -15.120  65.024  1.00  0.00    -0.236 N 
ATOM      4  H1  UNL     1      86.583 -14.234  65.320  1.00  0.00     0.197 HD
ENDROOT
BRANCH   2   5
HETATM    5  C2  UNL     1      83.858 -14.086  64.754  1.00  0.00     0.287 C 
BRANCH   5   6
HETATM    6  O2  UNL     1      84.482 -12.887  65.101  1.00  0.00    -0.273 OA
BRANCH   6   7
HETATM    7  P1  UNL     1      84.361 -12.468  66.575  1.00  0.00     0.422 P 
HETATM    8  O3  UNL     1      84.315 -12.094  68.065  1.00  0.00    -0.617 OA
HETATM    9  O4  UNL     1      84.714 -10.921  66.140  1.00  0.00    -0.617 OA
HETATM   10  O5  UNL     1      82.772 -12.908  66.598  1.00  0.00    -0.617 OA
ENDBRANCH   6   7
ENDBRANCH   5   6
ENDBRANCH   2   5
BRANCH   3  11
HETATM   11  O6  UNL     1      86.941 -16.218  64.938  1.00  0.00    -0.287 OA
ATOM     12  H6  UNL     1      87.558 -16.423  65.630  1.00  0.00     0.244 HD
ENDBRANCH   3  11
TORSDOF 4
ENDMDL
