MODEL 1
REMARK VINA RESULT: -7.604030164      0.000      0.000
REMARK  13 active torsions:
REMARK  status: ('A' for Active; 'I' for Inactive)
REMARK    1  A    between atoms: O1_2  and  C2_3 
REMARK    2  A    between atoms: C2_3  and  C3_4 
REMARK    3  A    between atoms: C3_4  and  O2_5 
REMARK    4  A    between atoms: O2_5  and  C4_6 
REMARK    5  A    between atoms: C4_6  and  C5_7 
REMARK    6  A    between atoms: C5_7  and  O3_8 
REMARK    7  A    between atoms: O3_8  and  C6_9 
REMARK    8  A    between atoms: C6_9  and  C7_10 
REMARK    9  A    between atoms: C7_10  and  O4_11 
REMARK   10  A    between atoms: O4_11  and  C8_12 
REMARK   11  A    between atoms: C11_15  and  C12_16 
REMARK   12  A    between atoms: C12_16  and  C15_19 
REMARK   13  A    between atoms: C15_19  and  C16_20 
ROOT
HETATM    1  C8  UNL     1      30.544  33.013  14.682  1.00  0.00     0.068 A 
HETATM    2  C9  UNL     1      29.220  32.624  14.678  1.00  0.00     0.037 A 
HETATM    3  C10 UNL     1      28.866  31.307  14.553  1.00  0.00     0.011 A 
HETATM    4  C11 UNL     1      29.814  30.315  14.425  1.00  0.00    -0.050 A 
HETATM    5  C20 UNL     1      31.138  30.690  14.425  1.00  0.00     0.011 A 
HETATM    6  C21 UNL     1      31.490  32.036  14.553  1.00  0.00     0.037 A 
ENDROOT
BRANCH   1   7
HETATM    7  O4  UNL     1      30.902  34.322  14.819  1.00  0.00    -0.349 OA
BRANCH   7   8
HETATM    8  C7  UNL     1      32.097  34.883  14.345  1.00  0.00     0.201 C 
BRANCH   8   9
HETATM    9  C6  UNL     1      31.746  35.363  12.906  1.00  0.00     0.194 C 
BRANCH   9  10
HETATM   10  O3  UNL     1      32.069  36.680  12.921  1.00  0.00    -0.387 OA
BRANCH  10  11
HETATM   11  C5  UNL     1      32.803  37.229  13.880  1.00  0.00     0.193 C 
BRANCH  11  12
HETATM   12  C4  UNL     1      33.219  38.671  13.686  1.00  0.00     0.193 C 
BRANCH  12  13
HETATM   13  O2  UNL     1      32.066  39.444  13.796  1.00  0.00    -0.387 OA
BRANCH  13  14
HETATM   14  C3  UNL     1      31.589  39.463  15.112  1.00  0.00     0.193 C 
BRANCH  14  15
HETATM   15  C2  UNL     1      32.037  40.773  15.706  1.00  0.00     0.193 C 
BRANCH  15  16
HETATM   16  O1  UNL     1      33.023  40.626  16.636  1.00  0.00    -0.394 OA
HETATM   17  C1  UNL     1      34.170  41.355  16.215  1.00  0.00     0.201 C 
ENDBRANCH  15  16
ENDBRANCH  14  15
ENDBRANCH  13  14
ENDBRANCH  12  13
ENDBRANCH  11  12
ENDBRANCH  10  11
ENDBRANCH   9  10
ENDBRANCH   8   9
ENDBRANCH   7   8
ENDBRANCH   1   7
BRANCH   4  18
HETATM   18  C12 UNL     1      29.423  28.883  14.289  1.00  0.00    -0.020 C 
HETATM   19  C13 UNL     1      30.617  28.190  13.698  1.00  0.00     0.020 C 
HETATM   20  C14 UNL     1      28.376  28.912  13.142  1.00  0.00     0.020 C 
BRANCH  18  21
HETATM   21  C15 UNL     1      28.820  28.376  15.490  1.00  0.00     0.022 C 
BRANCH  21  22
HETATM   22  C16 UNL     1      29.450  28.348  16.813  1.00  0.00    -0.050 C 
HETATM   23  C17 UNL     1      28.692  27.178  17.533  1.00  0.00     0.014 C 
HETATM   24  C18 UNL     1      30.861  27.956  16.976  1.00  0.00     0.014 C 
HETATM   25  C19 UNL     1      29.064  29.538  17.695  1.00  0.00     0.014 C 
ENDBRANCH  21  22
ENDBRANCH  18  21
ENDBRANCH   4  18
TORSDOF 13
ENDMDL
