MODEL 20
REMARK VINA RESULT: -6.784609515      1.435      1.855
REMARK  13 active torsions:
REMARK  status: ('A' for Active; 'I' for Inactive)
REMARK    1  A    between atoms: O1_2  and  C2_3 
REMARK    2  A    between atoms: C2_3  and  C3_4 
REMARK    3  A    between atoms: C3_4  and  O2_5 
REMARK    4  A    between atoms: O2_5  and  C4_6 
REMARK    5  A    between atoms: C4_6  and  C5_7 
REMARK    6  A    between atoms: C5_7  and  O3_8 
REMARK    7  A    between atoms: O3_8  and  C6_9 
REMARK    8  A    between atoms: C6_9  and  C7_10 
REMARK    9  A    between atoms: C7_10  and  O4_11 
REMARK   10  A    between atoms: O4_11  and  C8_12 
REMARK   11  A    between atoms: C11_15  and  C12_16 
REMARK   12  A    between atoms: C12_16  and  C15_19 
REMARK   13  A    between atoms: C15_19  and  C16_20 
ROOT
HETATM    1  C8  UNL     1      30.654  33.379  14.219  1.00  0.00     0.068 A 
HETATM    2  C9  UNL     1      29.507  32.765  14.680  1.00  0.00     0.037 A 
HETATM    3  C10 UNL     1      29.499  31.438  15.020  1.00  0.00     0.011 A 
HETATM    4  C11 UNL     1      30.632  30.660  14.915  1.00  0.00    -0.050 A 
HETATM    5  C20 UNL     1      31.781  31.261  14.455  1.00  0.00     0.011 A 
HETATM    6  C21 UNL     1      31.781  32.615  14.111  1.00  0.00     0.037 A 
ENDROOT
BRANCH   1   7
HETATM    7  O4  UNL     1      30.671  34.703  13.892  1.00  0.00    -0.349 OA
BRANCH   7   8
HETATM    8  C7  UNL     1      31.826  35.454  13.634  1.00  0.00     0.201 C 
BRANCH   8   9
HETATM    9  C6  UNL     1      31.800  36.575  14.715  1.00  0.00     0.194 C 
BRANCH   9  10
HETATM   10  O3  UNL     1      33.112  36.824  14.949  1.00  0.00    -0.387 OA
BRANCH  10  11
HETATM   11  C5  UNL     1      33.724  37.921  14.519  1.00  0.00     0.193 C 
BRANCH  11  12
HETATM   12  C4  UNL     1      32.892  38.903  13.724  1.00  0.00     0.193 C 
BRANCH  12  13
HETATM   13  O2  UNL     1      33.299  40.180  14.106  1.00  0.00    -0.387 OA
BRANCH  13  14
HETATM   14  C3  UNL     1      32.869  40.484  15.403  1.00  0.00     0.193 C 
BRANCH  14  15
HETATM   15  C2  UNL     1      34.008  41.213  16.067  1.00  0.00     0.193 C 
BRANCH  15  16
HETATM   16  O1  UNL     1      33.613  42.352  16.704  1.00  0.00    -0.394 OA
HETATM   17  C1  UNL     1      33.353  43.360  15.734  1.00  0.00     0.201 C 
ENDBRANCH  15  16
ENDBRANCH  14  15
ENDBRANCH  13  14
ENDBRANCH  12  13
ENDBRANCH  11  12
ENDBRANCH  10  11
ENDBRANCH   9  10
ENDBRANCH   8   9
ENDBRANCH   7   8
ENDBRANCH   1   7
BRANCH   4  18
HETATM   18  C12 UNL     1      30.617  29.216  15.287  1.00  0.00    -0.020 C 
HETATM   19  C13 UNL     1      30.919  28.469  14.020  1.00  0.00     0.020 C 
HETATM   20  C14 UNL     1      29.113  28.940  15.558  1.00  0.00     0.020 C 
BRANCH  18  21
HETATM   21  C15 UNL     1      31.385  28.961  16.473  1.00  0.00     0.022 C 
BRANCH  21  22
HETATM   22  C16 UNL     1      31.334  29.749  17.707  1.00  0.00    -0.050 C 
HETATM   23  C17 UNL     1      32.025  28.803  18.752  1.00  0.00     0.014 C 
HETATM   24  C18 UNL     1      32.108  30.994  17.848  1.00  0.00     0.014 C 
HETATM   25  C19 UNL     1      29.925  29.862  18.297  1.00  0.00     0.014 C 
ENDBRANCH  21  22
ENDBRANCH  18  21
ENDBRANCH   4  18
TORSDOF 13
ENDMDL
