MODEL 5
REMARK VINA RESULT: -7.190366747      1.397      2.022
REMARK  13 active torsions:
REMARK  status: ('A' for Active; 'I' for Inactive)
REMARK    1  A    between atoms: O1_2  and  C2_3 
REMARK    2  A    between atoms: C2_3  and  C3_4 
REMARK    3  A    between atoms: C3_4  and  O2_5 
REMARK    4  A    between atoms: O2_5  and  C4_6 
REMARK    5  A    between atoms: C4_6  and  C5_7 
REMARK    6  A    between atoms: C5_7  and  O3_8 
REMARK    7  A    between atoms: O3_8  and  C6_9 
REMARK    8  A    between atoms: C6_9  and  C7_10 
REMARK    9  A    between atoms: C7_10  and  O4_11 
REMARK   10  A    between atoms: O4_11  and  C8_12 
REMARK   11  A    between atoms: C11_15  and  C12_16 
REMARK   12  A    between atoms: C12_16  and  C15_19 
REMARK   13  A    between atoms: C15_19  and  C16_20 
ROOT
HETATM    1  C8  UNL     1      31.023  33.737  14.086  1.00  0.00     0.068 A 
HETATM    2  C9  UNL     1      32.114  32.926  13.847  1.00  0.00     0.037 A 
HETATM    3  C10 UNL     1      32.035  31.566  13.994  1.00  0.00     0.011 A 
HETATM    4  C11 UNL     1      30.866  30.951  14.387  1.00  0.00    -0.050 A 
HETATM    5  C20 UNL     1      29.772  31.749  14.631  1.00  0.00     0.011 A 
HETATM    6  C21 UNL     1      29.862  33.135  14.478  1.00  0.00     0.037 A 
ENDROOT
BRANCH   1   7
HETATM    7  O4  UNL     1      31.093  35.090  13.929  1.00  0.00    -0.349 OA
BRANCH   7   8
HETATM    8  C7  UNL     1      31.532  35.992  14.908  1.00  0.00     0.201 C 
BRANCH   8   9
HETATM    9  C6  UNL     1      32.782  36.667  14.270  1.00  0.00     0.194 C 
BRANCH   9  10
HETATM   10  O3  UNL     1      32.266  37.731  13.606  1.00  0.00    -0.387 OA
BRANCH  10  11
HETATM   11  C5  UNL     1      32.890  38.901  13.529  1.00  0.00     0.193 C 
BRANCH  11  12
HETATM   12  C4  UNL     1      32.707  39.854  14.690  1.00  0.00     0.193 C 
BRANCH  12  13
HETATM   13  O2  UNL     1      33.788  39.660  15.547  1.00  0.00    -0.387 OA
BRANCH  13  14
HETATM   14  C3  UNL     1      34.275  40.877  16.036  1.00  0.00     0.193 C 
BRANCH  14  15
HETATM   15  C2  UNL     1      33.068  41.724  16.342  1.00  0.00     0.193 C 
BRANCH  15  16
HETATM   16  O1  UNL     1      33.383  43.024  16.610  1.00  0.00    -0.394 OA
HETATM   17  C1  UNL     1      33.296  43.780  15.408  1.00  0.00     0.201 C 
ENDBRANCH  15  16
ENDBRANCH  14  15
ENDBRANCH  13  14
ENDBRANCH  12  13
ENDBRANCH  11  12
ENDBRANCH  10  11
ENDBRANCH   9  10
ENDBRANCH   8   9
ENDBRANCH   7   8
ENDBRANCH   1   7
BRANCH   4  18
HETATM   18  C12 UNL     1      30.786  29.470  14.546  1.00  0.00    -0.020 C 
HETATM   19  C13 UNL     1      32.108  28.939  14.071  1.00  0.00     0.020 C 
HETATM   20  C14 UNL     1      29.775  29.054  13.443  1.00  0.00     0.020 C 
BRANCH  18  21
HETATM   21  C15 UNL     1      30.283  29.096  15.838  1.00  0.00     0.022 C 
BRANCH  21  22
HETATM   22  C16 UNL     1      31.072  29.027  17.071  1.00  0.00    -0.050 C 
HETATM   23  C17 UNL     1      29.984  28.729  18.162  1.00  0.00     0.014 C 
HETATM   24  C18 UNL     1      32.045  27.943  17.292  1.00  0.00     0.014 C 
HETATM   25  C19 UNL     1      31.592  30.389  17.536  1.00  0.00     0.014 C 
ENDBRANCH  21  22
ENDBRANCH  18  21
ENDBRANCH   4  18
TORSDOF 13
ENDMDL
