MODEL 6
REMARK VINA RESULT: -7.188170899      0.949      1.152
REMARK  13 active torsions:
REMARK  status: ('A' for Active; 'I' for Inactive)
REMARK    1  A    between atoms: O1_2  and  C2_3 
REMARK    2  A    between atoms: C2_3  and  C3_4 
REMARK    3  A    between atoms: C3_4  and  O2_5 
REMARK    4  A    between atoms: O2_5  and  C4_6 
REMARK    5  A    between atoms: C4_6  and  C5_7 
REMARK    6  A    between atoms: C5_7  and  O3_8 
REMARK    7  A    between atoms: O3_8  and  C6_9 
REMARK    8  A    between atoms: C6_9  and  C7_10 
REMARK    9  A    between atoms: C7_10  and  O4_11 
REMARK   10  A    between atoms: O4_11  and  C8_12 
REMARK   11  A    between atoms: C11_15  and  C12_16 
REMARK   12  A    between atoms: C12_16  and  C15_19 
REMARK   13  A    between atoms: C15_19  and  C16_20 
ROOT
HETATM    1  C8  UNL     1      30.474  32.969  14.907  1.00  0.00     0.068 A 
HETATM    2  C9  UNL     1      29.186  32.496  14.754  1.00  0.00     0.037 A 
HETATM    3  C10 UNL     1      28.938  31.167  14.535  1.00  0.00     0.011 A 
HETATM    4  C11 UNL     1      29.961  30.247  14.456  1.00  0.00    -0.050 A 
HETATM    5  C20 UNL     1      31.249  30.706  14.604  1.00  0.00     0.011 A 
HETATM    6  C21 UNL     1      31.493  32.064  14.829  1.00  0.00     0.037 A 
ENDROOT
BRANCH   1   7
HETATM    7  O4  UNL     1      30.725  34.289  15.138  1.00  0.00    -0.349 OA
BRANCH   7   8
HETATM    8  C7  UNL     1      31.866  34.979  14.707  1.00  0.00     0.201 C 
BRANCH   8   9
HETATM    9  C6  UNL     1      31.546  35.357  13.230  1.00  0.00     0.194 C 
BRANCH   9  10
HETATM   10  O3  UNL     1      32.067  36.603  13.099  1.00  0.00    -0.387 OA
BRANCH  10  11
HETATM   11  C5  UNL     1      32.839  37.160  14.024  1.00  0.00     0.193 C 
BRANCH  11  12
HETATM   12  C4  UNL     1      32.718  38.657  14.208  1.00  0.00     0.193 C 
BRANCH  12  13
HETATM   13  O2  UNL     1      31.680  38.871  15.113  1.00  0.00    -0.387 OA
BRANCH  13  14
HETATM   14  C3  UNL     1      31.633  40.207  15.526  1.00  0.00     0.193 C 
BRANCH  14  15
HETATM   15  C2  UNL     1      32.992  40.789  15.236  1.00  0.00     0.193 C 
BRANCH  15  16
HETATM   16  O1  UNL     1      33.092  42.106  15.576  1.00  0.00    -0.394 OA
HETATM   17  C1  UNL     1      33.501  42.204  16.935  1.00  0.00     0.201 C 
ENDBRANCH  15  16
ENDBRANCH  14  15
ENDBRANCH  13  14
ENDBRANCH  12  13
ENDBRANCH  11  12
ENDBRANCH  10  11
ENDBRANCH   9  10
ENDBRANCH   8   9
ENDBRANCH   7   8
ENDBRANCH   1   7
BRANCH   4  18
HETATM   18  C12 UNL     1      29.686  28.801  14.217  1.00  0.00    -0.020 C 
HETATM   19  C13 UNL     1      30.984  28.214  13.742  1.00  0.00     0.020 C 
HETATM   20  C14 UNL     1      28.778  28.821  12.958  1.00  0.00     0.020 C 
BRANCH  18  21
HETATM   21  C15 UNL     1      28.985  28.200  15.317  1.00  0.00     0.022 C 
BRANCH  21  22
HETATM   22  C16 UNL     1      29.362  26.954  15.990  1.00  0.00    -0.050 C 
HETATM   23  C17 UNL     1      28.180  26.733  16.999  1.00  0.00     0.014 C 
HETATM   24  C18 UNL     1      29.396  25.675  15.259  1.00  0.00     0.014 C 
HETATM   25  C19 UNL     1      30.544  27.116  16.948  1.00  0.00     0.014 C 
ENDBRANCH  21  22
ENDBRANCH  18  21
ENDBRANCH   4  18
TORSDOF 13
ENDMDL
