MODEL 18
REMARK VINA RESULT: -6.864977635      2.238      3.943
REMARK  13 active torsions:
REMARK  status: ('A' for Active; 'I' for Inactive)
REMARK    1  A    between atoms: O1_2  and  C2_3 
REMARK    2  A    between atoms: C2_3  and  C3_4 
REMARK    3  A    between atoms: C3_4  and  O2_5 
REMARK    4  A    between atoms: O2_5  and  C4_6 
REMARK    5  A    between atoms: C4_6  and  C5_7 
REMARK    6  A    between atoms: C5_7  and  O3_8 
REMARK    7  A    between atoms: O3_8  and  C6_9 
REMARK    8  A    between atoms: C6_9  and  C7_10 
REMARK    9  A    between atoms: C7_10  and  O4_11 
REMARK   10  A    between atoms: O4_11  and  C8_12 
REMARK   11  A    between atoms: C11_15  and  C12_16 
REMARK   12  A    between atoms: C12_16  and  C15_19 
REMARK   13  A    between atoms: C15_19  and  C16_20 
ROOT
HETATM    1  C8  UNL     1      29.437  29.965  15.779  1.00  0.00     0.068 A 
HETATM    2  C9  UNL     1      29.259  29.520  17.074  1.00  0.00     0.037 A 
HETATM    3  C10 UNL     1      28.851  28.238  17.335  1.00  0.00     0.011 A 
HETATM    4  C11 UNL     1      28.602  27.341  16.319  1.00  0.00    -0.050 A 
HETATM    5  C20 UNL     1      28.774  27.774  15.025  1.00  0.00     0.011 A 
HETATM    6  C21 UNL     1      29.190  29.082  14.767  1.00  0.00     0.037 A 
ENDROOT
BRANCH   1   7
HETATM    7  O4  UNL     1      29.855  31.236  15.515  1.00  0.00    -0.349 OA
BRANCH   7   8
HETATM    8  C7  UNL     1      31.076  31.785  15.930  1.00  0.00     0.201 C 
BRANCH   8   9
HETATM    9  C6  UNL     1      31.460  32.768  14.785  1.00  0.00     0.194 C 
BRANCH   9  10
HETATM   10  O3  UNL     1      30.965  33.958  15.207  1.00  0.00    -0.387 OA
BRANCH  10  11
HETATM   11  C5  UNL     1      31.593  35.110  15.005  1.00  0.00     0.193 C 
BRANCH  11  12
HETATM   12  C4  UNL     1      31.731  35.574  13.571  1.00  0.00     0.193 C 
BRANCH  12  13
HETATM   13  O2  UNL     1      32.082  36.921  13.613  1.00  0.00    -0.387 OA
BRANCH  13  14
HETATM   14  C3  UNL     1      33.285  37.112  14.303  1.00  0.00     0.193 C 
BRANCH  14  15
HETATM   15  C2  UNL     1      33.523  38.599  14.336  1.00  0.00     0.193 C 
BRANCH  15  16
HETATM   16  O1  UNL     1      34.002  39.036  15.535  1.00  0.00    -0.394 OA
HETATM   17  C1  UNL     1      33.733  40.427  15.665  1.00  0.00     0.201 C 
ENDBRANCH  15  16
ENDBRANCH  14  15
ENDBRANCH  13  14
ENDBRANCH  12  13
ENDBRANCH  11  12
ENDBRANCH  10  11
ENDBRANCH   9  10
ENDBRANCH   8   9
ENDBRANCH   7   8
ENDBRANCH   1   7
BRANCH   4  18
HETATM   18  C12 UNL     1      28.158  25.947  16.609  1.00  0.00    -0.020 C 
HETATM   19  C13 UNL     1      28.711  25.620  17.967  1.00  0.00     0.020 C 
HETATM   20  C14 UNL     1      29.006  25.097  15.624  1.00  0.00     0.020 C 
BRANCH  18  21
HETATM   21  C15 UNL     1      26.760  25.762  16.338  1.00  0.00     0.022 C 
BRANCH  21  22
HETATM   22  C16 UNL     1      25.913  24.712  16.910  1.00  0.00    -0.050 C 
HETATM   23  C17 UNL     1      24.573  24.872  16.108  1.00  0.00     0.014 C 
HETATM   24  C18 UNL     1      26.230  23.287  16.713  1.00  0.00     0.014 C 
HETATM   25  C19 UNL     1      25.444  25.019  18.334  1.00  0.00     0.014 C 
ENDBRANCH  21  22
ENDBRANCH  18  21
ENDBRANCH   4  18
TORSDOF 13
ENDMDL
