MODEL 2
REMARK VINA RESULT: -7.459444200      0.528      1.085
REMARK  13 active torsions:
REMARK  status: ('A' for Active; 'I' for Inactive)
REMARK    1  A    between atoms: O1_2  and  C2_3 
REMARK    2  A    between atoms: C2_3  and  C3_4 
REMARK    3  A    between atoms: C3_4  and  O2_5 
REMARK    4  A    between atoms: O2_5  and  C4_6 
REMARK    5  A    between atoms: C4_6  and  C5_7 
REMARK    6  A    between atoms: C5_7  and  O3_8 
REMARK    7  A    between atoms: O3_8  and  C6_9 
REMARK    8  A    between atoms: C6_9  and  C7_10 
REMARK    9  A    between atoms: C7_10  and  O4_11 
REMARK   10  A    between atoms: O4_11  and  C8_12 
REMARK   11  A    between atoms: C11_15  and  C12_16 
REMARK   12  A    between atoms: C12_16  and  C15_19 
REMARK   13  A    between atoms: C15_19  and  C16_20 
ROOT
HETATM    1  C8  UNL     1      30.493  33.098  14.622  1.00  0.00     0.068 A 
HETATM    2  C9  UNL     1      31.468  32.126  14.515  1.00  0.00     0.037 A 
HETATM    3  C10 UNL     1      31.141  30.800  14.410  1.00  0.00     0.011 A 
HETATM    4  C11 UNL     1      29.829  30.379  14.408  1.00  0.00    -0.050 A 
HETATM    5  C20 UNL     1      28.848  31.338  14.516  1.00  0.00     0.011 A 
HETATM    6  C21 UNL     1      29.190  32.688  14.622  1.00  0.00     0.037 A 
ENDROOT
BRANCH   1   7
HETATM    7  O4  UNL     1      30.813  34.420  14.713  1.00  0.00    -0.349 OA
BRANCH   7   8
HETATM    8  C7  UNL     1      32.048  34.976  14.352  1.00  0.00     0.201 C 
BRANCH   8   9
HETATM    9  C6  UNL     1      31.798  35.566  12.932  1.00  0.00     0.194 C 
BRANCH   9  10
HETATM   10  O3  UNL     1      32.147  36.870  13.062  1.00  0.00    -0.387 OA
BRANCH  10  11
HETATM   11  C5  UNL     1      32.867  37.324  14.080  1.00  0.00     0.193 C 
BRANCH  11  12
HETATM   12  C4  UNL     1      33.058  38.822  14.172  1.00  0.00     0.193 C 
BRANCH  12  13
HETATM   13  O2  UNL     1      31.793  39.382  14.338  1.00  0.00    -0.387 OA
BRANCH  13  14
HETATM   14  C3  UNL     1      31.761  40.251  15.435  1.00  0.00     0.193 C 
BRANCH  14  15
HETATM   15  C2  UNL     1      33.196  40.573  15.762  1.00  0.00     0.193 C 
BRANCH  15  16
HETATM   16  O1  UNL     1      33.325  41.658  16.578  1.00  0.00    -0.394 OA
HETATM   17  C1  UNL     1      33.380  42.835  15.781  1.00  0.00     0.201 C 
ENDBRANCH  15  16
ENDBRANCH  14  15
ENDBRANCH  13  14
ENDBRANCH  12  13
ENDBRANCH  11  12
ENDBRANCH  10  11
ENDBRANCH   9  10
ENDBRANCH   8   9
ENDBRANCH   7   8
ENDBRANCH   1   7
BRANCH   4  18
HETATM   18  C12 UNL     1      29.479  28.934  14.293  1.00  0.00    -0.020 C 
HETATM   19  C13 UNL     1      30.699  28.265  13.729  1.00  0.00     0.020 C 
HETATM   20  C14 UNL     1      28.447  28.914  13.134  1.00  0.00     0.020 C 
BRANCH  18  21
HETATM   21  C15 UNL     1      28.876  28.432  15.496  1.00  0.00     0.022 C 
BRANCH  21  22
HETATM   22  C16 UNL     1      29.493  28.437  16.825  1.00  0.00    -0.050 C 
HETATM   23  C17 UNL     1      28.743  27.270  17.560  1.00  0.00     0.014 C 
HETATM   24  C18 UNL     1      30.908  28.067  17.009  1.00  0.00     0.014 C 
HETATM   25  C19 UNL     1      29.083  29.639  17.680  1.00  0.00     0.014 C 
ENDBRANCH  21  22
ENDBRANCH  18  21
ENDBRANCH   4  18
TORSDOF 13
ENDMDL
