MODEL 11
REMARK VINA RESULT: -5.880066076      3.407      6.201
REMARK  19 active torsions:
REMARK  status: ('A' for Active; 'I' for Inactive)
REMARK    1  A    between atoms: C1_2  and  C2_4 
REMARK    2  A    between atoms: C2_4  and  N1_5 
REMARK    3  A    between atoms: N1_5  and  C3_6 
REMARK    4  A    between atoms: N1_5  and  C5_10 
REMARK    5  A    between atoms: C3_6  and  C4_7 
REMARK    6  A    between atoms: C5_10  and  C6_11 
REMARK    7  A    between atoms: C6_11  and  C7_12 
REMARK    8  A    between atoms: C6_11  and  N4_29 
REMARK    9  A    between atoms: C7_12  and  C8_13 
REMARK   10  A    between atoms: C11_16  and  N2_17 
REMARK   11  A    between atoms: N2_17  and  C12_19 
REMARK   12  A    between atoms: C12_19  and  N3_21 
REMARK   13  A    between atoms: N3_21  and  C13_23 
REMARK   14  A    between atoms: C13_23  and  C14_24 
REMARK   15  A    between atoms: C14_24  and  O5_25 
REMARK   16  A    between atoms: N4_29  and  C17_30 
REMARK   17  A    between atoms: N4_29  and  C19_34 
REMARK   18  A    between atoms: C17_30  and  C18_31 
REMARK   19  A    between atoms: C19_34  and  C20_35 
ROOT
HETATM    1  C6  UNL     1      57.023   1.551  38.899  1.00  0.00     0.256 C 
ENDROOT
BRANCH   1   2
HETATM    2  C5  UNL     1      56.586   0.319  38.252  1.00  0.00     0.309 C 
BRANCH   2   3
HETATM    3  N1  UNL     1      55.174   0.116  38.013  1.00  0.00     0.110 N 
BRANCH   3   4
HETATM    4  C2  UNL     1      54.768  -1.228  38.374  1.00  0.00     0.385 C 
BRANCH   4   5
HETATM    5  C1  UNL     1      53.314  -1.279  38.596  1.00  0.00     0.202 C 
HETATM    6  O1  UNL     1      52.764  -0.521  39.473  1.00  0.00    -0.647 OA
HETATM    7  O2  UNL     1      52.422  -2.102  37.930  1.00  0.00    -0.647 OA
ENDBRANCH   4   5
ENDBRANCH   3   4
BRANCH   3   8
HETATM    8  C3  UNL     1      54.854   0.369  36.608  1.00  0.00     0.385 C 
BRANCH   8   9
HETATM    9  C4  UNL     1      53.932   1.520  36.549  1.00  0.00     0.202 C 
HETATM   10  O3  UNL     1      53.404   1.844  35.455  1.00  0.00    -0.647 OA
HETATM   11  O4  UNL     1      53.619   2.275  37.660  1.00  0.00    -0.647 OA
ENDBRANCH   8   9
ENDBRANCH   3   8
ENDBRANCH   2   3
ENDBRANCH   1   2
BRANCH   1  12
HETATM   12  C7  UNL     1      58.350   1.213  39.667  1.00  0.00     0.076 C 
BRANCH  12  13
HETATM   13  C8  UNL     1      59.467   1.030  38.729  1.00  0.00    -0.056 A 
HETATM   14  C9  UNL     1      60.105  -0.178  38.602  1.00  0.00     0.009 A 
HETATM   15  C10 UNL     1      61.164  -0.385  37.701  1.00  0.00     0.030 A 
HETATM   16  C11 UNL     1      61.614   0.632  36.896  1.00  0.00     0.034 A 
HETATM   17  C15 UNL     1      60.960   1.869  37.027  1.00  0.00     0.030 A 
HETATM   18  C16 UNL     1      59.928   2.042  37.914  1.00  0.00     0.009 A 
BRANCH  16  19
HETATM   19  N2  UNL     1      62.691   0.526  35.974  1.00  0.00    -0.333 N 
ATOM     20  H2  UNL     1      62.538  -0.080  35.168  1.00  0.00     0.168 HD
BRANCH  19  21
HETATM   21  C12 UNL     1      63.936   1.156  36.047  1.00  0.00     0.172 C 
HETATM   22  S1  UNL     1      64.997   0.813  37.226  1.00  0.00    -0.041 SA
BRANCH  21  23
HETATM   23  N3  UNL     1      64.298   2.136  35.105  1.00  0.00    -0.365 N 
ATOM     24  H3  UNL     1      64.101   1.988  34.115  1.00  0.00     0.161 HD
BRANCH  23  25
HETATM   25  C13 UNL     1      64.946   3.347  35.536  1.00  0.00     0.148 C 
BRANCH  25  26
HETATM   26  C14 UNL     1      65.718   3.981  34.390  1.00  0.00     0.183 C 
BRANCH  26  27
HETATM   27  O5  UNL     1      65.505   3.244  33.218  1.00  0.00    -0.399 OA
ATOM     28  H5  UNL     1      66.158   2.556  33.152  1.00  0.00     0.209 HD
ENDBRANCH  26  27
ENDBRANCH  25  26
ENDBRANCH  23  25
ENDBRANCH  21  23
ENDBRANCH  19  21
ENDBRANCH  16  19
ENDBRANCH  12  13
ENDBRANCH   1  12
BRANCH   1  29
HETATM   29  N4  UNL     1      56.193   2.081  39.997  1.00  0.00     0.115 N 
BRANCH  29  30
HETATM   30  C17 UNL     1      56.607   1.239  41.141  1.00  0.00     0.386 C 
BRANCH  30  31
HETATM   31  C18 UNL     1      55.509   0.517  41.779  1.00  0.00     0.202 C 
HETATM   32  O6  UNL     1      55.656  -0.660  42.262  1.00  0.00    -0.647 OA
HETATM   33  O7  UNL     1      54.209   1.018  41.918  1.00  0.00    -0.647 OA
ENDBRANCH  30  31
ENDBRANCH  29  30
BRANCH  29  34
HETATM   34  C19 UNL     1      56.633   3.408  40.345  1.00  0.00     0.386 C 
BRANCH  34  35
HETATM   35  C20 UNL     1      55.584   4.408  40.526  1.00  0.00     0.202 C 
HETATM   36  O8  UNL     1      55.756   5.618  40.672  1.00  0.00    -0.647 OA
HETATM   37  O9  UNL     1      54.217   4.007  40.541  1.00  0.00    -0.647 OA
ENDBRANCH  34  35
ENDBRANCH  29  34
ENDBRANCH   1  29
TORSDOF 19
ENDMDL
