MODEL 3
REMARK VINA RESULT: -6.097481375      1.089      1.371
REMARK  19 active torsions:
REMARK  status: ('A' for Active; 'I' for Inactive)
REMARK    1  A    between atoms: C1_2  and  C2_4 
REMARK    2  A    between atoms: C2_4  and  N1_5 
REMARK    3  A    between atoms: N1_5  and  C3_6 
REMARK    4  A    between atoms: N1_5  and  C5_10 
REMARK    5  A    between atoms: C3_6  and  C4_7 
REMARK    6  A    between atoms: C5_10  and  C6_11 
REMARK    7  A    between atoms: C6_11  and  C7_12 
REMARK    8  A    between atoms: C6_11  and  N4_29 
REMARK    9  A    between atoms: C7_12  and  C8_13 
REMARK   10  A    between atoms: C11_16  and  N2_17 
REMARK   11  A    between atoms: N2_17  and  C12_19 
REMARK   12  A    between atoms: C12_19  and  N3_21 
REMARK   13  A    between atoms: N3_21  and  C13_23 
REMARK   14  A    between atoms: C13_23  and  C14_24 
REMARK   15  A    between atoms: C14_24  and  O5_25 
REMARK   16  A    between atoms: N4_29  and  C17_30 
REMARK   17  A    between atoms: N4_29  and  C19_34 
REMARK   18  A    between atoms: C17_30  and  C18_31 
REMARK   19  A    between atoms: C19_34  and  C20_35 
ROOT
HETATM    1  C6  UNL     1      54.778   1.534  38.632  1.00  0.00     0.256 C 
ENDROOT
BRANCH   1   2
HETATM    2  C5  UNL     1      54.737   2.927  39.066  1.00  0.00     0.309 C 
BRANCH   2   3
HETATM    3  N1  UNL     1      55.068   3.244  40.438  1.00  0.00     0.110 N 
BRANCH   3   4
HETATM    4  C2  UNL     1      56.313   3.982  40.521  1.00  0.00     0.385 C 
BRANCH   4   5
HETATM    5  C1  UNL     1      56.085   5.297  41.140  1.00  0.00     0.202 C 
HETATM    6  O1  UNL     1      56.010   6.353  40.414  1.00  0.00    -0.647 OA
HETATM    7  O2  UNL     1      55.939   5.540  42.495  1.00  0.00    -0.647 OA
ENDBRANCH   4   5
ENDBRANCH   3   4
BRANCH   3   8
HETATM    8  C3  UNL     1      55.164   2.021  41.234  1.00  0.00     0.385 C 
BRANCH   8   9
HETATM    9  C4  UNL     1      54.472   2.256  42.518  1.00  0.00     0.202 C 
HETATM   10  O3  UNL     1      54.774   1.569  43.526  1.00  0.00    -0.647 OA
HETATM   11  O4  UNL     1      53.489   3.211  42.664  1.00  0.00    -0.647 OA
ENDBRANCH   8   9
ENDBRANCH   3   8
ENDBRANCH   2   3
ENDBRANCH   1   2
BRANCH   1  12
HETATM   12  C7  UNL     1      55.907   1.432  37.547  1.00  0.00     0.076 C 
BRANCH  12  13
HETATM   13  C8  UNL     1      57.174   0.989  38.147  1.00  0.00    -0.056 A 
HETATM   14  C9  UNL     1      57.290  -0.238  38.749  1.00  0.00     0.009 A 
HETATM   15  C10 UNL     1      58.494  -0.694  39.314  1.00  0.00     0.030 A 
HETATM   16  C11 UNL     1      59.625   0.084  39.289  1.00  0.00     0.034 A 
HETATM   17  C15 UNL     1      59.504   1.342  38.672  1.00  0.00     0.030 A 
HETATM   18  C16 UNL     1      58.317   1.760  38.128  1.00  0.00     0.009 A 
BRANCH  16  19
HETATM   19  N2  UNL     1      60.877  -0.280  39.854  1.00  0.00    -0.333 N 
ATOM     20  H2  UNL     1      60.951  -0.215  40.869  1.00  0.00     0.168 HD
BRANCH  19  21
HETATM   21  C12 UNL     1      62.019  -0.716  39.176  1.00  0.00     0.172 C 
HETATM   22  S1  UNL     1      63.445   0.043  39.334  1.00  0.00    -0.041 SA
BRANCH  21  23
HETATM   23  N3  UNL     1      61.958  -1.821  38.309  1.00  0.00    -0.365 N 
ATOM     24  H3  UNL     1      61.824  -1.676  37.308  1.00  0.00     0.161 HD
BRANCH  23  25
HETATM   25  C13 UNL     1      62.085  -3.156  38.831  1.00  0.00     0.148 C 
BRANCH  25  26
HETATM   26  C14 UNL     1      60.718  -3.750  39.128  1.00  0.00     0.183 C 
BRANCH  26  27
HETATM   27  O5  UNL     1      60.350  -3.444  40.444  1.00  0.00    -0.399 OA
ATOM     28  H5  UNL     1      59.403  -3.452  40.519  1.00  0.00     0.209 HD
ENDBRANCH  26  27
ENDBRANCH  25  26
ENDBRANCH  23  25
ENDBRANCH  21  23
ENDBRANCH  19  21
ENDBRANCH  16  19
ENDBRANCH  12  13
ENDBRANCH   1  12
BRANCH   1  29
HETATM   29  N4  UNL     1      53.620   1.016  37.880  1.00  0.00     0.115 N 
BRANCH  29  30
HETATM   30  C17 UNL     1      53.847   1.573  36.529  1.00  0.00     0.386 C 
BRANCH  30  31
HETATM   31  C18 UNL     1      52.621   1.814  35.770  1.00  0.00     0.202 C 
HETATM   32  O6  UNL     1      52.633   2.354  34.609  1.00  0.00    -0.647 OA
HETATM   33  O7  UNL     1      51.336   1.497  36.225  1.00  0.00    -0.647 OA
ENDBRANCH  30  31
ENDBRANCH  29  30
BRANCH  29  34
HETATM   34  C19 UNL     1      53.747  -0.410  37.713  1.00  0.00     0.386 C 
BRANCH  34  35
HETATM   35  C20 UNL     1      53.014  -1.239  38.665  1.00  0.00     0.202 C 
HETATM   36  O8  UNL     1      52.359  -2.246  38.395  1.00  0.00    -0.647 OA
HETATM   37  O9  UNL     1      53.023  -0.903  40.051  1.00  0.00    -0.647 OA
ENDBRANCH  34  35
ENDBRANCH  29  34
ENDBRANCH   1  29
TORSDOF 19
ENDMDL
