MODEL 15
REMARK VINA RESULT: -5.824231335      2.955      5.976
REMARK  19 active torsions:
REMARK  status: ('A' for Active; 'I' for Inactive)
REMARK    1  A    between atoms: C1_2  and  C2_4 
REMARK    2  A    between atoms: C2_4  and  N1_5 
REMARK    3  A    between atoms: N1_5  and  C3_6 
REMARK    4  A    between atoms: N1_5  and  C5_10 
REMARK    5  A    between atoms: C3_6  and  C4_7 
REMARK    6  A    between atoms: C5_10  and  C6_11 
REMARK    7  A    between atoms: C6_11  and  C7_12 
REMARK    8  A    between atoms: C6_11  and  N4_29 
REMARK    9  A    between atoms: C7_12  and  C8_13 
REMARK   10  A    between atoms: C11_16  and  N2_17 
REMARK   11  A    between atoms: N2_17  and  C12_19 
REMARK   12  A    between atoms: C12_19  and  N3_21 
REMARK   13  A    between atoms: N3_21  and  C13_23 
REMARK   14  A    between atoms: C13_23  and  C14_24 
REMARK   15  A    between atoms: C14_24  and  O5_25 
REMARK   16  A    between atoms: N4_29  and  C17_30 
REMARK   17  A    between atoms: N4_29  and  C19_34 
REMARK   18  A    between atoms: C17_30  and  C18_31 
REMARK   19  A    between atoms: C19_34  and  C20_35 
ROOT
HETATM    1  C6  UNL     1      56.666   1.315  38.949  1.00  0.00     0.256 C 
ENDROOT
BRANCH   1   2
HETATM    2  C5  UNL     1      56.233   0.089  38.288  1.00  0.00     0.309 C 
BRANCH   2   3
HETATM    3  N1  UNL     1      54.871  -0.007  37.810  1.00  0.00     0.110 N 
BRANCH   3   4
HETATM    4  C2  UNL     1      54.404  -1.379  37.824  1.00  0.00     0.385 C 
BRANCH   4   5
HETATM    5  C1  UNL     1      53.089  -1.464  38.477  1.00  0.00     0.202 C 
HETATM    6  O1  UNL     1      52.744  -0.598  39.359  1.00  0.00    -0.647 OA
HETATM    7  O2  UNL     1      52.127  -2.431  38.238  1.00  0.00    -0.647 OA
ENDBRANCH   4   5
ENDBRANCH   3   4
BRANCH   3   8
HETATM    8  C3  UNL     1      54.767   0.538  36.457  1.00  0.00     0.385 C 
BRANCH   8   9
HETATM    9  C4  UNL     1      53.729   1.588  36.466  1.00  0.00     0.202 C 
HETATM   10  O3  UNL     1      53.434   2.168  37.542  1.00  0.00    -0.647 OA
HETATM   11  O4  UNL     1      53.052   1.968  35.327  1.00  0.00    -0.647 OA
ENDBRANCH   8   9
ENDBRANCH   3   8
ENDBRANCH   2   3
ENDBRANCH   1   2
BRANCH   1  12
HETATM   12  C7  UNL     1      57.983   0.968  39.728  1.00  0.00     0.076 C 
BRANCH  12  13
HETATM   13  C8  UNL     1      59.153   1.038  38.841  1.00  0.00    -0.056 A 
HETATM   14  C9  UNL     1      59.984  -0.040  38.665  1.00  0.00     0.009 A 
HETATM   15  C10 UNL     1      61.098  -0.006  37.809  1.00  0.00     0.030 A 
HETATM   16  C11 UNL     1      61.410   1.127  37.101  1.00  0.00     0.034 A 
HETATM   17  C15 UNL     1      60.558   2.231  37.282  1.00  0.00     0.030 A 
HETATM   18  C16 UNL     1      59.476   2.169  38.123  1.00  0.00     0.009 A 
BRANCH  16  19
HETATM   19  N2  UNL     1      62.526   1.265  36.232  1.00  0.00    -0.333 N 
ATOM     20  H2  UNL     1      62.353   1.089  35.242  1.00  0.00     0.168 HD
BRANCH  19  21
HETATM   21  C12 UNL     1      63.834   1.613  36.580  1.00  0.00     0.172 C 
HETATM   22  S1  UNL     1      64.988   0.490  36.788  1.00  0.00    -0.041 SA
BRANCH  21  23
HETATM   23  N3  UNL     1      64.186   2.959  36.786  1.00  0.00    -0.365 N 
ATOM     24  H3  UNL     1      64.021   3.647  36.051  1.00  0.00     0.161 HD
BRANCH  23  25
HETATM   25  C13 UNL     1      64.776   3.368  38.033  1.00  0.00     0.148 C 
BRANCH  25  26
HETATM   26  C14 UNL     1      63.717   3.488  39.116  1.00  0.00     0.183 C 
BRANCH  26  27
HETATM   27  O5  UNL     1      62.781   4.463  38.750  1.00  0.00    -0.399 OA
ATOM     28  H5  UNL     1      63.172   5.059  38.121  1.00  0.00     0.209 HD
ENDBRANCH  26  27
ENDBRANCH  25  26
ENDBRANCH  23  25
ENDBRANCH  21  23
ENDBRANCH  19  21
ENDBRANCH  16  19
ENDBRANCH  12  13
ENDBRANCH   1  12
BRANCH   1  29
HETATM   29  N4  UNL     1      55.825   1.839  40.041  1.00  0.00     0.115 N 
BRANCH  29  30
HETATM   30  C17 UNL     1      56.081   0.870  41.129  1.00  0.00     0.386 C 
BRANCH  30  31
HETATM   31  C18 UNL     1      54.888   0.488  41.881  1.00  0.00     0.202 C 
HETATM   32  O6  UNL     1      54.599  -0.736  42.126  1.00  0.00    -0.647 OA
HETATM   33  O7  UNL     1      53.952   1.395  42.392  1.00  0.00    -0.647 OA
ENDBRANCH  30  31
ENDBRANCH  29  30
BRANCH  29  34
HETATM   34  C19 UNL     1      56.372   3.081  40.525  1.00  0.00     0.386 C 
BRANCH  34  35
HETATM   35  C20 UNL     1      55.460   4.221  40.548  1.00  0.00     0.202 C 
HETATM   36  O8  UNL     1      55.785   5.407  40.614  1.00  0.00    -0.647 OA
HETATM   37  O9  UNL     1      54.052   4.004  40.491  1.00  0.00    -0.647 OA
ENDBRANCH  34  35
ENDBRANCH  29  34
ENDBRANCH   1  29
TORSDOF 19
ENDMDL
