MODEL 1
REMARK VINA RESULT: -6.146583016      0.000      0.000
REMARK  19 active torsions:
REMARK  status: ('A' for Active; 'I' for Inactive)
REMARK    1  A    between atoms: C1_2  and  C2_4 
REMARK    2  A    between atoms: C2_4  and  N1_5 
REMARK    3  A    between atoms: N1_5  and  C3_6 
REMARK    4  A    between atoms: N1_5  and  C5_10 
REMARK    5  A    between atoms: C3_6  and  C4_7 
REMARK    6  A    between atoms: C5_10  and  C6_11 
REMARK    7  A    between atoms: C6_11  and  C7_12 
REMARK    8  A    between atoms: C6_11  and  N4_29 
REMARK    9  A    between atoms: C7_12  and  C8_13 
REMARK   10  A    between atoms: C11_16  and  N2_17 
REMARK   11  A    between atoms: N2_17  and  C12_19 
REMARK   12  A    between atoms: C12_19  and  N3_21 
REMARK   13  A    between atoms: N3_21  and  C13_23 
REMARK   14  A    between atoms: C13_23  and  C14_24 
REMARK   15  A    between atoms: C14_24  and  O5_25 
REMARK   16  A    between atoms: N4_29  and  C17_30 
REMARK   17  A    between atoms: N4_29  and  C19_34 
REMARK   18  A    between atoms: C17_30  and  C18_31 
REMARK   19  A    between atoms: C19_34  and  C20_35 
ROOT
HETATM    1  C6  UNL     1      54.793   1.520  38.647  1.00  0.00     0.256 C 
ENDROOT
BRANCH   1   2
HETATM    2  C5  UNL     1      54.769   2.921  39.054  1.00  0.00     0.309 C 
BRANCH   2   3
HETATM    3  N1  UNL     1      55.065   3.256  40.429  1.00  0.00     0.110 N 
BRANCH   3   4
HETATM    4  C2  UNL     1      56.319   3.975  40.537  1.00  0.00     0.385 C 
BRANCH   4   5
HETATM    5  C1  UNL     1      56.098   5.298  41.143  1.00  0.00     0.202 C 
HETATM    6  O1  UNL     1      56.026   6.347  40.406  1.00  0.00    -0.647 OA
HETATM    7  O2  UNL     1      55.955   5.554  42.495  1.00  0.00    -0.647 OA
ENDBRANCH   4   5
ENDBRANCH   3   4
BRANCH   3   8
HETATM    8  C3  UNL     1      55.117   2.046  41.248  1.00  0.00     0.385 C 
BRANCH   8   9
HETATM    9  C4  UNL     1      54.389   2.313  42.505  1.00  0.00     0.202 C 
HETATM   10  O3  UNL     1      54.617   1.609  43.522  1.00  0.00    -0.647 OA
HETATM   11  O4  UNL     1      53.450   3.315  42.617  1.00  0.00    -0.647 OA
ENDBRANCH   8   9
ENDBRANCH   3   8
ENDBRANCH   2   3
ENDBRANCH   1   2
BRANCH   1  12
HETATM   12  C7  UNL     1      55.923   1.382  37.567  1.00  0.00     0.076 C 
BRANCH  12  13
HETATM   13  C8  UNL     1      57.190   0.962  38.184  1.00  0.00    -0.056 A 
HETATM   14  C9  UNL     1      58.292   1.780  38.182  1.00  0.00     0.009 A 
HETATM   15  C10 UNL     1      59.510   1.411  38.780  1.00  0.00     0.030 A 
HETATM   16  C11 UNL     1      59.652   0.195  39.401  1.00  0.00     0.034 A 
HETATM   17  C15 UNL     1      58.522  -0.642  39.401  1.00  0.00     0.030 A 
HETATM   18  C16 UNL     1      57.345  -0.256  38.811  1.00  0.00     0.009 A 
BRANCH  16  19
HETATM   19  N2  UNL     1      60.847  -0.275  40.010  1.00  0.00    -0.333 N 
ATOM     20  H2  UNL     1      61.703   0.225  39.771  1.00  0.00     0.168 HD
BRANCH  19  21
HETATM   21  C12 UNL     1      60.982  -1.344  40.899  1.00  0.00     0.172 C 
HETATM   22  S1  UNL     1      60.560  -1.212  42.461  1.00  0.00    -0.041 SA
BRANCH  21  23
HETATM   23  N3  UNL     1      61.517  -2.571  40.467  1.00  0.00    -0.365 N 
ATOM     24  H3  UNL     1      62.518  -2.748  40.552  1.00  0.00     0.161 HD
BRANCH  23  25
HETATM   25  C13 UNL     1      60.654  -3.577  39.907  1.00  0.00     0.148 C 
BRANCH  25  26
HETATM   26  C14 UNL     1      60.969  -3.797  38.436  1.00  0.00     0.183 C 
BRANCH  26  27
HETATM   27  O5  UNL     1      60.912  -2.573  37.757  1.00  0.00    -0.399 OA
ATOM     28  H5  UNL     1      60.619  -2.718  36.865  1.00  0.00     0.209 HD
ENDBRANCH  26  27
ENDBRANCH  25  26
ENDBRANCH  23  25
ENDBRANCH  21  23
ENDBRANCH  19  21
ENDBRANCH  16  19
ENDBRANCH  12  13
ENDBRANCH   1  12
BRANCH   1  29
HETATM   29  N4  UNL     1      53.630   1.003  37.901  1.00  0.00     0.115 N 
BRANCH  29  30
HETATM   30  C17 UNL     1      53.852   1.557  36.547  1.00  0.00     0.386 C 
BRANCH  30  31
HETATM   31  C18 UNL     1      52.624   1.792  35.790  1.00  0.00     0.202 C 
HETATM   32  O6  UNL     1      52.634   2.319  34.623  1.00  0.00    -0.647 OA
HETATM   33  O7  UNL     1      51.340   1.484  36.253  1.00  0.00    -0.647 OA
ENDBRANCH  30  31
ENDBRANCH  29  30
BRANCH  29  34
HETATM   34  C19 UNL     1      53.751  -0.423  37.736  1.00  0.00     0.386 C 
BRANCH  34  35
HETATM   35  C20 UNL     1      52.998  -1.248  38.676  1.00  0.00     0.202 C 
HETATM   36  O8  UNL     1      52.331  -2.243  38.392  1.00  0.00    -0.647 OA
HETATM   37  O9  UNL     1      52.998  -0.921  40.063  1.00  0.00    -0.647 OA
ENDBRANCH  34  35
ENDBRANCH  29  34
ENDBRANCH   1  29
TORSDOF 19
ENDMDL
