MODEL 2
REMARK VINA RESULT: -6.098668384      1.581      1.898
REMARK  19 active torsions:
REMARK  status: ('A' for Active; 'I' for Inactive)
REMARK    1  A    between atoms: C1_2  and  C2_4 
REMARK    2  A    between atoms: C2_4  and  N1_5 
REMARK    3  A    between atoms: N1_5  and  C3_6 
REMARK    4  A    between atoms: N1_5  and  C5_10 
REMARK    5  A    between atoms: C3_6  and  C4_7 
REMARK    6  A    between atoms: C5_10  and  C6_11 
REMARK    7  A    between atoms: C6_11  and  C7_12 
REMARK    8  A    between atoms: C6_11  and  N4_29 
REMARK    9  A    between atoms: C7_12  and  C8_13 
REMARK   10  A    between atoms: C11_16  and  N2_17 
REMARK   11  A    between atoms: N2_17  and  C12_19 
REMARK   12  A    between atoms: C12_19  and  N3_21 
REMARK   13  A    between atoms: N3_21  and  C13_23 
REMARK   14  A    between atoms: C13_23  and  C14_24 
REMARK   15  A    between atoms: C14_24  and  O5_25 
REMARK   16  A    between atoms: N4_29  and  C17_30 
REMARK   17  A    between atoms: N4_29  and  C19_34 
REMARK   18  A    between atoms: C17_30  and  C18_31 
REMARK   19  A    between atoms: C19_34  and  C20_35 
ROOT
HETATM    1  C6  UNL     1      54.789   1.420  38.730  1.00  0.00     0.256 C 
ENDROOT
BRANCH   1   2
HETATM    2  C5  UNL     1      54.743   2.768  39.287  1.00  0.00     0.309 C 
BRANCH   2   3
HETATM    3  N1  UNL     1      55.126   2.969  40.668  1.00  0.00     0.110 N 
BRANCH   3   4
HETATM    4  C2  UNL     1      56.327   3.775  40.768  1.00  0.00     0.385 C 
BRANCH   4   5
HETATM    5  C1  UNL     1      55.994   5.128  41.241  1.00  0.00     0.202 C 
HETATM    6  O1  UNL     1      55.629   5.321  42.456  1.00  0.00    -0.647 OA
HETATM    7  O2  UNL     1      56.028   6.283  40.479  1.00  0.00    -0.647 OA
ENDBRANCH   4   5
ENDBRANCH   3   4
BRANCH   3   8
HETATM    8  C3  UNL     1      55.337   1.682  41.330  1.00  0.00     0.385 C 
BRANCH   8   9
HETATM    9  C4  UNL     1      54.334   1.551  42.405  1.00  0.00     0.202 C 
HETATM   10  O3  UNL     1      53.900   2.579  42.986  1.00  0.00    -0.647 OA
HETATM   11  O4  UNL     1      53.842   0.330  42.813  1.00  0.00    -0.647 OA
ENDBRANCH   8   9
ENDBRANCH   3   8
ENDBRANCH   2   3
ENDBRANCH   1   2
BRANCH   1  12
HETATM   12  C7  UNL     1      55.893   1.430  37.615  1.00  0.00     0.076 C 
BRANCH  12  13
HETATM   13  C8  UNL     1      57.187   0.986  38.153  1.00  0.00    -0.056 A 
HETATM   14  C9  UNL     1      58.290   1.803  38.128  1.00  0.00     0.009 A 
HETATM   15  C10 UNL     1      59.534   1.411  38.652  1.00  0.00     0.030 A 
HETATM   16  C11 UNL     1      59.703   0.173  39.219  1.00  0.00     0.034 A 
HETATM   17  C15 UNL     1      58.572  -0.663  39.244  1.00  0.00     0.030 A 
HETATM   18  C16 UNL     1      57.369  -0.254  38.726  1.00  0.00     0.009 A 
BRANCH  16  19
HETATM   19  N2  UNL     1      60.925  -0.321  39.752  1.00  0.00    -0.333 N 
ATOM     20  H2  UNL     1      61.144  -0.046  40.709  1.00  0.00     0.168 HD
BRANCH  19  21
HETATM   21  C12 UNL     1      61.860  -1.138  39.112  1.00  0.00     0.172 C 
HETATM   22  S1  UNL     1      62.951  -2.002  39.949  1.00  0.00    -0.041 SA
BRANCH  21  23
HETATM   23  N3  UNL     1      61.900  -1.218  37.708  1.00  0.00    -0.365 N 
ATOM     24  H3  UNL     1      61.237  -1.814  37.213  1.00  0.00     0.161 HD
BRANCH  23  25
HETATM   25  C13 UNL     1      62.876  -0.461  36.970  1.00  0.00     0.148 C 
BRANCH  25  26
HETATM   26  C14 UNL     1      62.203   0.625  36.146  1.00  0.00     0.183 C 
BRANCH  26  27
HETATM   27  O5  UNL     1      63.025   0.971  35.066  1.00  0.00    -0.399 OA
ATOM     28  H5  UNL     1      62.769   0.471  34.300  1.00  0.00     0.209 HD
ENDBRANCH  26  27
ENDBRANCH  25  26
ENDBRANCH  23  25
ENDBRANCH  21  23
ENDBRANCH  19  21
ENDBRANCH  16  19
ENDBRANCH  12  13
ENDBRANCH   1  12
BRANCH   1  29
HETATM   29  N4  UNL     1      53.619   0.957  37.961  1.00  0.00     0.115 N 
BRANCH  29  30
HETATM   30  C17 UNL     1      53.835   1.593  36.643  1.00  0.00     0.386 C 
BRANCH  30  31
HETATM   31  C18 UNL     1      52.615   1.768  35.858  1.00  0.00     0.202 C 
HETATM   32  O6  UNL     1      52.632   2.250  34.671  1.00  0.00    -0.647 OA
HETATM   33  O7  UNL     1      51.331   1.446  36.312  1.00  0.00    -0.647 OA
ENDBRANCH  30  31
ENDBRANCH  29  30
BRANCH  29  34
HETATM   34  C19 UNL     1      53.732  -0.457  37.706  1.00  0.00     0.386 C 
BRANCH  34  35
HETATM   35  C20 UNL     1      53.012  -1.337  38.621  1.00  0.00     0.202 C 
HETATM   36  O8  UNL     1      52.289  -2.280  38.299  1.00  0.00    -0.647 OA
HETATM   37  O9  UNL     1      53.120  -1.138  40.028  1.00  0.00    -0.647 OA
ENDBRANCH  34  35
ENDBRANCH  29  34
ENDBRANCH   1  29
TORSDOF 19
ENDMDL
