MODEL 5
REMARK VINA RESULT: -6.048124957      2.964      5.777
REMARK  19 active torsions:
REMARK  status: ('A' for Active; 'I' for Inactive)
REMARK    1  A    between atoms: C1_2  and  C2_4 
REMARK    2  A    between atoms: C2_4  and  N1_5 
REMARK    3  A    between atoms: N1_5  and  C3_6 
REMARK    4  A    between atoms: N1_5  and  C5_10 
REMARK    5  A    between atoms: C3_6  and  C4_7 
REMARK    6  A    between atoms: C5_10  and  C6_11 
REMARK    7  A    between atoms: C6_11  and  C7_12 
REMARK    8  A    between atoms: C6_11  and  N4_29 
REMARK    9  A    between atoms: C7_12  and  C8_13 
REMARK   10  A    between atoms: C11_16  and  N2_17 
REMARK   11  A    between atoms: N2_17  and  C12_19 
REMARK   12  A    between atoms: C12_19  and  N3_21 
REMARK   13  A    between atoms: N3_21  and  C13_23 
REMARK   14  A    between atoms: C13_23  and  C14_24 
REMARK   15  A    between atoms: C14_24  and  O5_25 
REMARK   16  A    between atoms: N4_29  and  C17_30 
REMARK   17  A    between atoms: N4_29  and  C19_34 
REMARK   18  A    between atoms: C17_30  and  C18_31 
REMARK   19  A    between atoms: C19_34  and  C20_35 
ROOT
HETATM    1  C6  UNL     1      56.773   1.129  38.921  1.00  0.00     0.256 C 
ENDROOT
BRANCH   1   2
HETATM    2  C5  UNL     1      56.264  -0.081  38.284  1.00  0.00     0.309 C 
BRANCH   2   3
HETATM    3  N1  UNL     1      54.902  -0.095  37.795  1.00  0.00     0.110 N 
BRANCH   3   4
HETATM    4  C2  UNL     1      54.381  -1.446  37.733  1.00  0.00     0.385 C 
BRANCH   4   5
HETATM    5  C1  UNL     1      53.066  -1.516  38.388  1.00  0.00     0.202 C 
HETATM    6  O1  UNL     1      52.778  -0.723  39.355  1.00  0.00    -0.647 OA
HETATM    7  O2  UNL     1      52.045  -2.392  38.063  1.00  0.00    -0.647 OA
ENDBRANCH   4   5
ENDBRANCH   3   4
BRANCH   3   8
HETATM    8  C3  UNL     1      54.830   0.525  36.472  1.00  0.00     0.385 C 
BRANCH   8   9
HETATM    9  C4  UNL     1      53.802   1.583  36.519  1.00  0.00     0.202 C 
HETATM   10  O3  UNL     1      53.576   2.190  37.597  1.00  0.00    -0.647 OA
HETATM   11  O4  UNL     1      53.060   1.943  35.415  1.00  0.00    -0.647 OA
ENDBRANCH   8   9
ENDBRANCH   3   8
ENDBRANCH   2   3
ENDBRANCH   1   2
BRANCH   1  12
HETATM   12  C7  UNL     1      58.092   0.724  39.669  1.00  0.00     0.076 C 
BRANCH  12  13
HETATM   13  C8  UNL     1      59.263   0.885  38.795  1.00  0.00    -0.056 A 
HETATM   14  C9  UNL     1      60.118  -0.159  38.545  1.00  0.00     0.009 A 
HETATM   15  C10 UNL     1      61.234  -0.038  37.699  1.00  0.00     0.030 A 
HETATM   16  C11 UNL     1      61.522   1.151  37.076  1.00  0.00     0.034 A 
HETATM   17  C15 UNL     1      60.645   2.219  37.333  1.00  0.00     0.030 A 
HETATM   18  C16 UNL     1      59.562   2.072  38.162  1.00  0.00     0.009 A 
BRANCH  16  19
HETATM   19  N2  UNL     1      62.638   1.376  36.225  1.00  0.00    -0.333 N 
ATOM     20  H2  UNL     1      62.473   1.968  35.411  1.00  0.00     0.168 HD
BRANCH  19  21
HETATM   21  C12 UNL     1      63.935   0.878  36.376  1.00  0.00     0.172 C 
HETATM   22  S1  UNL     1      65.058   1.674  37.236  1.00  0.00    -0.041 SA
BRANCH  21  23
HETATM   23  N3  UNL     1      64.314  -0.329  35.760  1.00  0.00    -0.365 N 
ATOM     24  H3  UNL     1      64.103  -0.486  34.775  1.00  0.00     0.161 HD
BRANCH  23  25
HETATM   25  C13 UNL     1      65.001  -1.341  36.518  1.00  0.00     0.148 C 
BRANCH  25  26
HETATM   26  C14 UNL     1      66.122  -1.959  35.699  1.00  0.00     0.183 C 
BRANCH  26  27
HETATM   27  O5  UNL     1      65.746  -2.004  34.350  1.00  0.00    -0.399 OA
ATOM     28  H5  UNL     1      66.096  -2.792  33.949  1.00  0.00     0.209 HD
ENDBRANCH  26  27
ENDBRANCH  25  26
ENDBRANCH  23  25
ENDBRANCH  21  23
ENDBRANCH  19  21
ENDBRANCH  16  19
ENDBRANCH  12  13
ENDBRANCH   1  12
BRANCH   1  29
HETATM   29  N4  UNL     1      55.987   1.702  40.030  1.00  0.00     0.115 N 
BRANCH  29  30
HETATM   30  C17 UNL     1      56.448   0.904  41.188  1.00  0.00     0.386 C 
BRANCH  30  31
HETATM   31  C18 UNL     1      55.371   0.252  41.929  1.00  0.00     0.202 C 
HETATM   32  O6  UNL     1      55.567  -0.801  42.632  1.00  0.00    -0.647 OA
HETATM   33  O7  UNL     1      54.042   0.690  41.941  1.00  0.00    -0.647 OA
ENDBRANCH  30  31
ENDBRANCH  29  30
BRANCH  29  34
HETATM   34  C19 UNL     1      56.441   3.041  40.307  1.00  0.00     0.386 C 
BRANCH  34  35
HETATM   35  C20 UNL     1      55.403   4.061  40.430  1.00  0.00     0.202 C 
HETATM   36  O8  UNL     1      54.190   3.856  40.485  1.00  0.00    -0.647 OA
HETATM   37  O9  UNL     1      55.766   5.437  40.502  1.00  0.00    -0.647 OA
ENDBRANCH  34  35
ENDBRANCH  29  34
ENDBRANCH   1  29
TORSDOF 19
ENDMDL
