MODEL 11
REMARK VINA RESULT: -2.177635869      8.560      9.487
REMARK  0 active torsions:
REMARK  status: ('A' for Active; 'I' for Inactive)
ROOT
HETATM    1  O1  UNL     1      34.975  18.241   9.841  1.00  0.00    -0.609 OA
HETATM    2  P1  UNL     1      35.653  17.162   8.987  1.00  0.00     0.436 P 
HETATM    3  O2  UNL     1      36.653  16.318  10.075  1.00  0.00    -0.609 OA
HETATM    4  O3  UNL     1      36.611  17.975   7.888  1.00  0.00    -0.609 OA
HETATM    5  O4  UNL     1      34.532  16.141   8.292  1.00  0.00    -0.609 OA
ENDROOT
TORSDOF 0
ENDMDL
