MODEL 13
REMARK VINA RESULT: -1.714307520      9.429     10.234
REMARK  0 active torsions:
REMARK  status: ('A' for Active; 'I' for Inactive)
ROOT
HETATM    1  O1  UNL     1      36.852  16.142   8.333  1.00  0.00    -0.609 OA
HETATM    2  P1  UNL     1      35.931  17.217   7.742  1.00  0.00     0.436 P 
HETATM    3  O2  UNL     1      35.120  17.875   9.085  1.00  0.00    -0.609 OA
HETATM    4  O3  UNL     1      34.828  16.407   6.786  1.00  0.00    -0.609 OA
HETATM    5  O4  UNL     1      36.801  18.389   6.936  1.00  0.00    -0.609 OA
ENDROOT
TORSDOF 0
ENDMDL
