MODEL 3
REMARK VINA RESULT: -4.082338861      0.062      2.153
REMARK  0 active torsions:
REMARK  status: ('A' for Active; 'I' for Inactive)
ROOT
HETATM    1  O1  UNL     1      30.948  24.093  12.582  1.00  0.00    -0.609 OA
HETATM    2  P1  UNL     1      30.271  23.112  13.548  1.00  0.00     0.436 P 
HETATM    3  O2  UNL     1      31.541  22.155  14.151  1.00  0.00    -0.609 OA
HETATM    4  O3  UNL     1      29.269  22.159  12.613  1.00  0.00    -0.609 OA
HETATM    5  O4  UNL     1      29.491  23.916  14.783  1.00  0.00    -0.609 OA
ENDROOT
TORSDOF 0
ENDMDL
