MODEL 4
REMARK VINA RESULT: -4.079416989      0.153      2.385
REMARK  0 active torsions:
REMARK  status: ('A' for Active; 'I' for Inactive)
ROOT
HETATM    1  O1  UNL     1      29.554  23.705  14.700  1.00  0.00    -0.609 OA
HETATM    2  P1  UNL     1      30.260  23.059  13.502  1.00  0.00     0.436 P 
HETATM    3  O2  UNL     1      31.540  22.169  14.184  1.00  0.00    -0.609 OA
HETATM    4  O3  UNL     1      30.892  24.316  12.604  1.00  0.00    -0.609 OA
HETATM    5  O4  UNL     1      29.228  22.063  12.650  1.00  0.00    -0.609 OA
ENDROOT
TORSDOF 0
ENDMDL
