MODEL 1
REMARK VINA RESULT: -4.231535002      0.000      0.000
REMARK  0 active torsions:
REMARK  status: ('A' for Active; 'I' for Inactive)
ROOT
HETATM    1  O1  UNL     1      30.915  24.127  12.610  1.00  0.00    -0.609 OA
HETATM    2  P1  UNL     1      30.345  23.070  13.565  1.00  0.00     0.436 P 
HETATM    3  O2  UNL     1      29.249  22.179  12.617  1.00  0.00    -0.609 OA
HETATM    4  O3  UNL     1      29.496  23.911  14.731  1.00  0.00    -0.609 OA
HETATM    5  O4  UNL     1      31.547  22.086  14.172  1.00  0.00    -0.609 OA
ENDROOT
TORSDOF 0
ENDMDL
