MODEL 2
REMARK VINA RESULT: -4.112563970      0.071      2.144
REMARK  0 active torsions:
REMARK  status: ('A' for Active; 'I' for Inactive)
ROOT
HETATM    1  O1  UNL     1      30.913  24.141  12.631  1.00  0.00    -0.609 OA
HETATM    2  P1  UNL     1      30.278  23.047  13.499  1.00  0.00     0.436 P 
HETATM    3  O2  UNL     1      29.487  23.892  14.746  1.00  0.00    -0.609 OA
HETATM    4  O3  UNL     1      31.547  22.180  14.151  1.00  0.00    -0.609 OA
HETATM    5  O4  UNL     1      29.199  22.125  12.624  1.00  0.00    -0.609 OA
ENDROOT
TORSDOF 0
ENDMDL
