MODEL 5
REMARK VINA RESULT: -4.021251921      0.160      2.066
REMARK  0 active torsions:
REMARK  status: ('A' for Active; 'I' for Inactive)
ROOT
HETATM    1  O1  UNL     1      29.497  23.658  14.662  1.00  0.00    -0.609 OA
HETATM    2  P1  UNL     1      30.328  23.011  13.547  1.00  0.00     0.436 P 
HETATM    3  O2  UNL     1      30.870  24.317  12.600  1.00  0.00    -0.609 OA
HETATM    4  O3  UNL     1      29.262  22.094  12.647  1.00  0.00    -0.609 OA
HETATM    5  O4  UNL     1      31.614  22.149  14.167  1.00  0.00    -0.609 OA
ENDROOT
TORSDOF 0
ENDMDL
