MODEL 12
REMARK VINA RESULT: -2.135568302      8.498      9.334
REMARK  0 active torsions:
REMARK  status: ('A' for Active; 'I' for Inactive)
ROOT
HETATM    1  O1  UNL     1      34.785  18.153   9.873  1.00  0.00    -0.609 OA
HETATM    2  P1  UNL     1      35.612  17.083   9.150  1.00  0.00     0.436 P 
HETATM    3  O2  UNL     1      36.564  17.952   8.040  1.00  0.00    -0.609 OA
HETATM    4  O3  UNL     1      34.519  16.143   8.308  1.00  0.00    -0.609 OA
HETATM    5  O4  UNL     1      36.568  16.228  10.216  1.00  0.00    -0.609 OA
ENDROOT
TORSDOF 0
ENDMDL
