MODEL 1
REMARK VINA RESULT: -8.232150705      0.000      0.000
REMARK  6 active torsions:
REMARK  status: ('A' for Active; 'I' for Inactive)
REMARK    1  A    between atoms: N1_1  and  S1_4 
REMARK    2  A    between atoms: S1_4  and  N2_7 
REMARK    3  A    between atoms: N2_7  and  C1_9 
REMARK    4  A    between atoms: C1_9  and  C2_10 
REMARK    5  A    between atoms: C1_9  and  C9_17 
REMARK    6  A    between atoms: C2_10  and  C3_11 
ROOT
HETATM    1  C1  UNL     1       5.198  -9.724  15.382  1.00  0.00     0.199 C 
ENDROOT
BRANCH   1   2
HETATM    2  N2  UNL     1       5.503 -10.291  16.686  1.00  0.00    -0.288 N 
ATOM      3  H2  UNL     1       5.495 -11.292  16.882  1.00  0.00     0.174 HD
BRANCH   2   4
HETATM    4  S1  UNL     1       5.877  -9.102  17.860  1.00  0.00     0.313 S 
HETATM    5  O1  UNL     1       6.434  -7.901  17.104  1.00  0.00    -0.183 OA
HETATM    6  O2  UNL     1       4.672  -8.608  18.594  1.00  0.00    -0.183 OA
BRANCH   4   7
HETATM    7  N1  UNL     1       7.118  -9.661  18.897  1.00  0.00    -0.312 N 
ATOM      8  H12 UNL     1       8.109  -9.721  18.662  1.00  0.00     0.170 HD
ATOM      9  H11 UNL     1       6.677  -9.918  19.780  1.00  0.00     0.170 HD
ENDBRANCH   4   7
ENDBRANCH   2   4
ENDBRANCH   1   2
BRANCH   1  10
HETATM   10  C2  UNL     1       5.440 -10.689  14.277  1.00  0.00     0.075 C 
BRANCH  10  11
HETATM   11  C3  UNL     1       5.510 -10.043  12.956  1.00  0.00    -0.056 A 
HETATM   12  C4  UNL     1       4.472 -10.113  12.053  1.00  0.00     0.007 A 
HETATM   13  C5  UNL     1       4.505  -9.504  10.820  1.00  0.00     0.001 A 
HETATM   14  C6  UNL     1       5.612  -8.781  10.435  1.00  0.00     0.000 A 
HETATM   15  C7  UNL     1       6.665  -8.693  11.316  1.00  0.00     0.001 A 
HETATM   16  C8  UNL     1       6.610  -9.312  12.549  1.00  0.00     0.007 A 
ENDBRANCH  10  11
ENDBRANCH   1  10
BRANCH   1  17
HETATM   17  C9  UNL     1       3.858  -9.100  15.369  1.00  0.00     0.197 C 
HETATM   18  O3  UNL     1       2.884  -9.646  15.987  1.00  0.00    -0.646 OA
HETATM   19  O4  UNL     1       3.607  -7.922  14.703  1.00  0.00    -0.646 OA
ENDBRANCH   1  17
TORSDOF 6
ENDMDL
