MODEL 19
REMARK VINA RESULT: -6.140167580      1.356      1.937
REMARK  6 active torsions:
REMARK  status: ('A' for Active; 'I' for Inactive)
REMARK    1  A    between atoms: N1_1  and  S1_4 
REMARK    2  A    between atoms: S1_4  and  N2_7 
REMARK    3  A    between atoms: N2_7  and  C1_9 
REMARK    4  A    between atoms: C1_9  and  C2_10 
REMARK    5  A    between atoms: C1_9  and  C9_17 
REMARK    6  A    between atoms: C2_10  and  C3_11 
ROOT
HETATM    1  C1  UNL     1       5.095  -8.694  16.153  1.00  0.00     0.199 C 
ENDROOT
BRANCH   1   2
HETATM    2  N2  UNL     1       5.450  -9.896  16.892  1.00  0.00    -0.288 N 
ATOM      3  H2  UNL     1       5.695 -10.780  16.446  1.00  0.00     0.174 HD
BRANCH   2   4
HETATM    4  S1  UNL     1       5.417  -9.670  18.589  1.00  0.00     0.313 S 
HETATM    5  O1  UNL     1       6.830  -9.936  19.094  1.00  0.00    -0.183 OA
HETATM    6  O2  UNL     1       5.092  -8.265  18.983  1.00  0.00    -0.183 OA
BRANCH   4   7
HETATM    7  N1  UNL     1       4.396 -10.831  19.322  1.00  0.00    -0.312 N 
ATOM      8  H12 UNL     1       4.381 -11.829  19.111  1.00  0.00     0.170 HD
ATOM      9  H11 UNL     1       3.816 -10.335  19.998  1.00  0.00     0.170 HD
ENDBRANCH   4   7
ENDBRANCH   2   4
ENDBRANCH   1   2
BRANCH   1  10
HETATM   10  C2  UNL     1       6.178  -8.257  15.232  1.00  0.00     0.075 C 
BRANCH  10  11
HETATM   11  C3  UNL     1       6.204  -9.022  13.974  1.00  0.00    -0.056 A 
HETATM   12  C4  UNL     1       6.562  -8.445  12.777  1.00  0.00     0.007 A 
HETATM   13  C5  UNL     1       6.612  -9.140  11.591  1.00  0.00     0.001 A 
HETATM   14  C6  UNL     1       6.295 -10.480  11.560  1.00  0.00     0.000 A 
HETATM   15  C7  UNL     1       5.933 -11.085  12.742  1.00  0.00     0.001 A 
HETATM   16  C8  UNL     1       5.890 -10.367  13.921  1.00  0.00     0.007 A 
ENDBRANCH  10  11
ENDBRANCH   1  10
BRANCH   1  17
HETATM   17  C9  UNL     1       3.767  -8.829  15.518  1.00  0.00     0.197 C 
HETATM   18  O3  UNL     1       2.974  -9.767  15.868  1.00  0.00    -0.646 OA
HETATM   19  O4  UNL     1       3.334  -7.963  14.540  1.00  0.00    -0.646 OA
ENDBRANCH   1  17
TORSDOF 6
ENDMDL
