MODEL 3
REMARK VINA RESULT: -7.402457723      0.942      1.391
REMARK  6 active torsions:
REMARK  status: ('A' for Active; 'I' for Inactive)
REMARK    1  A    between atoms: N1_1  and  S1_4 
REMARK    2  A    between atoms: S1_4  and  N2_7 
REMARK    3  A    between atoms: N2_7  and  C1_9 
REMARK    4  A    between atoms: C1_9  and  C2_10 
REMARK    5  A    between atoms: C1_9  and  C9_17 
REMARK    6  A    between atoms: C2_10  and  C3_11 
ROOT
HETATM    1  C1  UNL     1       5.296  -9.837  15.081  1.00  0.00     0.199 C 
ENDROOT
BRANCH   1   2
HETATM    2  N2  UNL     1       5.665 -10.516  16.313  1.00  0.00    -0.288 N 
ATOM      3  H2  UNL     1       5.887 -11.511  16.364  1.00  0.00     0.174 HD
BRANCH   2   4
HETATM    4  S1  UNL     1       5.691  -9.472  17.669  1.00  0.00     0.313 S 
HETATM    5  O1  UNL     1       6.789  -9.982  18.595  1.00  0.00    -0.183 OA
HETATM    6  O2  UNL     1       6.064  -8.068  17.316  1.00  0.00    -0.183 OA
BRANCH   4   7
HETATM    7  N1  UNL     1       4.217  -9.583  18.532  1.00  0.00    -0.312 N 
ATOM      8  H12 UNL     1       3.945 -10.347  19.149  1.00  0.00     0.170 HD
ATOM      9  H11 UNL     1       3.676  -8.747  18.308  1.00  0.00     0.170 HD
ENDBRANCH   4   7
ENDBRANCH   2   4
ENDBRANCH   1   2
BRANCH   1  10
HETATM   10  C2  UNL     1       5.409 -10.723  13.892  1.00  0.00     0.075 C 
BRANCH  10  11
HETATM   11  C3  UNL     1       5.426  -9.980  12.622  1.00  0.00    -0.056 A 
HETATM   12  C4  UNL     1       4.344  -9.967  11.770  1.00  0.00     0.007 A 
HETATM   13  C5  UNL     1       4.327  -9.267  10.585  1.00  0.00     0.001 A 
HETATM   14  C6  UNL     1       5.426  -8.532  10.200  1.00  0.00     0.000 A 
HETATM   15  C7  UNL     1       6.523  -8.526  11.031  1.00  0.00     0.001 A 
HETATM   16  C8  UNL     1       6.518  -9.236  12.216  1.00  0.00     0.007 A 
ENDBRANCH  10  11
ENDBRANCH   1  10
BRANCH   1  17
HETATM   17  C9  UNL     1       3.991  -9.155  15.215  1.00  0.00     0.197 C 
HETATM   18  O3  UNL     1       3.805  -8.006  14.690  1.00  0.00    -0.646 OA
HETATM   19  O4  UNL     1       2.939  -9.719  15.899  1.00  0.00    -0.646 OA
ENDBRANCH   1  17
TORSDOF 6
ENDMDL
