MODEL 6
REMARK VINA RESULT: -6.726226010      4.695      6.569
REMARK  6 active torsions:
REMARK  status: ('A' for Active; 'I' for Inactive)
REMARK    1  A    between atoms: N1_1  and  S1_4 
REMARK    2  A    between atoms: S1_4  and  N2_7 
REMARK    3  A    between atoms: N2_7  and  C1_9 
REMARK    4  A    between atoms: C1_9  and  C2_10 
REMARK    5  A    between atoms: C1_9  and  C9_17 
REMARK    6  A    between atoms: C2_10  and  C3_11 
ROOT
HETATM    1  C1  UNL     1       5.271  -9.740  18.437  1.00  0.00     0.199 C 
ENDROOT
BRANCH   1   2
HETATM    2  N2  UNL     1       5.058  -8.587  17.574  1.00  0.00    -0.288 N 
ATOM      3  H2  UNL     1       5.067  -7.624  17.908  1.00  0.00     0.174 HD
BRANCH   2   4
HETATM    4  S1  UNL     1       4.794  -9.019  15.939  1.00  0.00     0.313 S 
HETATM    5  O1  UNL     1       3.294  -9.242  15.782  1.00  0.00    -0.183 OA
HETATM    6  O2  UNL     1       5.154  -7.927  14.983  1.00  0.00    -0.183 OA
BRANCH   4   7
HETATM    7  N1  UNL     1       5.561 -10.507  15.585  1.00  0.00    -0.312 N 
ATOM      8  H12 UNL     1       5.187 -11.433  15.790  1.00  0.00     0.170 HD
ATOM      9  H11 UNL     1       6.450 -10.285  15.137  1.00  0.00     0.170 HD
ENDBRANCH   4   7
ENDBRANCH   2   4
ENDBRANCH   1   2
BRANCH   1  10
HETATM   10  C2  UNL     1       6.577  -9.679  19.146  1.00  0.00     0.075 C 
BRANCH  10  11
HETATM   11  C3  UNL     1       6.988 -10.979  19.702  1.00  0.00    -0.056 A 
HETATM   12  C4  UNL     1       7.158 -11.174  21.054  1.00  0.00     0.007 A 
HETATM   13  C5  UNL     1       7.525 -12.382  21.601  1.00  0.00     0.001 A 
HETATM   14  C6  UNL     1       7.741 -13.472  20.788  1.00  0.00     0.000 A 
HETATM   15  C7  UNL     1       7.579 -13.308  19.431  1.00  0.00     0.001 A 
HETATM   16  C8  UNL     1       7.210 -12.086  18.904  1.00  0.00     0.007 A 
ENDBRANCH  10  11
ENDBRANCH   1  10
BRANCH   1  17
HETATM   17  C9  UNL     1       4.106  -9.974  19.316  1.00  0.00     0.197 C 
HETATM   18  O3  UNL     1       4.154  -9.657  20.552  1.00  0.00    -0.646 OA
HETATM   19  O4  UNL     1       2.938 -10.530  18.847  1.00  0.00    -0.646 OA
ENDBRANCH   1  17
TORSDOF 6
ENDMDL
