MODEL 4
REMARK VINA RESULT: -6.743507657      4.731      6.553
REMARK  6 active torsions:
REMARK  status: ('A' for Active; 'I' for Inactive)
REMARK    1  A    between atoms: N1_1  and  S1_4 
REMARK    2  A    between atoms: S1_4  and  N2_7 
REMARK    3  A    between atoms: N2_7  and  C1_9 
REMARK    4  A    between atoms: C1_9  and  C2_10 
REMARK    5  A    between atoms: C1_9  and  C9_17 
REMARK    6  A    between atoms: C2_10  and  C3_11 
ROOT
HETATM    1  C1  UNL     1       5.228  -9.738  18.488  1.00  0.00     0.199 C 
ENDROOT
BRANCH   1   2
HETATM    2  N2  UNL     1       5.023  -8.584  17.626  1.00  0.00    -0.288 N 
ATOM      3  H2  UNL     1       5.024  -7.621  17.964  1.00  0.00     0.174 HD
BRANCH   2   4
HETATM    4  S1  UNL     1       4.781  -9.011  15.986  1.00  0.00     0.313 S 
HETATM    5  O1  UNL     1       3.284  -9.234  15.808  1.00  0.00    -0.183 OA
HETATM    6  O2  UNL     1       5.153  -7.916  15.039  1.00  0.00    -0.183 OA
BRANCH   4   7
HETATM    7  N1  UNL     1       5.554 -10.497  15.639  1.00  0.00    -0.312 N 
ATOM      8  H12 UNL     1       5.457 -11.359  16.176  1.00  0.00     0.170 HD
ATOM      9  H11 UNL     1       6.122 -10.351  14.804  1.00  0.00     0.170 HD
ENDBRANCH   4   7
ENDBRANCH   2   4
ENDBRANCH   1   2
BRANCH   1  10
HETATM   10  C2  UNL     1       6.529  -9.682  19.206  1.00  0.00     0.075 C 
BRANCH  10  11
HETATM   11  C3  UNL     1       6.939 -10.986  19.752  1.00  0.00    -0.056 A 
HETATM   12  C4  UNL     1       7.171 -12.076  18.943  1.00  0.00     0.007 A 
HETATM   13  C5  UNL     1       7.571 -13.301  19.425  1.00  0.00     0.001 A 
HETATM   14  C6  UNL     1       7.760 -13.483  20.777  1.00  0.00     0.000 A 
HETATM   15  C7  UNL     1       7.537 -12.412  21.611  1.00  0.00     0.001 A 
HETATM   16  C8  UNL     1       7.135 -11.192  21.105  1.00  0.00     0.007 A 
ENDBRANCH  10  11
ENDBRANCH   1  10
BRANCH   1  17
HETATM   17  C9  UNL     1       4.057  -9.971  19.360  1.00  0.00     0.197 C 
HETATM   18  O3  UNL     1       2.997 -10.505  18.890  1.00  0.00    -0.646 OA
HETATM   19  O4  UNL     1       4.059  -9.629  20.693  1.00  0.00    -0.646 OA
ENDBRANCH   1  17
TORSDOF 6
ENDMDL
