MODEL 10
REMARK VINA RESULT: -6.472200240      1.183      1.863
REMARK  6 active torsions:
REMARK  status: ('A' for Active; 'I' for Inactive)
REMARK    1  A    between atoms: N1_1  and  S1_4 
REMARK    2  A    between atoms: S1_4  and  N2_7 
REMARK    3  A    between atoms: N2_7  and  C1_9 
REMARK    4  A    between atoms: C1_9  and  C2_10 
REMARK    5  A    between atoms: C1_9  and  C9_17 
REMARK    6  A    between atoms: C2_10  and  C3_11 
ROOT
HETATM    1  C1  UNL     1       5.153  -8.708  15.918  1.00  0.00     0.199 C 
ENDROOT
BRANCH   1   2
HETATM    2  N2  UNL     1       5.473  -9.932  16.637  1.00  0.00    -0.288 N 
ATOM      3  H2  UNL     1       5.646 -10.826  16.178  1.00  0.00     0.174 HD
BRANCH   2   4
HETATM    4  S1  UNL     1       5.529  -9.713  18.334  1.00  0.00     0.313 S 
HETATM    5  O1  UNL     1       5.084  -8.282  18.606  1.00  0.00    -0.183 OA
HETATM    6  O2  UNL     1       4.569 -10.594  19.067  1.00  0.00    -0.183 OA
BRANCH   4   7
HETATM    7  N1  UNL     1       7.139  -9.853  18.897  1.00  0.00    -0.312 N 
ATOM      8  H12 UNL     1       7.834  -9.107  18.907  1.00  0.00     0.170 HD
ATOM      9  H11 UNL     1       7.262 -10.815  19.215  1.00  0.00     0.170 HD
ENDBRANCH   4   7
ENDBRANCH   2   4
ENDBRANCH   1   2
BRANCH   1  10
HETATM   10  C2  UNL     1       6.295  -8.220  15.100  1.00  0.00     0.075 C 
BRANCH  10  11
HETATM   11  C3  UNL     1       6.354  -8.844  13.768  1.00  0.00    -0.056 A 
HETATM   12  C4  UNL     1       6.511  -8.100  12.620  1.00  0.00     0.007 A 
HETATM   13  C5  UNL     1       6.587  -8.659  11.365  1.00  0.00     0.001 A 
HETATM   14  C6  UNL     1       6.506 -10.025  11.210  1.00  0.00     0.000 A 
HETATM   15  C7  UNL     1       6.349 -10.795  12.340  1.00  0.00     0.001 A 
HETATM   16  C8  UNL     1       6.275 -10.213  13.590  1.00  0.00     0.007 A 
ENDBRANCH  10  11
ENDBRANCH   1  10
BRANCH   1  17
HETATM   17  C9  UNL     1       3.880  -8.838  15.178  1.00  0.00     0.197 C 
HETATM   18  O3  UNL     1       3.325  -7.811  14.661  1.00  0.00    -0.646 OA
HETATM   19  O4  UNL     1       3.250 -10.051  15.016  1.00  0.00    -0.646 OA
ENDBRANCH   1  17
TORSDOF 6
ENDMDL
