MODEL 2
REMARK VINA RESULT: -8.206771205      0.030      1.174
REMARK  6 active torsions:
REMARK  status: ('A' for Active; 'I' for Inactive)
REMARK    1  A    between atoms: N1_1  and  S1_4 
REMARK    2  A    between atoms: S1_4  and  N2_7 
REMARK    3  A    between atoms: N2_7  and  C1_9 
REMARK    4  A    between atoms: C1_9  and  C2_10 
REMARK    5  A    between atoms: C1_9  and  C9_17 
REMARK    6  A    between atoms: C2_10  and  C3_11 
ROOT
HETATM    1  C1  UNL     1       5.199  -9.725  15.376  1.00  0.00     0.199 C 
ENDROOT
BRANCH   1   2
HETATM    2  N2  UNL     1       5.514 -10.306  16.673  1.00  0.00    -0.288 N 
ATOM      3  H2  UNL     1       5.521 -11.309  16.855  1.00  0.00     0.174 HD
BRANCH   2   4
HETATM    4  S1  UNL     1       5.872  -9.127  17.862  1.00  0.00     0.313 S 
HETATM    5  O1  UNL     1       6.422  -7.913  17.123  1.00  0.00    -0.183 OA
HETATM    6  O2  UNL     1       4.659  -8.653  18.595  1.00  0.00    -0.183 OA
BRANCH   4   7
HETATM    7  N1  UNL     1       7.113  -9.687  18.898  1.00  0.00    -0.312 N 
ATOM      8  H12 UNL     1       7.663  -9.110  19.535  1.00  0.00     0.170 HD
ATOM      9  H11 UNL     1       7.191 -10.694  18.754  1.00  0.00     0.170 HD
ENDBRANCH   4   7
ENDBRANCH   2   4
ENDBRANCH   1   2
BRANCH   1  10
HETATM   10  C2  UNL     1       5.438 -10.678  14.260  1.00  0.00     0.075 C 
BRANCH  10  11
HETATM   11  C3  UNL     1       5.479 -10.020  12.943  1.00  0.00    -0.056 A 
HETATM   12  C4  UNL     1       6.575  -9.301  12.521  1.00  0.00     0.007 A 
HETATM   13  C5  UNL     1       6.647  -8.690  11.291  1.00  0.00     0.001 A 
HETATM   14  C6  UNL     1       5.591  -8.782  10.410  1.00  0.00     0.000 A 
HETATM   15  C7  UNL     1       4.482  -9.495  10.804  1.00  0.00     0.001 A 
HETATM   16  C8  UNL     1       4.432 -10.099  12.045  1.00  0.00     0.007 A 
ENDBRANCH  10  11
ENDBRANCH   1  10
BRANCH   1  17
HETATM   17  C9  UNL     1       3.857  -9.106  15.378  1.00  0.00     0.197 C 
HETATM   18  O3  UNL     1       2.889  -9.661  15.998  1.00  0.00    -0.646 OA
HETATM   19  O4  UNL     1       3.598  -7.923  14.724  1.00  0.00    -0.646 OA
ENDBRANCH   1  17
TORSDOF 6
ENDMDL
