MODEL 3
REMARK VINA RESULT: -10.537357447      4.702      6.953
REMARK  15 active torsions:
REMARK  status: ('A' for Active; 'I' for Inactive)
REMARK    1  A    between atoms: C1_2  and  C2_4 
REMARK    2  A    between atoms: N2_8  and  C6_9 
REMARK    3  A    between atoms: C7_11  and  C8_12 
REMARK    4  A    between atoms: C8_12  and  O3_13 
REMARK    5  A    between atoms: O3_13  and  P1_14 
REMARK    6  A    between atoms: P1_14  and  O6_17 
REMARK    7  A    between atoms: O6_17  and  P2_18 
REMARK    8  A    between atoms: P2_18  and  O9_21 
REMARK    9  A    between atoms: O9_21  and  C9_22 
REMARK   10  A    between atoms: C9_22  and  C10_23 
REMARK   11  A    between atoms: C11_25  and  N3_26 
REMARK   12  A    between atoms: C17_39  and  O11_40 
REMARK   13  A    between atoms: C18_42  and  O12_43 
REMARK   14  A    between atoms: C19_45  and  O13_46 
REMARK   15  A    between atoms: C20_48  and  O14_49 
ROOT
HETATM    1  P2  UNL     1       9.827  21.668   6.580  1.00  0.00     0.417 P 
HETATM    2  O7  UNL     1       8.459  22.269   6.696  1.00  0.00    -0.624 OA
HETATM    3  O8  UNL     1       9.900  20.991   4.969  1.00  0.00    -0.624 OA
ENDROOT
BRANCH   1   4
HETATM    4  O6  UNL     1      11.033  22.719   6.786  1.00  0.00    -0.180 OA
BRANCH   4   5
HETATM    5  P1  UNL     1      12.534  22.124   7.146  1.00  0.00     0.417 P 
HETATM    6  O4  UNL     1      12.614  21.371   8.405  1.00  0.00    -0.624 OA
HETATM    7  O5  UNL     1      13.584  23.547   7.446  1.00  0.00    -0.624 OA
BRANCH   5   8
HETATM    8  O3  UNL     1      13.213  21.406   5.840  1.00  0.00    -0.287 OA
BRANCH   8   9
HETATM    9  C8  UNL     1      14.391  22.041   5.387  1.00  0.00     0.216 C 
BRANCH   9  10
HETATM   10  C7  UNL     1      13.901  22.583   4.010  1.00  0.00     0.180 C 
HETATM   11  O2  UNL     1      14.955  23.189   3.372  1.00  0.00    -0.353 OA
HETATM   12  C6  UNL     1      15.044  22.779   2.062  1.00  0.00     0.259 C 
HETATM   13  C20 UNL     1      13.646  22.233   1.753  1.00  0.00     0.198 C 
HETATM   14  C19 UNL     1      13.341  21.555   3.122  1.00  0.00     0.182 C 
BRANCH  12  15
HETATM   15  N2  UNL     1      15.944  21.606   2.093  1.00  0.00    -0.336 N 
HETATM   16  C5  UNL     1      15.524  20.391   1.734  1.00  0.00     0.093 A 
HETATM   17  C4  UNL     1      16.368  19.292   1.890  1.00  0.00     0.018 A 
HETATM   18  C3  UNL     1      17.618  19.465   2.412  1.00  0.00     0.019 A 
HETATM   19  C2  UNL     1      18.013  20.726   2.772  1.00  0.00     0.044 A 
HETATM   20  C21 UNL     1      17.164  21.799   2.608  1.00  0.00     0.110 A 
BRANCH  19  21
HETATM   21  C1  UNL     1      19.313  20.954   3.375  1.00  0.00     0.266 C 
HETATM   22  N1  UNL     1      20.427  21.263   2.562  1.00  0.00    -0.057 NA
HETATM   23  O1  UNL     1      19.515  20.886   4.635  1.00  0.00    -0.271 OA
ENDBRANCH  19  21
ENDBRANCH  12  15
BRANCH  13  24
HETATM   24  O14 UNL     1      12.740  23.288   1.656  1.00  0.00    -0.388 OA
ATOM     25  H14 UNL     1      12.104  23.104   0.974  1.00  0.00     0.210 HD
ENDBRANCH  13  24
BRANCH  14  26
HETATM   26  O13 UNL     1      11.964  21.339   3.257  1.00  0.00    -0.390 OA
ATOM     27  H13 UNL     1      11.465  22.088   3.560  1.00  0.00     0.210 HD
ENDBRANCH  14  26
ENDBRANCH   9  10
ENDBRANCH   8   9
ENDBRANCH   5   8
ENDBRANCH   4   5
ENDBRANCH   1   4
BRANCH   1  28
HETATM   28  O9  UNL     1       9.799  20.246   7.565  1.00  0.00    -0.287 OA
BRANCH  28  29
HETATM   29  C9  UNL     1       8.691  19.518   7.019  1.00  0.00     0.216 C 
BRANCH  29  30
HETATM   30  C10 UNL     1       7.880  18.988   8.122  1.00  0.00     0.180 C 
HETATM   31  O10 UNL     1       8.478  17.788   8.599  1.00  0.00    -0.353 OA
HETATM   32  C11 UNL     1       7.601  17.507   9.668  1.00  0.00     0.262 C 
HETATM   33  C17 UNL     1       7.879  18.814  10.460  1.00  0.00     0.198 C 
HETATM   34  C18 UNL     1       7.708  19.842   9.305  1.00  0.00     0.182 C 
BRANCH  32  35
HETATM   35  N3  UNL     1       8.034  16.343  10.339  1.00  0.00    -0.297 N 
HETATM   36  C12 UNL     1       9.305  16.011  10.748  1.00  0.00     0.188 A 
HETATM   37  N4  UNL     1       9.305  14.825  11.359  1.00  0.00    -0.346 N 
HETATM   38  C13 UNL     1       8.012  14.386  11.356  1.00  0.00     0.119 A 
ATOM     39  H4  UNL     1      10.112  14.342  11.752  1.00  0.00     0.167 HD
HETATM   40  C14 UNL     1       7.452  13.238  11.836  1.00  0.00     0.148 A 
HETATM   41  C16 UNL     1       7.242  15.343  10.713  1.00  0.00     0.142 A 
HETATM   42  N5  UNL     1       8.236  12.271  12.528  1.00  0.00    -0.080 NA
HETATM   43  N6  UNL     1       6.137  13.019  11.676  1.00  0.00    -0.339 N 
HETATM   44  C15 UNL     1       5.373  13.919  11.051  1.00  0.00     0.183 A 
ATOM     45  H6  UNL     1       5.719  12.160  12.034  1.00  0.00     0.167 HD
HETATM   46  N7  UNL     1       5.937  15.072  10.579  1.00  0.00    -0.336 N 
ATOM     47  H7  UNL     1       5.341  15.752  10.106  1.00  0.00     0.168 HD
ENDBRANCH  32  35
BRANCH  33  48
HETATM   48  O11 UNL     1       7.058  19.008  11.515  1.00  0.00    -0.388 OA
ATOM     49  H11 UNL     1       6.133  18.956  11.306  1.00  0.00     0.210 HD
ENDBRANCH  33  48
BRANCH  34  50
HETATM   50  O12 UNL     1       6.345  20.264   9.391  1.00  0.00    -0.390 OA
ATOM     51  H12 UNL     1       5.905  19.771  10.074  1.00  0.00     0.210 HD
ENDBRANCH  34  50
ENDBRANCH  29  30
ENDBRANCH  28  29
ENDBRANCH   1  28
TORSDOF 15
ENDMDL
