MODEL 1
REMARK VINA RESULT: -10.620210023      0.000      0.000
REMARK  15 active torsions:
REMARK  status: ('A' for Active; 'I' for Inactive)
REMARK    1  A    between atoms: C1_2  and  C2_4 
REMARK    2  A    between atoms: N2_8  and  C6_9 
REMARK    3  A    between atoms: C7_11  and  C8_12 
REMARK    4  A    between atoms: C8_12  and  O3_13 
REMARK    5  A    between atoms: O3_13  and  P1_14 
REMARK    6  A    between atoms: P1_14  and  O6_17 
REMARK    7  A    between atoms: O6_17  and  P2_18 
REMARK    8  A    between atoms: P2_18  and  O9_21 
REMARK    9  A    between atoms: O9_21  and  C9_22 
REMARK   10  A    between atoms: C9_22  and  C10_23 
REMARK   11  A    between atoms: C11_25  and  N3_26 
REMARK   12  A    between atoms: C17_39  and  O11_40 
REMARK   13  A    between atoms: C18_42  and  O12_43 
REMARK   14  A    between atoms: C19_45  and  O13_46 
REMARK   15  A    between atoms: C20_48  and  O14_49 
ROOT
HETATM    1  P2  UNL     1      13.391  19.299   1.542  1.00  0.00     0.417 P 
HETATM    2  O7  UNL     1      13.716  18.730   0.193  1.00  0.00    -0.624 OA
HETATM    3  O8  UNL     1      11.645  19.392   1.596  1.00  0.00    -0.624 OA
ENDROOT
BRANCH   1   4
HETATM    4  O6  UNL     1      13.930  18.419   2.781  1.00  0.00    -0.180 OA
BRANCH   4   5
HETATM    5  P1  UNL     1      15.015  17.211   2.468  1.00  0.00     0.417 P 
HETATM    6  O4  UNL     1      14.812  16.515   1.191  1.00  0.00    -0.624 OA
HETATM    7  O5  UNL     1      14.714  15.932   3.690  1.00  0.00    -0.624 OA
BRANCH   5   8
HETATM    8  O3  UNL     1      16.547  17.697   2.781  1.00  0.00    -0.287 OA
BRANCH   8   9
HETATM    9  C8  UNL     1      17.317  17.939   1.623  1.00  0.00     0.216 C 
BRANCH   9  10
HETATM   10  C7  UNL     1      17.006  19.450   1.393  1.00  0.00     0.180 C 
HETATM   11  O2  UNL     1      16.892  20.070   2.613  1.00  0.00    -0.353 OA
HETATM   12  C6  UNL     1      17.612  21.242   2.643  1.00  0.00     0.259 C 
HETATM   13  C20 UNL     1      17.799  21.594   1.164  1.00  0.00     0.198 C 
HETATM   14  C19 UNL     1      18.015  20.160   0.596  1.00  0.00     0.182 C 
BRANCH  12  15
HETATM   15  N2  UNL     1      18.948  20.852   3.143  1.00  0.00    -0.336 N 
HETATM   16  C5  UNL     1      19.128  19.758   3.885  1.00  0.00     0.093 A 
HETATM   17  C4  UNL     1      20.382  19.491   4.434  1.00  0.00     0.018 A 
HETATM   18  C3  UNL     1      21.417  20.353   4.213  1.00  0.00     0.019 A 
HETATM   19  C2  UNL     1      21.195  21.468   3.448  1.00  0.00     0.044 A 
HETATM   20  C21 UNL     1      19.949  21.711   2.914  1.00  0.00     0.110 A 
BRANCH  19  21
HETATM   21  C1  UNL     1      22.250  22.437   3.224  1.00  0.00     0.266 C 
HETATM   22  N1  UNL     1      23.405  22.429   4.038  1.00  0.00    -0.057 NA
HETATM   23  O1  UNL     1      22.192  23.327   2.308  1.00  0.00    -0.271 OA
ENDBRANCH  19  21
ENDBRANCH  12  15
BRANCH  13  24
HETATM   24  O14 UNL     1      16.587  22.023   0.625  1.00  0.00    -0.388 OA
ATOM     25  H14 UNL     1      15.873  21.524   1.004  1.00  0.00     0.210 HD
ENDBRANCH  13  24
BRANCH  14  26
HETATM   26  O13 UNL     1      17.796  20.150  -0.787  1.00  0.00    -0.390 OA
ATOM     27  H13 UNL     1      18.524  19.833  -1.309  1.00  0.00     0.210 HD
ENDBRANCH  14  26
ENDBRANCH   9  10
ENDBRANCH   8   9
ENDBRANCH   5   8
ENDBRANCH   4   5
ENDBRANCH   1   4
BRANCH   1  28
HETATM   28  O9  UNL     1      13.836  20.968   1.465  1.00  0.00    -0.287 OA
BRANCH  28  29
HETATM   29  C9  UNL     1      12.632  21.625   1.884  1.00  0.00     0.216 C 
BRANCH  29  30
HETATM   30  C10 UNL     1      12.878  22.297   3.166  1.00  0.00     0.180 C 
HETATM   31  O10 UNL     1      11.909  21.856   4.111  1.00  0.00    -0.353 OA
HETATM   32  C11 UNL     1      12.370  22.552   5.249  1.00  0.00     0.262 C 
HETATM   33  C17 UNL     1      13.773  21.887   5.293  1.00  0.00     0.198 C 
HETATM   34  C18 UNL     1      14.182  22.077   3.805  1.00  0.00     0.182 C 
BRANCH  32  35
HETATM   35  N3  UNL     1      11.562  22.226   6.358  1.00  0.00    -0.297 N 
HETATM   36  C12 UNL     1      11.810  22.441   7.695  1.00  0.00     0.188 A 
HETATM   37  N4  UNL     1      10.795  21.999   8.438  1.00  0.00    -0.346 N 
HETATM   38  C13 UNL     1       9.867  21.498   7.569  1.00  0.00     0.119 A 
ATOM     39  H4  UNL     1      10.725  22.029   9.454  1.00  0.00     0.167 HD
HETATM   40  C14 UNL     1       8.653  20.915   7.789  1.00  0.00     0.148 A 
HETATM   41  C16 UNL     1      10.367  21.647   6.284  1.00  0.00     0.142 A 
HETATM   42  N5  UNL     1       8.123  20.796   9.106  1.00  0.00    -0.080 NA
HETATM   43  N6  UNL     1       7.930  20.465   6.751  1.00  0.00    -0.339 N 
HETATM   44  C15 UNL     1       8.393  20.585   5.504  1.00  0.00     0.183 A 
ATOM     45  H6  UNL     1       7.023  20.029   6.916  1.00  0.00     0.167 HD
HETATM   46  N7  UNL     1       9.607  21.177   5.287  1.00  0.00    -0.336 N 
ATOM     47  H7  UNL     1       9.946  21.265   4.329  1.00  0.00     0.168 HD
ENDBRANCH  32  35
BRANCH  33  48
HETATM   48  O11 UNL     1      14.622  22.440   6.188  1.00  0.00    -0.388 OA
ATOM     49  H11 UNL     1      15.328  21.867   6.462  1.00  0.00     0.210 HD
ENDBRANCH  33  48
BRANCH  34  50
HETATM   50  O12 UNL     1      14.932  23.294   3.785  1.00  0.00    -0.390 OA
ATOM     51  H12 UNL     1      15.175  23.500   2.891  1.00  0.00     0.210 HD
ENDBRANCH  34  50
ENDBRANCH  29  30
ENDBRANCH  28  29
ENDBRANCH   1  28
TORSDOF 15
ENDMDL
