MODEL 1
REMARK VINA RESULT: -6.947117666      0.000      0.000
REMARK  6 active torsions:
REMARK  status: ('A' for Active; 'I' for Inactive)
REMARK    1  A    between atoms: C4_7  and  O2_8 
REMARK    2  A    between atoms: O2_8  and  C5_9 
REMARK    3  A    between atoms: C7_12  and  O4_13 
REMARK    4  A    between atoms: C8_15  and  O5_16 
REMARK    5  A    between atoms: C9_18  and  O6_19 
REMARK    6  A    between atoms: C10_21  and  O7_22 
ROOT
HETATM    1  C5  UNL     1      19.311  67.291  35.280  1.00  0.00     0.291 C 
HETATM    2  O3  UNL     1      17.976  66.893  35.341  1.00  0.00    -0.356 OA
HETATM    3  C6  UNL     1      17.495  66.790  36.627  1.00  0.00     0.205 C 
HETATM    4  C7  UNL     1      18.570  66.312  37.597  1.00  0.00     0.173 C 
HETATM    5  C8  UNL     1      19.709  67.306  37.669  1.00  0.00     0.182 C 
HETATM    6  C9  UNL     1      19.588  68.220  36.442  1.00  0.00     0.204 C 
ENDROOT
BRANCH   1   7
HETATM    7  O2  UNL     1      19.555  67.837  34.055  1.00  0.00    -0.350 OA
BRANCH   7   8
HETATM    8  C4  UNL     1      18.842  67.142  33.087  1.00  0.00     0.164 C 
HETATM    9  C3  UNL     1      19.764  66.887  31.924  1.00  0.00     0.055 C 
HETATM   10  C2  UNL     1      18.885  66.464  30.741  1.00  0.00     0.125 C 
HETATM   11  N1  UNL     1      18.224  67.709  30.320  1.00  0.00    -0.359 N 
HETATM   12  C1  UNL     1      17.725  68.512  31.388  1.00  0.00     0.249 C 
ATOM     13  H1  UNL     1      18.129  67.978  29.340  1.00  0.00     0.162 HD
HETATM   14  O1  UNL     1      17.454  69.704  31.167  1.00  0.00    -0.271 OA
HETATM   15  C10 UNL     1      17.566  67.847  32.702  1.00  0.00     0.238 C 
BRANCH  15  16
HETATM   16  O7  UNL     1      16.492  66.958  32.577  1.00  0.00    -0.384 OA
ATOM     17  H7  UNL     1      16.740  66.163  33.034  1.00  0.00     0.210 HD
ENDBRANCH  15  16
ENDBRANCH   7   8
ENDBRANCH   1   7
BRANCH   6  18
HETATM   18  O6  UNL     1      20.790  68.888  36.288  1.00  0.00    -0.388 OA
ATOM     19  H6  UNL     1      21.176  69.115  37.126  1.00  0.00     0.210 HD
ENDBRANCH   6  18
BRANCH   5  20
HETATM   20  O5  UNL     1      19.753  68.010  38.842  1.00  0.00    -0.390 OA
ATOM     21  H5  UNL     1      20.615  68.038  39.239  1.00  0.00     0.210 HD
ENDBRANCH   5  20
BRANCH   4  22
HETATM   22  O4  UNL     1      19.015  65.054  37.151  1.00  0.00    -0.391 OA
ATOM     23  H4  UNL     1      19.963  65.089  37.094  1.00  0.00     0.210 HD
ENDBRANCH   4  22
TORSDOF 6
ENDMDL
