MODEL 3
REMARK VINA RESULT: -6.586589487      4.251      6.821
REMARK  6 active torsions:
REMARK  status: ('A' for Active; 'I' for Inactive)
REMARK    1  A    between atoms: C4_7  and  O2_8 
REMARK    2  A    between atoms: O2_8  and  C5_9 
REMARK    3  A    between atoms: C7_12  and  O4_13 
REMARK    4  A    between atoms: C8_15  and  O5_16 
REMARK    5  A    between atoms: C9_18  and  O6_19 
REMARK    6  A    between atoms: C10_21  and  O7_22 
ROOT
HETATM    1  C5  UNL     1      17.206  66.168  37.693  1.00  0.00     0.291 C 
HETATM    2  O3  UNL     1      18.221  66.530  38.580  1.00  0.00    -0.356 OA
HETATM    3  C6  UNL     1      19.283  67.157  37.969  1.00  0.00     0.205 C 
HETATM    4  C7  UNL     1      19.534  66.606  36.568  1.00  0.00     0.173 C 
HETATM    5  C8  UNL     1      18.343  66.859  35.670  1.00  0.00     0.182 C 
HETATM    6  C9  UNL     1      17.154  67.192  36.582  1.00  0.00     0.204 C 
ENDROOT
BRANCH   1   7
HETATM    7  O2  UNL     1      16.041  66.030  38.386  1.00  0.00    -0.350 OA
BRANCH   7   8
HETATM    8  C4  UNL     1      15.707  64.685  38.472  1.00  0.00     0.164 C 
HETATM    9  C3  UNL     1      14.528  64.439  37.568  1.00  0.00     0.055 C 
HETATM   10  C2  UNL     1      13.950  63.071  37.949  1.00  0.00     0.125 C 
HETATM   11  N1  UNL     1      13.283  63.308  39.239  1.00  0.00    -0.359 N 
HETATM   12  C1  UNL     1      14.028  64.102  40.160  1.00  0.00     0.249 C 
ATOM     13  H1  UNL     1      12.359  62.935  39.458  1.00  0.00     0.162 HD
HETATM   14  O1  UNL     1      13.437  64.623  41.120  1.00  0.00    -0.271 OA
HETATM   15  C10 UNL     1      15.479  64.243  39.895  1.00  0.00     0.238 C 
BRANCH  15  16
HETATM   16  O7  UNL     1      16.061  62.998  40.158  1.00  0.00    -0.384 OA
ATOM     17  H7  UNL     1      16.159  62.559  39.322  1.00  0.00     0.210 HD
ENDBRANCH  15  16
ENDBRANCH   7   8
ENDBRANCH   1   7
BRANCH   6  18
HETATM   18  O6  UNL     1      15.997  67.074  35.831  1.00  0.00    -0.388 OA
ATOM     19  H6  UNL     1      16.017  67.634  35.064  1.00  0.00     0.210 HD
ENDBRANCH   6  18
BRANCH   5  20
HETATM   20  O5  UNL     1      18.562  67.824  34.723  1.00  0.00    -0.390 OA
ATOM     21  H5  UNL     1      18.507  67.504  33.831  1.00  0.00     0.210 HD
ENDBRANCH   5  20
BRANCH   4  22
HETATM   22  O4  UNL     1      19.798  65.230  36.694  1.00  0.00    -0.391 OA
ATOM     23  H4  UNL     1      19.325  64.783  36.002  1.00  0.00     0.210 HD
ENDBRANCH   4  22
TORSDOF 6
ENDMDL
