MODEL 2
REMARK VINA RESULT: -6.612361302      2.248      5.770
REMARK  6 active torsions:
REMARK  status: ('A' for Active; 'I' for Inactive)
REMARK    1  A    between atoms: C4_7  and  O2_8 
REMARK    2  A    between atoms: O2_8  and  C5_9 
REMARK    3  A    between atoms: C7_12  and  O4_13 
REMARK    4  A    between atoms: C8_15  and  O5_16 
REMARK    5  A    between atoms: C9_18  and  O6_19 
REMARK    6  A    between atoms: C10_21  and  O7_22 
ROOT
HETATM    1  C5  UNL     1      17.515  67.949  33.136  1.00  0.00     0.291 C 
HETATM    2  O3  UNL     1      18.668  67.245  32.786  1.00  0.00    -0.356 OA
HETATM    3  C6  UNL     1      18.937  67.275  31.436  1.00  0.00     0.205 C 
HETATM    4  C7  UNL     1      17.658  67.280  30.604  1.00  0.00     0.173 C 
HETATM    5  C8  UNL     1      16.842  68.524  30.882  1.00  0.00     0.182 C 
HETATM    6  C9  UNL     1      17.366  69.123  32.194  1.00  0.00     0.204 C 
ENDROOT
BRANCH   1   7
HETATM    7  O2  UNL     1      17.588  68.292  34.453  1.00  0.00    -0.350 OA
BRANCH   7   8
HETATM    8  C4  UNL     1      18.231  67.284  35.160  1.00  0.00     0.164 C 
HETATM    9  C3  UNL     1      17.364  66.913  36.334  1.00  0.00     0.055 C 
HETATM   10  C2  UNL     1      18.235  66.090  37.291  1.00  0.00     0.125 C 
HETATM   11  N1  UNL     1      19.138  67.079  37.898  1.00  0.00    -0.359 N 
HETATM   12  C1  UNL     1      19.696  68.020  36.983  1.00  0.00     0.249 C 
ATOM     13  H1  UNL     1      19.350  67.091  38.896  1.00  0.00     0.162 HD
HETATM   14  O1  UNL     1      20.193  69.068  37.428  1.00  0.00    -0.271 OA
HETATM   15  C10 UNL     1      19.638  67.666  35.546  1.00  0.00     0.238 C 
BRANCH  15  16
HETATM   16  O7  UNL     1      20.540  66.613  35.353  1.00  0.00    -0.384 OA
ATOM     17  H7  UNL     1      21.205  66.929  34.753  1.00  0.00     0.210 HD
ENDBRANCH  15  16
ENDBRANCH   7   8
ENDBRANCH   1   7
BRANCH   6  18
HETATM   18  O6  UNL     1      16.427  70.031  32.652  1.00  0.00    -0.388 OA
ATOM     19  H6  UNL     1      16.480  70.147  33.593  1.00  0.00     0.210 HD
ENDBRANCH   6  18
BRANCH   5  20
HETATM   20  O5  UNL     1      16.850  69.428  29.854  1.00  0.00    -0.390 OA
ATOM     21  H5  UNL     1      16.152  70.070  29.905  1.00  0.00     0.210 HD
ENDBRANCH   5  20
BRANCH   4  22
HETATM   22  O4  UNL     1      16.939  66.113  30.924  1.00  0.00    -0.391 OA
ATOM     23  H4  UNL     1      16.139  66.120  30.411  1.00  0.00     0.210 HD
ENDBRANCH   4  22
TORSDOF 6
ENDMDL
