MODEL 1
REMARK VINA RESULT: -8.671764597      0.000      0.000
REMARK  15 active torsions:
REMARK  status: ('A' for Active; 'I' for Inactive)
REMARK    1  A    between atoms: C1_2  and  C2_4 
REMARK    2  A    between atoms: N2_8  and  C6_9 
REMARK    3  A    between atoms: C7_11  and  C8_12 
REMARK    4  A    between atoms: C8_12  and  O3_13 
REMARK    5  A    between atoms: O3_13  and  P1_14 
REMARK    6  A    between atoms: P1_14  and  O6_17 
REMARK    7  A    between atoms: O6_17  and  P2_18 
REMARK    8  A    between atoms: P2_18  and  O9_21 
REMARK    9  A    between atoms: O9_21  and  C9_22 
REMARK   10  A    between atoms: C9_22  and  C10_23 
REMARK   11  A    between atoms: C11_25  and  N3_26 
REMARK   12  A    between atoms: C17_39  and  O11_40 
REMARK   13  A    between atoms: C18_42  and  O12_43 
REMARK   14  A    between atoms: C19_45  and  O13_46 
REMARK   15  A    between atoms: C20_48  and  O14_49 
ROOT
HETATM    1  P2  UNL     1       3.073   8.858  26.769  1.00  0.00     0.417 P 
HETATM    2  O7  UNL     1       2.399  10.171  26.508  1.00  0.00    -0.624 OA
HETATM    3  O8  UNL     1       2.127   7.671  25.898  1.00  0.00    -0.624 OA
ENDROOT
BRANCH   1   4
HETATM    4  O6  UNL     1       4.610   8.792  26.285  1.00  0.00    -0.180 OA
BRANCH   4   5
HETATM    5  P1  UNL     1       5.794   9.033  27.414  1.00  0.00     0.417 P 
HETATM    6  O4  UNL     1       5.854  10.393  27.965  1.00  0.00    -0.624 OA
HETATM    7  O5  UNL     1       7.357   8.867  26.549  1.00  0.00    -0.624 OA
BRANCH   5   8
HETATM    8  O3  UNL     1       5.822   7.816  28.509  1.00  0.00    -0.287 OA
BRANCH   8   9
HETATM    9  C8  UNL     1       7.000   7.776  29.288  1.00  0.00     0.216 C 
BRANCH   9  10
HETATM   10  C7  UNL     1       7.514   6.345  28.939  1.00  0.00     0.180 C 
HETATM   11  O2  UNL     1       7.514   5.583  30.081  1.00  0.00    -0.353 OA
HETATM   12  C6  UNL     1       6.937   4.355  29.858  1.00  0.00     0.259 C 
HETATM   13  C20 UNL     1       7.015   4.185  28.337  1.00  0.00     0.198 C 
HETATM   14  C19 UNL     1       6.723   5.654  27.911  1.00  0.00     0.182 C 
BRANCH  12  15
HETATM   15  N2  UNL     1       5.505   4.546  30.175  1.00  0.00    -0.336 N 
HETATM   16  C5  UNL     1       5.106   5.024  31.355  1.00  0.00     0.093 A 
HETATM   17  C4  UNL     1       3.746   5.077  31.657  1.00  0.00     0.018 A 
HETATM   18  C3  UNL     1       2.830   4.637  30.745  1.00  0.00     0.019 A 
HETATM   19  C2  UNL     1       3.277   4.149  29.545  1.00  0.00     0.044 A 
HETATM   20  C21 UNL     1       4.625   4.107  29.267  1.00  0.00     0.110 A 
BRANCH  19  21
HETATM   21  C1  UNL     1       2.346   3.626  28.563  1.00  0.00     0.266 C 
HETATM   22  N1  UNL     1       1.472   2.570  28.907  1.00  0.00    -0.057 NA
HETATM   23  O1  UNL     1       2.272   4.074  27.369  1.00  0.00    -0.271 OA
ENDBRANCH  19  21
ENDBRANCH  12  15
BRANCH  13  24
HETATM   24  O14 UNL     1       8.335   3.948  27.957  1.00  0.00    -0.388 OA
ATOM     25  H14 UNL     1       8.398   3.105  27.524  1.00  0.00     0.210 HD
ENDBRANCH  13  24
BRANCH  14  26
HETATM   26  O13 UNL     1       7.144   5.868  26.593  1.00  0.00    -0.390 OA
ATOM     27  H13 UNL     1       6.598   5.471  25.926  1.00  0.00     0.210 HD
ENDBRANCH  14  26
ENDBRANCH   9  10
ENDBRANCH   8   9
ENDBRANCH   5   8
ENDBRANCH   4   5
ENDBRANCH   1   4
BRANCH   1  28
HETATM   28  O9  UNL     1       2.712   8.464  28.414  1.00  0.00    -0.287 OA
BRANCH  28  29
HETATM   29  C9  UNL     1       1.880   9.562  28.816  1.00  0.00     0.216 C 
BRANCH  29  30
HETATM   30  C10 UNL     1       2.345  10.059  30.117  1.00  0.00     0.180 C 
HETATM   31  O10 UNL     1       3.003   9.002  30.807  1.00  0.00    -0.353 OA
HETATM   32  C11 UNL     1       3.416   9.705  31.958  1.00  0.00     0.262 C 
HETATM   33  C17 UNL     1       4.302  10.740  31.212  1.00  0.00     0.198 C 
HETATM   34  C18 UNL     1       3.294  11.180  30.113  1.00  0.00     0.182 C 
BRANCH  32  35
HETATM   35  N3  UNL     1       4.150   8.842  32.799  1.00  0.00    -0.297 N 
HETATM   36  C12 UNL     1       5.453   8.420  32.668  1.00  0.00     0.188 A 
HETATM   37  N4  UNL     1       5.787   7.612  33.676  1.00  0.00    -0.346 N 
HETATM   38  C13 UNL     1       4.687   7.517  34.479  1.00  0.00     0.119 A 
ATOM     39  H4  UNL     1       6.688   7.156  33.818  1.00  0.00     0.167 HD
HETATM   40  C14 UNL     1       4.473   6.818  35.631  1.00  0.00     0.148 A 
HETATM   41  C16 UNL     1       3.682   8.286  33.912  1.00  0.00     0.142 A 
HETATM   42  N5  UNL     1       5.516   6.058  36.233  1.00  0.00    -0.080 NA
HETATM   43  N6  UNL     1       3.270   6.860  36.225  1.00  0.00    -0.339 N 
HETATM   44  C15 UNL     1       2.280   7.584  35.694  1.00  0.00     0.183 A 
ATOM     45  H6  UNL     1       3.110   6.337  37.086  1.00  0.00     0.167 HD
HETATM   46  N7  UNL     1       2.501   8.290  34.543  1.00  0.00    -0.336 N 
ATOM     47  H7  UNL     1       1.737   8.840  34.151  1.00  0.00     0.168 HD
ENDBRANCH  32  35
BRANCH  33  48
HETATM   48  O11 UNL     1       4.761  11.743  31.993  1.00  0.00    -0.388 OA
ATOM     49  H11 UNL     1       4.083  12.205  32.473  1.00  0.00     0.210 HD
ENDBRANCH  33  48
BRANCH  34  50
HETATM   50  O12 UNL     1       2.657  12.343  30.646  1.00  0.00    -0.390 OA
ATOM     51  H12 UNL     1       3.167  13.113  30.422  1.00  0.00     0.210 HD
ENDBRANCH  34  50
ENDBRANCH  29  30
ENDBRANCH  28  29
ENDBRANCH   1  28
TORSDOF 15
ENDMDL
