MODEL 17
REMARK VINA RESULT: -8.302326202      7.009      9.313
REMARK  15 active torsions:
REMARK  status: ('A' for Active; 'I' for Inactive)
REMARK    1  A    between atoms: C1_2  and  C2_4 
REMARK    2  A    between atoms: N2_8  and  C6_9 
REMARK    3  A    between atoms: C7_11  and  C8_12 
REMARK    4  A    between atoms: C8_12  and  O3_13 
REMARK    5  A    between atoms: O3_13  and  P1_14 
REMARK    6  A    between atoms: P1_14  and  O6_17 
REMARK    7  A    between atoms: O6_17  and  P2_18 
REMARK    8  A    between atoms: P2_18  and  O9_21 
REMARK    9  A    between atoms: O9_21  and  C9_22 
REMARK   10  A    between atoms: C9_22  and  C10_23 
REMARK   11  A    between atoms: C11_25  and  N3_26 
REMARK   12  A    between atoms: C17_39  and  O11_40 
REMARK   13  A    between atoms: C18_42  and  O12_43 
REMARK   14  A    between atoms: C19_45  and  O13_46 
REMARK   15  A    between atoms: C20_48  and  O14_49 
ROOT
HETATM    1  P2  UNL     1      -1.080   4.938  36.062  1.00  0.00     0.417 P 
HETATM    2  O7  UNL     1      -2.224   5.900  35.937  1.00  0.00    -0.624 OA
HETATM    3  O8  UNL     1      -1.778   3.354  35.803  1.00  0.00    -0.624 OA
ENDROOT
BRANCH   1   4
HETATM    4  O6  UNL     1       0.115   5.186  35.009  1.00  0.00    -0.180 OA
BRANCH   4   5
HETATM    5  P1  UNL     1       1.670   4.971  35.529  1.00  0.00     0.417 P 
HETATM    6  O4  UNL     1       1.917   3.706  36.233  1.00  0.00    -0.624 OA
HETATM    7  O5  UNL     1       1.957   6.212  36.793  1.00  0.00    -0.624 OA
BRANCH   5   8
HETATM    8  O3  UNL     1       2.744   5.356  34.354  1.00  0.00    -0.287 OA
BRANCH   8   9
HETATM    9  C8  UNL     1       3.590   6.437  34.685  1.00  0.00     0.216 C 
BRANCH   9  10
HETATM   10  C7  UNL     1       3.268   7.411  33.510  1.00  0.00     0.180 C 
HETATM   11  O2  UNL     1       4.448   7.844  32.958  1.00  0.00    -0.353 OA
HETATM   12  C6  UNL     1       4.415   7.758  31.585  1.00  0.00     0.259 C 
HETATM   13  C20 UNL     1       2.919   7.705  31.259  1.00  0.00     0.198 C 
HETATM   14  C19 UNL     1       2.439   6.823  32.450  1.00  0.00     0.182 C 
BRANCH  12  15
HETATM   15  N2  UNL     1       4.949   6.414  31.278  1.00  0.00    -0.336 N 
HETATM   16  C5  UNL     1       6.106   5.986  31.785  1.00  0.00     0.093 A 
HETATM   17  C4  UNL     1       6.631   4.760  31.377  1.00  0.00     0.018 A 
HETATM   18  C3  UNL     1       5.960   4.007  30.458  1.00  0.00     0.019 A 
HETATM   19  C2  UNL     1       4.776   4.479  29.957  1.00  0.00     0.044 A 
HETATM   20  C21 UNL     1       4.274   5.692  30.375  1.00  0.00     0.110 A 
BRANCH  19  21
HETATM   21  C1  UNL     1       4.049   3.737  28.943  1.00  0.00     0.266 C 
HETATM   22  N1  UNL     1       3.599   4.390  27.773  1.00  0.00    -0.057 NA
HETATM   23  O1  UNL     1       3.781   2.493  29.052  1.00  0.00    -0.271 OA
ENDBRANCH  19  21
ENDBRANCH  12  15
BRANCH  13  24
HETATM   24  O14 UNL     1       2.345   8.956  31.475  1.00  0.00    -0.388 OA
ATOM     25  H14 UNL     1       1.407   8.910  31.324  1.00  0.00     0.210 HD
ENDBRANCH  13  24
BRANCH  14  26
HETATM   26  O13 UNL     1       1.058   6.962  32.628  1.00  0.00    -0.390 OA
ATOM     27  H13 UNL     1       0.718   6.610  33.443  1.00  0.00     0.210 HD
ENDBRANCH  14  26
ENDBRANCH   9  10
ENDBRANCH   8   9
ENDBRANCH   5   8
ENDBRANCH   4   5
ENDBRANCH   1   4
BRANCH   1  28
HETATM   28  O9  UNL     1      -0.694   4.886  37.747  1.00  0.00    -0.287 OA
BRANCH  28  29
HETATM   29  C9  UNL     1      -1.207   6.140  38.217  1.00  0.00     0.216 C 
BRANCH  29  30
HETATM   30  C10 UNL     1      -0.875   6.286  39.641  1.00  0.00     0.180 C 
HETATM   31  O10 UNL     1      -1.119   7.632  40.036  1.00  0.00    -0.353 OA
HETATM   32  C11 UNL     1      -0.812   7.524  41.408  1.00  0.00     0.262 C 
HETATM   33  C17 UNL     1      -1.902   6.468  41.740  1.00  0.00     0.198 C 
HETATM   34  C18 UNL     1      -1.616   5.453  40.596  1.00  0.00     0.182 C 
BRANCH  32  35
HETATM   35  N3  UNL     1      -1.028   8.767  42.038  1.00  0.00    -0.297 N 
HETATM   36  C12 UNL     1      -1.535   9.927  41.498  1.00  0.00     0.188 A 
HETATM   37  N4  UNL     1      -1.594  10.888  42.421  1.00  0.00    -0.346 N 
HETATM   38  C13 UNL     1      -1.128  10.340  43.582  1.00  0.00     0.119 A 
ATOM     39  H4  UNL     1      -1.923  11.843  42.287  1.00  0.00     0.167 HD
HETATM   40  C14 UNL     1      -0.964  10.876  44.826  1.00  0.00     0.148 A 
HETATM   41  C16 UNL     1      -0.779   9.024  43.319  1.00  0.00     0.142 A 
HETATM   42  N5  UNL     1      -1.356  12.216  45.106  1.00  0.00    -0.080 NA
HETATM   43  N6  UNL     1      -0.445  10.128  45.813  1.00  0.00    -0.339 N 
HETATM   44  C15 UNL     1      -0.089   8.861  45.584  1.00  0.00     0.183 A 
ATOM     45  H6  UNL     1      -0.321  10.530  46.742  1.00  0.00     0.167 HD
HETATM   46  N7  UNL     1      -0.264   8.325  44.338  1.00  0.00    -0.336 N 
ATOM     47  H7  UNL     1       0.010   7.355  44.178  1.00  0.00     0.168 HD
ENDBRANCH  32  35
BRANCH  33  48
HETATM   48  O11 UNL     1      -1.816   5.953  42.986  1.00  0.00    -0.388 OA
ATOM     49  H11 UNL     1      -1.190   6.395  43.549  1.00  0.00     0.210 HD
ENDBRANCH  33  48
BRANCH  34  50
HETATM   50  O12 UNL     1      -0.731   4.491  41.174  1.00  0.00    -0.390 OA
ATOM     51  H12 UNL     1      -0.331   3.975  40.484  1.00  0.00     0.210 HD
ENDBRANCH  34  50
ENDBRANCH  29  30
ENDBRANCH  28  29
ENDBRANCH   1  28
TORSDOF 15
ENDMDL
