MODEL 5
REMARK VINA RESULT: -8.504646472      3.722      5.560
REMARK  15 active torsions:
REMARK  status: ('A' for Active; 'I' for Inactive)
REMARK    1  A    between atoms: C1_2  and  C2_4 
REMARK    2  A    between atoms: N2_8  and  C6_9 
REMARK    3  A    between atoms: C7_11  and  C8_12 
REMARK    4  A    between atoms: C8_12  and  O3_13 
REMARK    5  A    between atoms: O3_13  and  P1_14 
REMARK    6  A    between atoms: P1_14  and  O6_17 
REMARK    7  A    between atoms: O6_17  and  P2_18 
REMARK    8  A    between atoms: P2_18  and  O9_21 
REMARK    9  A    between atoms: O9_21  and  C9_22 
REMARK   10  A    between atoms: C9_22  and  C10_23 
REMARK   11  A    between atoms: C11_25  and  N3_26 
REMARK   12  A    between atoms: C17_39  and  O11_40 
REMARK   13  A    between atoms: C18_42  and  O12_43 
REMARK   14  A    between atoms: C19_45  and  O13_46 
REMARK   15  A    between atoms: C20_48  and  O14_49 
ROOT
HETATM    1  P2  UNL     1       3.030   8.404  27.396  1.00  0.00     0.417 P 
HETATM    2  O7  UNL     1       3.066   6.948  27.749  1.00  0.00    -0.624 OA
HETATM    3  O8  UNL     1       1.383   8.720  26.898  1.00  0.00    -0.624 OA
ENDROOT
BRANCH   1   4
HETATM    4  O6  UNL     1       3.433   9.391  28.606  1.00  0.00    -0.180 OA
BRANCH   4   5
HETATM    5  P1  UNL     1       4.664   8.933  29.610  1.00  0.00     0.417 P 
HETATM    6  O4  UNL     1       4.234   8.385  30.903  1.00  0.00    -0.624 OA
HETATM    7  O5  UNL     1       5.533  10.435  30.064  1.00  0.00    -0.624 OA
BRANCH   5   8
HETATM    8  O3  UNL     1       5.790   8.059  28.803  1.00  0.00    -0.287 OA
BRANCH   8   9
HETATM    9  C8  UNL     1       6.942   7.768  29.567  1.00  0.00     0.216 C 
BRANCH   9  10
HETATM   10  C7  UNL     1       7.390   6.434  28.895  1.00  0.00     0.180 C 
HETATM   11  O2  UNL     1       7.415   5.445  29.847  1.00  0.00    -0.353 OA
HETATM   12  C6  UNL     1       6.787   4.307  29.398  1.00  0.00     0.259 C 
HETATM   13  C20 UNL     1       6.791   4.465  27.874  1.00  0.00     0.198 C 
HETATM   14  C19 UNL     1       6.531   5.998  27.786  1.00  0.00     0.182 C 
BRANCH  12  15
HETATM   15  N2  UNL     1       5.379   4.460  29.822  1.00  0.00    -0.336 N 
HETATM   16  C5  UNL     1       5.056   4.943  31.023  1.00  0.00     0.093 A 
HETATM   17  C4  UNL     1       3.722   4.960  31.428  1.00  0.00     0.018 A 
HETATM   18  C3  UNL     1       2.754   4.479  30.594  1.00  0.00     0.019 A 
HETATM   19  C2  UNL     1       3.122   3.987  29.370  1.00  0.00     0.044 A 
HETATM   20  C21 UNL     1       4.446   3.981  28.989  1.00  0.00     0.110 A 
BRANCH  19  21
HETATM   21  C1  UNL     1       2.136   3.421  28.469  1.00  0.00     0.266 C 
HETATM   22  N1  UNL     1       1.321   2.348  28.894  1.00  0.00    -0.057 NA
HETATM   23  O1  UNL     1       1.959   3.847  27.277  1.00  0.00    -0.271 OA
ENDBRANCH  19  21
ENDBRANCH  12  15
BRANCH  13  24
HETATM   24  O14 UNL     1       8.083   4.284  27.385  1.00  0.00    -0.388 OA
ATOM     25  H14 UNL     1       8.366   3.391  27.547  1.00  0.00     0.210 HD
ENDBRANCH  13  24
BRANCH  14  26
HETATM   26  O13 UNL     1       6.899   6.479  26.524  1.00  0.00    -0.390 OA
ATOM     27  H13 UNL     1       7.743   6.178  26.208  1.00  0.00     0.210 HD
ENDBRANCH  14  26
ENDBRANCH   9  10
ENDBRANCH   8   9
ENDBRANCH   5   8
ENDBRANCH   4   5
ENDBRANCH   1   4
BRANCH   1  28
HETATM   28  O9  UNL     1       3.888   8.544  25.901  1.00  0.00    -0.287 OA
BRANCH  28  29
HETATM   29  C9  UNL     1       3.676   9.919  25.553  1.00  0.00     0.216 C 
BRANCH  29  30
HETATM   30  C10 UNL     1       4.965  10.622  25.581  1.00  0.00     0.180 C 
HETATM   31  O10 UNL     1       4.971  11.532  26.675  1.00  0.00    -0.353 OA
HETATM   32  C11 UNL     1       6.288  12.023  26.554  1.00  0.00     0.262 C 
HETATM   33  C17 UNL     1       6.995  10.654  26.751  1.00  0.00     0.198 C 
HETATM   34  C18 UNL     1       6.176   9.806  25.737  1.00  0.00     0.182 C 
BRANCH  32  35
HETATM   35  N3  UNL     1       6.546  12.941  27.593  1.00  0.00    -0.297 N 
HETATM   36  C12 UNL     1       5.657  13.512  28.476  1.00  0.00     0.188 A 
HETATM   37  N4  UNL     1       6.292  14.325  29.321  1.00  0.00    -0.346 N 
HETATM   38  C13 UNL     1       7.616  14.274  28.989  1.00  0.00     0.119 A 
ATOM     39  H4  UNL     1       5.872  14.876  30.068  1.00  0.00     0.167 HD
HETATM   40  C14 UNL     1       8.700  14.913  29.516  1.00  0.00     0.148 A 
HETATM   41  C16 UNL     1       7.748  13.412  27.911  1.00  0.00     0.142 A 
HETATM   42  N5  UNL     1       8.569  15.771  30.646  1.00  0.00    -0.080 NA
HETATM   43  N6  UNL     1       9.915  14.719  28.981  1.00  0.00    -0.339 N 
HETATM   44  C15 UNL     1      10.070  13.902  27.935  1.00  0.00     0.183 A 
ATOM     45  H6  UNL     1      10.726  15.198  29.375  1.00  0.00     0.167 HD
HETATM   46  N7  UNL     1       8.982  13.257  27.415  1.00  0.00    -0.336 N 
ATOM     47  H7  UNL     1       9.116  12.634  26.618  1.00  0.00     0.168 HD
ENDBRANCH  32  35
BRANCH  33  48
HETATM   48  O11 UNL     1       8.327  10.679  26.521  1.00  0.00    -0.388 OA
ATOM     49  H11 UNL     1       8.817  10.017  26.995  1.00  0.00     0.210 HD
ENDBRANCH  33  48
BRANCH  34  50
HETATM   50  O12 UNL     1       6.936   9.848  24.528  1.00  0.00    -0.390 OA
ATOM     51  H12 UNL     1       7.501  10.612  24.537  1.00  0.00     0.210 HD
ENDBRANCH  34  50
ENDBRANCH  29  30
ENDBRANCH  28  29
ENDBRANCH   1  28
TORSDOF 15
ENDMDL
