MODEL 17
REMARK VINA RESULT: -3.900795911      5.731      6.764
REMARK  1 active torsions:
REMARK  status: ('A' for Active; 'I' for Inactive)
REMARK    1  A    between atoms: C1_2  and  C2_6 
ROOT
HETATM    1  C2  UNL     1      11.500  48.850  60.446  1.00  0.00     0.004 A 
HETATM    2  C3  UNL     1      11.918  50.113  60.757  1.00  0.00     0.015 A 
HETATM    3  C4  UNL     1      13.236  50.407  61.132  1.00  0.00     0.001 A 
HETATM    4  C5  UNL     1      14.124  49.378  61.184  1.00  0.00     0.000 A 
HETATM    5  C6  UNL     1      13.776  48.078  60.885  1.00  0.00     0.001 A 
HETATM    6  C7  UNL     1      12.471  47.837  60.522  1.00  0.00     0.015 A 
ENDROOT
BRANCH   1   7
HETATM    7  C1  UNL     1      10.147  48.548  60.061  1.00  0.00     0.120 C 
HETATM    8  N1  UNL     1       9.452  47.527  60.767  1.00  0.00    -0.082 NA
HETATM    9  N2  UNL     1       9.566  49.159  59.124  1.00  0.00    -0.387 N 
ATOM     10  H22 UNL     1       8.607  48.944  58.851  1.00  0.00     0.157 HD
ATOM     11  H21 UNL     1      10.065  49.891  58.617  1.00  0.00     0.157 HD
ENDBRANCH   1   7
TORSDOF 1
ENDMDL
