MODEL 2
REMARK VINA RESULT: -5.246546019      0.036      1.586
REMARK  1 active torsions:
REMARK  status: ('A' for Active; 'I' for Inactive)
REMARK    1  A    between atoms: C1_2  and  C2_6 
ROOT
HETATM    1  C2  UNL     1       7.902  50.281  55.614  1.00  0.00     0.004 A 
HETATM    2  C3  UNL     1       8.082  49.118  54.922  1.00  0.00     0.015 A 
HETATM    3  C4  UNL     1       8.358  47.895  55.549  1.00  0.00     0.001 A 
HETATM    4  C5  UNL     1       8.447  47.886  56.907  1.00  0.00     0.000 A 
HETATM    5  C6  UNL     1       8.278  49.020  57.672  1.00  0.00     0.001 A 
HETATM    6  C7  UNL     1       8.009  50.197  57.013  1.00  0.00     0.015 A 
ENDROOT
BRANCH   1   7
HETATM    7  C1  UNL     1       7.618  51.536  54.970  1.00  0.00     0.120 C 
HETATM    8  N1  UNL     1       8.094  51.742  53.645  1.00  0.00    -0.082 NA
HETATM    9  N2  UNL     1       6.964  52.449  55.541  1.00  0.00    -0.387 N 
ATOM     10  H22 UNL     1       6.763  53.339  55.084  1.00  0.00     0.157 HD
ATOM     11  H21 UNL     1       6.623  52.302  56.491  1.00  0.00     0.157 HD
ENDBRANCH   1   7
TORSDOF 1
ENDMDL
