MODEL 5
REMARK VINA RESULT: -4.973803294      1.109      1.902
REMARK  1 active torsions:
REMARK  status: ('A' for Active; 'I' for Inactive)
REMARK    1  A    between atoms: C1_2  and  C2_6 
ROOT
HETATM    1  C2  UNL     1       8.066  49.991  54.864  1.00  0.00     0.004 A 
HETATM    2  C3  UNL     1       8.540  48.712  54.811  1.00  0.00     0.015 A 
HETATM    3  C4  UNL     1       8.319  47.775  55.830  1.00  0.00     0.001 A 
HETATM    4  C5  UNL     1       7.599  48.176  56.913  1.00  0.00     0.000 A 
HETATM    5  C6  UNL     1       7.088  49.451  57.038  1.00  0.00     0.001 A 
HETATM    6  C7  UNL     1       7.331  50.335  56.012  1.00  0.00     0.015 A 
ENDROOT
BRANCH   1   7
HETATM    7  C1  UNL     1       8.292  50.952  53.817  1.00  0.00     0.120 C 
HETATM    8  N1  UNL     1       9.263  50.653  52.820  1.00  0.00    -0.082 NA
HETATM    9  N2  UNL     1       7.660  52.040  53.759  1.00  0.00    -0.387 N 
ATOM     10  H22 UNL     1       7.822  52.722  53.017  1.00  0.00     0.157 HD
ATOM     11  H21 UNL     1       6.965  52.255  54.474  1.00  0.00     0.157 HD
ENDBRANCH   1   7
TORSDOF 1
ENDMDL
