MODEL 14
REMARK VINA RESULT: -4.146065143      4.576      5.723
REMARK  1 active torsions:
REMARK  status: ('A' for Active; 'I' for Inactive)
REMARK    1  A    between atoms: C1_2  and  C2_6 
ROOT
HETATM    1  C2  UNL     1       9.904  46.996  58.998  1.00  0.00     0.004 A 
HETATM    2  C3  UNL     1      10.591  46.229  59.895  1.00  0.00     0.015 A 
HETATM    3  C4  UNL     1      11.350  46.774  60.939  1.00  0.00     0.001 A 
HETATM    4  C5  UNL     1      11.394  48.130  61.049  1.00  0.00     0.000 A 
HETATM    5  C6  UNL     1      10.727  48.969  60.181  1.00  0.00     0.001 A 
HETATM    6  C7  UNL     1       9.995  48.388  59.172  1.00  0.00     0.015 A 
ENDROOT
BRANCH   1   7
HETATM    7  C1  UNL     1       9.124  46.436  57.927  1.00  0.00     0.120 C 
HETATM    8  N1  UNL     1       8.539  45.152  58.113  1.00  0.00    -0.082 NA
HETATM    9  N2  UNL     1       8.945  47.046  56.839  1.00  0.00    -0.387 N 
ATOM     10  H22 UNL     1       8.392  46.648  56.079  1.00  0.00     0.157 HD
ATOM     11  H21 UNL     1       9.364  47.966  56.706  1.00  0.00     0.157 HD
ENDBRANCH   1   7
TORSDOF 1
ENDMDL
