MODEL 18
REMARK VINA RESULT: -3.880091648      4.304      5.489
REMARK  1 active torsions:
REMARK  status: ('A' for Active; 'I' for Inactive)
REMARK    1  A    between atoms: C1_2  and  C2_6 
ROOT
HETATM    1  C2  UNL     1      10.005  47.549  59.097  1.00  0.00     0.004 A 
HETATM    2  C3  UNL     1      10.592  46.533  59.796  1.00  0.00     0.015 A 
HETATM    3  C4  UNL     1      11.403  46.750  60.919  1.00  0.00     0.001 A 
HETATM    4  C5  UNL     1      11.602  48.036  61.315  1.00  0.00     0.000 A 
HETATM    5  C6  UNL     1      11.042  49.114  60.661  1.00  0.00     0.001 A 
HETATM    6  C7  UNL     1      10.255  48.850  59.564  1.00  0.00     0.015 A 
ENDROOT
BRANCH   1   7
HETATM    7  C1  UNL     1       9.173  47.324  57.945  1.00  0.00     0.120 C 
HETATM    8  N1  UNL     1       8.251  48.340  57.566  1.00  0.00    -0.082 NA
HETATM    9  N2  UNL     1       9.238  46.264  57.269  1.00  0.00    -0.387 N 
ATOM     10  H22 UNL     1       8.647  46.105  56.452  1.00  0.00     0.157 HD
ATOM     11  H21 UNL     1       9.898  45.535  57.541  1.00  0.00     0.157 HD
ENDBRANCH   1   7
TORSDOF 1
ENDMDL
