MODEL 1
REMARK VINA RESULT: -5.274721804      0.000      0.000
REMARK  1 active torsions:
REMARK  status: ('A' for Active; 'I' for Inactive)
REMARK    1  A    between atoms: C1_2  and  C2_6 
ROOT
HETATM    1  C2  UNL     1       7.902  50.306  55.648  1.00  0.00     0.004 A 
HETATM    2  C3  UNL     1       7.986  50.191  57.006  1.00  0.00     0.015 A 
HETATM    3  C4  UNL     1       8.259  48.977  57.652  1.00  0.00     0.001 A 
HETATM    4  C5  UNL     1       8.447  47.876  56.875  1.00  0.00     0.000 A 
HETATM    5  C6  UNL     1       8.378  47.914  55.498  1.00  0.00     0.001 A 
HETATM    6  C7  UNL     1       8.107  49.127  54.910  1.00  0.00     0.015 A 
ENDROOT
BRANCH   1   7
HETATM    7  C1  UNL     1       7.622  51.552  54.985  1.00  0.00     0.120 C 
HETATM    8  N1  UNL     1       8.099  51.737  53.657  1.00  0.00    -0.082 NA
HETATM    9  N2  UNL     1       6.971  52.475  55.544  1.00  0.00    -0.387 N 
ATOM     10  H22 UNL     1       6.772  53.359  55.074  1.00  0.00     0.157 HD
ATOM     11  H21 UNL     1       6.629  52.342  56.496  1.00  0.00     0.157 HD
ENDBRANCH   1   7
TORSDOF 1
ENDMDL
