MODEL 1
REMARK VINA RESULT: -5.589684088      0.000      0.000
REMARK  1 active torsions:
REMARK  status: ('A' for Active; 'I' for Inactive)
REMARK    1  A    between atoms: C1_2  and  C2_6 
ROOT
HETATM    1  C2  UNL     1       7.907  49.344  54.293  1.00  0.00     0.004 A 
HETATM    2  C3  UNL     1       8.265  48.029  54.212  1.00  0.00     0.015 A 
HETATM    3  C4  UNL     1       8.102  47.129  55.274  1.00  0.00     0.001 A 
HETATM    4  C5  UNL     1       7.562  47.605  56.429  1.00  0.00     0.000 A 
HETATM    5  C6  UNL     1       7.177  48.920  56.585  1.00  0.00     0.001 A 
HETATM    6  C7  UNL     1       7.357  49.766  55.515  1.00  0.00     0.015 A 
ENDROOT
BRANCH   1   7
HETATM    7  C1  UNL     1       8.075  50.267  53.201  1.00  0.00     0.120 C 
HETATM    8  N1  UNL     1       8.838  49.853  52.074  1.00  0.00    -0.082 NA
HETATM    9  N2  UNL     1       7.568  51.421  53.217  1.00  0.00    -0.387 N 
ATOM     10  H22 UNL     1       7.687  52.075  52.443  1.00  0.00     0.157 HD
ATOM     11  H21 UNL     1       7.021  51.717  54.025  1.00  0.00     0.157 HD
ENDBRANCH   1   7
TORSDOF 1
ENDMDL
