MODEL 6
REMARK VINA RESULT: -5.314908060      0.989      1.158
REMARK  1 active torsions:
REMARK  status: ('A' for Active; 'I' for Inactive)
REMARK    1  A    between atoms: C1_2  and  C2_6 
ROOT
HETATM    1  C2  UNL     1       7.798  49.529  54.967  1.00  0.00     0.004 A 
HETATM    2  C3  UNL     1       8.030  48.385  54.258  1.00  0.00     0.015 A 
HETATM    3  C4  UNL     1       8.247  47.142  54.868  1.00  0.00     0.001 A 
HETATM    4  C5  UNL     1       8.221  47.091  56.227  1.00  0.00     0.000 A 
HETATM    5  C6  UNL     1       7.992  48.203  57.010  1.00  0.00     0.001 A 
HETATM    6  C7  UNL     1       7.786  49.402  56.366  1.00  0.00     0.015 A 
ENDROOT
BRANCH   1   7
HETATM    7  C1  UNL     1       7.576  50.805  54.340  1.00  0.00     0.120 C 
HETATM    8  N1  UNL     1       7.990  50.978  52.989  1.00  0.00    -0.082 NA
HETATM    9  N2  UNL     1       7.028  51.763  54.948  1.00  0.00    -0.387 N 
ATOM     10  H22 UNL     1       6.871  52.668  54.502  1.00  0.00     0.157 HD
ATOM     11  H21 UNL     1       6.732  51.639  55.916  1.00  0.00     0.157 HD
ENDBRANCH   1   7
TORSDOF 1
ENDMDL
