MODEL 2
REMARK VINA RESULT: -5.545693491      0.037      1.586
REMARK  1 active torsions:
REMARK  status: ('A' for Active; 'I' for Inactive)
REMARK    1  A    between atoms: C1_2  and  C2_6 
ROOT
HETATM    1  C2  UNL     1       7.896  49.373  54.327  1.00  0.00     0.004 A 
HETATM    2  C3  UNL     1       7.342  49.750  55.517  1.00  0.00     0.015 A 
HETATM    3  C4  UNL     1       7.169  48.865  56.590  1.00  0.00     0.001 A 
HETATM    4  C5  UNL     1       7.576  47.578  56.421  1.00  0.00     0.000 A 
HETATM    5  C6  UNL     1       8.143  47.123  55.249  1.00  0.00     0.001 A 
HETATM    6  C7  UNL     1       8.292  48.028  54.223  1.00  0.00     0.015 A 
ENDROOT
BRANCH   1   7
HETATM    7  C1  UNL     1       8.073  50.282  53.226  1.00  0.00     0.120 C 
HETATM    8  N1  UNL     1       8.828  49.845  52.101  1.00  0.00    -0.082 NA
HETATM    9  N2  UNL     1       7.583  51.442  53.230  1.00  0.00    -0.387 N 
ATOM     10  H22 UNL     1       7.710  52.087  52.449  1.00  0.00     0.157 HD
ATOM     11  H21 UNL     1       7.043  51.755  54.037  1.00  0.00     0.157 HD
ENDBRANCH   1   7
TORSDOF 1
ENDMDL
