MODEL 7
REMARK VINA RESULT: -5.236301319      0.818      1.337
REMARK  1 active torsions:
REMARK  status: ('A' for Active; 'I' for Inactive)
REMARK    1  A    between atoms: C1_2  and  C2_6 
ROOT
HETATM    1  C2  UNL     1       7.798  49.679  54.616  1.00  0.00     0.004 A 
HETATM    2  C3  UNL     1       8.141  48.497  54.024  1.00  0.00     0.015 A 
HETATM    3  C4  UNL     1       8.105  47.269  54.699  1.00  0.00     0.001 A 
HETATM    4  C5  UNL     1       7.709  47.274  56.001  1.00  0.00     0.000 A 
HETATM    5  C6  UNL     1       7.348  48.427  56.666  1.00  0.00     0.001 A 
HETATM    6  C7  UNL     1       7.399  49.608  55.962  1.00  0.00     0.015 A 
ENDROOT
BRANCH   1   7
HETATM    7  C1  UNL     1       7.835  50.939  53.922  1.00  0.00     0.120 C 
HETATM    8  N1  UNL     1       7.929  52.134  54.690  1.00  0.00    -0.082 NA
HETATM    9  N2  UNL     1       7.787  51.013  52.665  1.00  0.00    -0.387 N 
ATOM     10  H22 UNL     1       7.813  51.907  52.174  1.00  0.00     0.157 HD
ATOM     11  H21 UNL     1       7.719  50.157  52.115  1.00  0.00     0.157 HD
ENDBRANCH   1   7
TORSDOF 1
ENDMDL
