MODEL 3
REMARK VINA RESULT: -9.875277149      0.589      1.574
REMARK  4 active torsions:
REMARK  status: ('A' for Active; 'I' for Inactive)
REMARK    1  A    between atoms: C1_2  and  C2_3 
REMARK       I    between atoms: C1_2  and  N3_16 
REMARK    2  A    between atoms: N1_6  and  C5_7 
REMARK    3  A    between atoms: N4_19  and  S1_20 
REMARK    4  A    between atoms: S1_20  and  C14_23 
ROOT
HETATM    1  O1  UNL     1       9.504  47.655  58.323  1.00  0.00    -0.273 OA
HETATM    2  C1  UNL     1       9.132  47.602  59.540  1.00  0.00     0.224 C 
HETATM    3  N3  UNL     1      10.131  47.320  60.508  1.00  0.00    -0.345 N 
HETATM    4  C12 UNL     1      11.506  47.082  60.123  1.00  0.00     0.147 C 
HETATM    5  C13 UNL     1      12.355  48.142  60.758  1.00  0.00     0.160 C 
HETATM    6  N4  UNL     1      12.028  48.435  62.099  1.00  0.00    -0.283 N 
HETATM    7  C24 UNL     1      10.977  47.773  62.718  1.00  0.00     0.096 C 
HETATM    8  C25 UNL     1       9.850  47.262  61.922  1.00  0.00     0.171 C 
ENDROOT
BRANCH   2   9
HETATM    9  C2  UNL     1       7.713  47.833  59.833  1.00  0.00     0.081 C 
HETATM   10  C3  UNL     1       6.766  47.255  58.810  1.00  0.00     0.034 C 
HETATM   11  C4  UNL     1       7.197  47.788  57.470  1.00  0.00     0.123 C 
HETATM   12  N1  UNL     1       7.396  49.211  57.468  1.00  0.00    -0.381 N 
HETATM   13  C10 UNL     1       7.417  50.039  58.650  1.00  0.00     0.123 C 
HETATM   14  C11 UNL     1       7.398  49.301  59.941  1.00  0.00     0.034 C 
BRANCH  12  15
HETATM   15  C5  UNL     1       7.588  49.864  56.220  1.00  0.00     0.032 A 
HETATM   16  C6  UNL     1       7.413  51.227  56.102  1.00  0.00     0.046 A 
HETATM   17  C7  UNL     1       7.597  51.877  54.890  1.00  0.00     0.089 A 
HETATM   18  N2  UNL     1       7.949  51.201  53.794  1.00  0.00    -0.375 N 
HETATM   19  C8  UNL     1       8.125  49.872  53.885  1.00  0.00     0.089 A 
ATOM     20  H2  UNL     1       8.082  51.683  52.906  1.00  0.00     0.164 HD
HETATM   21  C9  UNL     1       7.951  49.189  55.074  1.00  0.00     0.046 A 
ENDBRANCH  12  15
ENDBRANCH   2   9
BRANCH   6  22
HETATM   22  S1  UNL     1      12.598  49.868  62.757  1.00  0.00     0.264 S 
HETATM   23  O2  UNL     1      11.836  51.088  62.260  1.00  0.00    -0.200 OA
HETATM   24  O3  UNL     1      12.420  49.837  64.248  1.00  0.00    -0.200 OA
BRANCH  22  25
HETATM   25  C14 UNL     1      14.326  50.095  62.446  1.00  0.00     0.080 A 
HETATM   26  C15 UNL     1      14.773  50.280  61.159  1.00  0.00     0.026 A 
HETATM   27  C16 UNL     1      16.112  50.459  60.910  1.00  0.00     0.014 A 
HETATM   28  C17 UNL     1      17.030  50.453  61.956  1.00  0.00    -0.024 A 
HETATM   29  C18 UNL     1      18.385  50.632  61.716  1.00  0.00     0.036 A 
HETATM   30  C22 UNL     1      16.596  50.268  63.250  1.00  0.00    -0.024 A 
HETATM   31  C19 UNL     1      19.309  50.628  62.753  1.00  0.00     0.034 A 
HETATM   32 CL1  UNL     1      21.016  50.861  62.383  1.00  0.00    -0.084 Cl
HETATM   33  C20 UNL     1      18.864  50.442  64.042  1.00  0.00     0.024 A 
HETATM   34  C21 UNL     1      17.510  50.263  64.276  1.00  0.00     0.014 A 
HETATM   35  C23 UNL     1      15.227  50.090  63.466  1.00  0.00     0.037 A 
ENDBRANCH  22  25
ENDBRANCH   6  22
TORSDOF 4
ENDMDL
