MODEL 2
REMARK VINA RESULT: -9.914879508      2.282      3.234
REMARK  4 active torsions:
REMARK  status: ('A' for Active; 'I' for Inactive)
REMARK    1  A    between atoms: C1_2  and  C2_3 
REMARK       I    between atoms: C1_2  and  N3_16 
REMARK    2  A    between atoms: N1_6  and  C5_7 
REMARK    3  A    between atoms: N4_19  and  S1_20 
REMARK    4  A    between atoms: S1_20  and  C14_23 
ROOT
HETATM    1  O1  UNL     1       5.993  47.738  63.014  1.00  0.00    -0.273 OA
HETATM    2  C1  UNL     1       6.508  48.871  62.743  1.00  0.00     0.224 C 
HETATM    3  N3  UNL     1       7.843  49.092  63.172  1.00  0.00    -0.345 N 
HETATM    4  C12 UNL     1       8.576  48.080  63.902  1.00  0.00     0.147 C 
HETATM    5  C13 UNL     1       9.774  47.696  63.086  1.00  0.00     0.160 C 
HETATM    6  N4  UNL     1      10.451  48.778  62.487  1.00  0.00    -0.283 N 
HETATM    7  C24 UNL     1       9.983  50.073  62.663  1.00  0.00     0.096 C 
HETATM    8  C25 UNL     1       8.554  50.320  62.904  1.00  0.00     0.171 C 
ENDROOT
BRANCH   2   9
HETATM    9  C2  UNL     1       5.681  49.844  62.020  1.00  0.00     0.081 C 
HETATM   10  C3  UNL     1       4.700  49.227  61.052  1.00  0.00     0.034 C 
HETATM   11  C4  UNL     1       5.493  48.323  60.148  1.00  0.00     0.123 C 
HETATM   12  N1  UNL     1       6.662  48.956  59.602  1.00  0.00    -0.381 N 
HETATM   13  C10 UNL     1       7.177  50.235  60.030  1.00  0.00     0.123 C 
HETATM   14  C11 UNL     1       6.521  50.814  61.232  1.00  0.00     0.034 C 
BRANCH  12  15
HETATM   15  C5  UNL     1       7.370  48.289  58.567  1.00  0.00     0.032 A 
HETATM   16  C6  UNL     1       8.276  47.290  58.861  1.00  0.00     0.046 A 
HETATM   17  C7  UNL     1       8.975  46.631  57.859  1.00  0.00     0.089 A 
HETATM   18  N2  UNL     1       8.792  46.943  56.575  1.00  0.00    -0.375 N 
HETATM   19  C8  UNL     1       7.915  47.913  56.265  1.00  0.00     0.089 A 
ATOM     20  H2  UNL     1       9.309  46.455  55.843  1.00  0.00     0.164 HD
HETATM   21  C9  UNL     1       7.201  48.592  57.233  1.00  0.00     0.046 A 
ENDBRANCH  12  15
ENDBRANCH   2   9
BRANCH   6  22
HETATM   22  S1  UNL     1      11.511  48.450  61.229  1.00  0.00     0.264 S 
HETATM   23  O2  UNL     1      11.573  46.969  60.885  1.00  0.00    -0.200 OA
HETATM   24  O3  UNL     1      11.044  49.154  59.988  1.00  0.00    -0.200 OA
BRANCH  22  25
HETATM   25  C14 UNL     1      13.145  49.036  61.574  1.00  0.00     0.080 A 
HETATM   26  C15 UNL     1      13.477  49.437  62.847  1.00  0.00     0.026 A 
HETATM   27  C16 UNL     1      14.744  49.891  63.122  1.00  0.00     0.014 A 
HETATM   28  C17 UNL     1      15.705  49.951  62.117  1.00  0.00    -0.024 A 
HETATM   29  C18 UNL     1      16.988  50.408  62.384  1.00  0.00     0.036 A 
HETATM   30  C22 UNL     1      15.386  49.553  60.837  1.00  0.00    -0.024 A 
HETATM   31  C19 UNL     1      17.954  50.472  61.388  1.00  0.00     0.034 A 
HETATM   32 CL1  UNL     1      19.564  51.061  61.790  1.00  0.00    -0.084 Cl
HETATM   33  C20 UNL     1      17.623  50.072  60.112  1.00  0.00     0.024 A 
HETATM   34  C21 UNL     1      16.342  49.617  59.851  1.00  0.00     0.014 A 
HETATM   35  C23 UNL     1      14.088  49.097  60.594  1.00  0.00     0.037 A 
ENDBRANCH  22  25
ENDBRANCH   6  22
TORSDOF 4
ENDMDL
