MODEL 1
REMARK VINA RESULT: -10.547740389      0.000      0.000
REMARK  4 active torsions:
REMARK  status: ('A' for Active; 'I' for Inactive)
REMARK    1  A    between atoms: C1_2  and  C2_3 
REMARK       I    between atoms: C1_2  and  N3_16 
REMARK    2  A    between atoms: N1_6  and  C5_7 
REMARK    3  A    between atoms: N4_19  and  S1_20 
REMARK    4  A    between atoms: S1_20  and  C14_23 
ROOT
HETATM    1  O1  UNL     1       9.527  47.331  58.153  1.00  0.00    -0.273 OA
HETATM    2  C1  UNL     1       9.095  47.316  59.351  1.00  0.00     0.224 C 
HETATM    3  N3  UNL     1      10.054  47.122  60.380  1.00  0.00    -0.345 N 
HETATM    4  C12 UNL     1      11.456  46.929  60.075  1.00  0.00     0.147 C 
HETATM    5  C13 UNL     1      12.225  48.054  60.701  1.00  0.00     0.160 C 
HETATM    6  N4  UNL     1      11.816  48.392  62.009  1.00  0.00    -0.283 N 
HETATM    7  C24 UNL     1      10.764  47.711  62.605  1.00  0.00     0.096 C 
HETATM    8  C25 UNL     1       9.702  47.115  61.780  1.00  0.00     0.171 C 
ENDROOT
BRANCH   2   9
HETATM    9  C2  UNL     1       7.654  47.495  59.562  1.00  0.00     0.081 C 
HETATM   10  C3  UNL     1       6.792  46.964  58.443  1.00  0.00     0.034 C 
HETATM   11  C4  UNL     1       7.295  47.593  57.172  1.00  0.00     0.123 C 
HETATM   12  N1  UNL     1       7.457  49.017  57.273  1.00  0.00    -0.381 N 
HETATM   13  C10 UNL     1       7.378  49.766  58.505  1.00  0.00     0.123 C 
HETATM   14  C11 UNL     1       7.293  48.946  59.742  1.00  0.00     0.034 C 
BRANCH  12  15
HETATM   15  C5  UNL     1       7.713  49.754  56.086  1.00  0.00     0.032 A 
HETATM   16  C6  UNL     1       8.234  49.136  54.968  1.00  0.00     0.046 A 
HETATM   17  C7  UNL     1       8.488  49.844  53.802  1.00  0.00     0.089 A 
HETATM   18  N2  UNL     1       8.236  51.152  53.725  1.00  0.00    -0.375 N 
HETATM   19  C8  UNL     1       7.728  51.776  54.801  1.00  0.00     0.089 A 
ATOM     20  H2  UNL     1       8.425  51.668  52.866  1.00  0.00     0.164 HD
HETATM   21  C9  UNL     1       7.461  51.106  55.979  1.00  0.00     0.046 A 
ENDBRANCH  12  15
ENDBRANCH   2   9
BRANCH   6  22
HETATM   22  S1  UNL     1      12.290  49.877  62.627  1.00  0.00     0.264 S 
HETATM   23  O2  UNL     1      11.655  51.049  61.892  1.00  0.00    -0.200 OA
HETATM   24  O3  UNL     1      11.847  49.985  64.058  1.00  0.00    -0.200 OA
BRANCH  22  25
HETATM   25  C14 UNL     1      14.050  50.066  62.612  1.00  0.00     0.080 A 
HETATM   26  C15 UNL     1      14.761  49.969  63.785  1.00  0.00     0.026 A 
HETATM   27  C16 UNL     1      16.127  50.111  63.780  1.00  0.00     0.014 A 
HETATM   28  C17 UNL     1      16.806  50.357  62.590  1.00  0.00    -0.024 A 
HETATM   29  C18 UNL     1      18.186  50.504  62.575  1.00  0.00     0.036 A 
HETATM   30  C22 UNL     1      16.106  50.457  61.408  1.00  0.00    -0.024 A 
HETATM   31  C19 UNL     1      18.873  50.749  61.392  1.00  0.00     0.034 A 
HETATM   32 CL1  UNL     1      20.624  50.926  61.438  1.00  0.00    -0.084 Cl
HETATM   33  C20 UNL     1      18.162  50.847  60.217  1.00  0.00     0.024 A 
HETATM   34  C21 UNL     1      16.785  50.701  60.238  1.00  0.00     0.014 A 
HETATM   35  C23 UNL     1      14.717  50.306  61.450  1.00  0.00     0.037 A 
ENDBRANCH  22  25
ENDBRANCH   6  22
TORSDOF 4
ENDMDL
