MODEL 3
REMARK VINA RESULT: -7.503021394      3.866      6.128
REMARK  15 active torsions:
REMARK  status: ('A' for Active; 'I' for Inactive)
REMARK    1  A    between atoms: N1_1  and  C1_5 
REMARK    2  A    between atoms: C1_5  and  C2_6 
REMARK    3  A    between atoms: C2_6  and  C3_7 
REMARK    4  A    between atoms: C3_7  and  C4_8 
REMARK    5  A    between atoms: C4_8  and  C5_9 
REMARK    6  A    between atoms: C5_9  and  N2_10 
REMARK    7  A    between atoms: C5_9  and  C16_25 
REMARK    8  A    between atoms: N2_10  and  C6_13 
REMARK    9  A    between atoms: C6_13  and  C7_14 
REMARK   10  A    between atoms: C6_13  and  C15_22 
REMARK   11  A    between atoms: C7_14  and  C8_15 
REMARK   12  A    between atoms: C8_15  and  C9_16 
REMARK   13  A    between atoms: C16_25  and  O3_26 
REMARK   14  A    between atoms: C16_25  and  N3_28 
REMARK   15  A    between atoms: C20_32  and  C21_33 
ROOT
HETATM    1  C5  UNL     1      16.207  -5.241  20.843  1.00  0.00     0.260 C 
ENDROOT
BRANCH   1   2
HETATM    2  C4  UNL     1      16.001  -3.970  21.647  1.00  0.00     0.041 C 
BRANCH   2   3
HETATM    3  C3  UNL     1      14.754  -3.214  21.282  1.00  0.00     0.004 C 
BRANCH   3   4
HETATM    4  C2  UNL     1      13.514  -4.095  21.459  1.00  0.00     0.027 C 
BRANCH   4   5
HETATM    5  C1  UNL     1      12.762  -4.266  20.178  1.00  0.00     0.229 C 
BRANCH   5   6
HETATM    6  N1  UNL     1      12.732  -5.656  19.824  1.00  0.00    -0.079 N 
ATOM      7  H13 UNL     1      12.956  -6.260  20.614  1.00  0.00     0.274 HD
ATOM      8  H12 UNL     1      11.784  -5.989  19.650  1.00  0.00     0.274 HD
ATOM      9  H11 UNL     1      13.350  -5.817  19.029  1.00  0.00     0.274 HD
ENDBRANCH   5   6
ENDBRANCH   4   5
ENDBRANCH   3   4
ENDBRANCH   2   3
ENDBRANCH   1   2
BRANCH   1  10
HETATM   10  N2  UNL     1      16.573  -6.255  21.810  1.00  0.00    -0.050 N 
ATOM     11  H22 UNL     1      17.522  -6.115  22.156  1.00  0.00     0.279 HD
ATOM     12  H21 UNL     1      16.066  -6.135  22.687  1.00  0.00     0.279 HD
BRANCH  10  13
HETATM   13  C6  UNL     1      16.395  -7.580  21.274  1.00  0.00     0.287 C 
BRANCH  13  14
HETATM   14  C7  UNL     1      16.908  -8.644  22.219  1.00  0.00     0.049 C 
BRANCH  14  15
HETATM   15  C8  UNL     1      17.490  -7.994  23.450  1.00  0.00     0.041 C 
BRANCH  15  16
HETATM   16  C9  UNL     1      17.647  -8.955  24.559  1.00  0.00    -0.058 A 
HETATM   17  C10 UNL     1      18.861  -9.174  25.139  1.00  0.00     0.007 A 
HETATM   18  C11 UNL     1      18.957 -10.082  26.172  1.00  0.00     0.001 A 
HETATM   19  C12 UNL     1      17.833 -10.750  26.604  1.00  0.00     0.000 A 
HETATM   20  C13 UNL     1      16.611 -10.523  26.015  1.00  0.00     0.001 A 
HETATM   21  C14 UNL     1      16.509  -9.622  24.986  1.00  0.00     0.007 A 
ENDBRANCH  15  16
ENDBRANCH  14  15
ENDBRANCH  13  14
BRANCH  13  22
HETATM   22  C15 UNL     1      14.905  -7.805  21.165  1.00  0.00     0.204 C 
HETATM   23  O1  UNL     1      14.429  -8.287  20.112  1.00  0.00    -0.646 OA
HETATM   24  O2  UNL     1      14.033  -7.494  22.199  1.00  0.00    -0.646 OA
ENDBRANCH  13  22
ENDBRANCH  10  13
ENDBRANCH   1  10
BRANCH   1  25
HETATM   25  C16 UNL     1      17.083  -5.082  19.697  1.00  0.00     0.146 C 
BRANCH  25  26
HETATM   26  O3  UNL     1      18.324  -4.742  19.928  1.00  0.00    -0.348 OA
ATOM     27  H3  UNL     1      18.966  -4.943  19.258  1.00  0.00     0.219 HD
ENDBRANCH  25  26
BRANCH  25  28
HETATM   28  N3  UNL     1      16.853  -5.230  18.315  1.00  0.00    -0.342 N 
HETATM   29  C17 UNL     1      17.576  -4.897  17.116  1.00  0.00     0.153 C 
HETATM   30  C18 UNL     1      16.466  -4.322  16.271  1.00  0.00    -0.008 C 
HETATM   31  C19 UNL     1      15.340  -4.903  16.653  1.00  0.00     0.007 C 
HETATM   32  C20 UNL     1      15.638  -5.864  17.738  1.00  0.00     0.210 C 
BRANCH  32  33
HETATM   33  C21 UNL     1      15.899  -7.198  17.220  1.00  0.00     0.200 C 
HETATM   34  O4  UNL     1      15.224  -7.571  16.226  1.00  0.00    -0.646 OA
HETATM   35  O5  UNL     1      16.819  -8.108  17.712  1.00  0.00    -0.646 OA
ENDBRANCH  32  33
ENDBRANCH  25  28
ENDBRANCH   1  25
TORSDOF 15
ENDMDL
