MODEL 1
REMARK VINA RESULT: -7.566258340      0.000      0.000
REMARK  15 active torsions:
REMARK  status: ('A' for Active; 'I' for Inactive)
REMARK    1  A    between atoms: N1_1  and  C1_5 
REMARK    2  A    between atoms: C1_5  and  C2_6 
REMARK    3  A    between atoms: C2_6  and  C3_7 
REMARK    4  A    between atoms: C3_7  and  C4_8 
REMARK    5  A    between atoms: C4_8  and  C5_9 
REMARK    6  A    between atoms: C5_9  and  N2_10 
REMARK    7  A    between atoms: C5_9  and  C16_25 
REMARK    8  A    between atoms: N2_10  and  C6_13 
REMARK    9  A    between atoms: C6_13  and  C7_14 
REMARK   10  A    between atoms: C6_13  and  C15_22 
REMARK   11  A    between atoms: C7_14  and  C8_15 
REMARK   12  A    between atoms: C8_15  and  C9_16 
REMARK   13  A    between atoms: C16_25  and  O3_26 
REMARK   14  A    between atoms: C16_25  and  N3_28 
REMARK   15  A    between atoms: C20_32  and  C21_33 
ROOT
HETATM    1  C5  UNL     1      13.159  -6.039  17.551  1.00  0.00     0.260 C 
ENDROOT
BRANCH   1   2
HETATM    2  C4  UNL     1      13.452  -7.121  18.574  1.00  0.00     0.041 C 
BRANCH   2   3
HETATM    3  C3  UNL     1      14.829  -7.038  19.171  1.00  0.00     0.004 C 
BRANCH   3   4
HETATM    4  C2  UNL     1      14.981  -8.032  20.326  1.00  0.00     0.027 C 
BRANCH   4   5
HETATM    5  C1  UNL     1      16.410  -8.204  20.732  1.00  0.00     0.229 C 
BRANCH   5   6
HETATM    6  N1  UNL     1      16.864  -9.507  20.341  1.00  0.00    -0.079 N 
ATOM      7  H13 UNL     1      16.914  -9.610  19.328  1.00  0.00     0.274 HD
ATOM      8  H12 UNL     1      17.851  -9.651  20.551  1.00  0.00     0.274 HD
ATOM      9  H11 UNL     1      16.270 -10.216  20.771  1.00  0.00     0.274 HD
ENDBRANCH   5   6
ENDBRANCH   4   5
ENDBRANCH   3   4
ENDBRANCH   2   3
ENDBRANCH   1   2
BRANCH   1  10
HETATM   10  N2  UNL     1      11.789  -5.638  17.795  1.00  0.00    -0.050 N 
ATOM     11  H22 UNL     1      11.232  -5.672  16.940  1.00  0.00     0.279 HD
ATOM     12  H21 UNL     1      11.286  -6.338  18.339  1.00  0.00     0.279 HD
BRANCH  10  13
HETATM   13  C6  UNL     1      11.725  -4.339  18.415  1.00  0.00     0.287 C 
BRANCH  13  14
HETATM   14  C7  UNL     1      12.946  -3.503  18.100  1.00  0.00     0.049 C 
BRANCH  14  15
HETATM   15  C8  UNL     1      13.307  -2.658  19.296  1.00  0.00     0.041 C 
BRANCH  15  16
HETATM   16  C9  UNL     1      14.045  -3.431  20.315  1.00  0.00    -0.058 A 
HETATM   17  C10 UNL     1      13.390  -4.112  21.297  1.00  0.00     0.007 A 
HETATM   18  C11 UNL     1      14.122  -4.819  22.226  1.00  0.00     0.001 A 
HETATM   19  C12 UNL     1      15.497  -4.829  22.151  1.00  0.00     0.000 A 
HETATM   20  C13 UNL     1      16.151  -4.140  21.157  1.00  0.00     0.001 A 
HETATM   21  C14 UNL     1      15.429  -3.434  20.229  1.00  0.00     0.007 A 
ENDBRANCH  15  16
ENDBRANCH  14  15
ENDBRANCH  13  14
BRANCH  13  22
HETATM   22  C15 UNL     1      10.555  -3.619  17.787  1.00  0.00     0.204 C 
HETATM   23  O1  UNL     1      10.726  -2.969  16.730  1.00  0.00    -0.646 OA
HETATM   24  O2  UNL     1       9.283  -3.649  18.342  1.00  0.00    -0.646 OA
ENDBRANCH  13  22
ENDBRANCH  10  13
ENDBRANCH   1  10
BRANCH   1  25
HETATM   25  C16 UNL     1      13.502  -6.404  16.188  1.00  0.00     0.146 C 
BRANCH  25  26
HETATM   26  O3  UNL     1      12.581  -6.255  15.273  1.00  0.00    -0.348 OA
ATOM     27  H3  UNL     1      12.567  -6.880  14.558  1.00  0.00     0.219 HD
ENDBRANCH  25  26
BRANCH  25  28
HETATM   28  N3  UNL     1      14.691  -6.910  15.626  1.00  0.00    -0.342 N 
HETATM   29  C17 UNL     1      15.334  -8.196  15.582  1.00  0.00     0.153 C 
HETATM   30  C18 UNL     1      16.762  -7.804  15.866  1.00  0.00    -0.008 C 
HETATM   31  C19 UNL     1      16.926  -6.568  15.423  1.00  0.00     0.007 C 
HETATM   32  C20 UNL     1      15.651  -6.093  14.839  1.00  0.00     0.210 C 
BRANCH  32  33
HETATM   33  C21 UNL     1      15.577  -6.366  13.412  1.00  0.00     0.200 C 
HETATM   34  O4  UNL     1      14.430  -6.488  12.910  1.00  0.00    -0.646 OA
HETATM   35  O5  UNL     1      16.644  -6.507  12.543  1.00  0.00    -0.646 OA
ENDBRANCH  32  33
ENDBRANCH  25  28
ENDBRANCH   1  25
TORSDOF 15
ENDMDL
