MODEL 2
REMARK VINA RESULT: -7.558799993      1.265      1.687
REMARK  15 active torsions:
REMARK  status: ('A' for Active; 'I' for Inactive)
REMARK    1  A    between atoms: N1_1  and  C1_5 
REMARK    2  A    between atoms: C1_5  and  C2_6 
REMARK    3  A    between atoms: C2_6  and  C3_7 
REMARK    4  A    between atoms: C3_7  and  C4_8 
REMARK    5  A    between atoms: C4_8  and  C5_9 
REMARK    6  A    between atoms: C5_9  and  N2_10 
REMARK    7  A    between atoms: C5_9  and  C16_25 
REMARK    8  A    between atoms: N2_10  and  C6_13 
REMARK    9  A    between atoms: C6_13  and  C7_14 
REMARK   10  A    between atoms: C6_13  and  C15_22 
REMARK   11  A    between atoms: C7_14  and  C8_15 
REMARK   12  A    between atoms: C8_15  and  C9_16 
REMARK   13  A    between atoms: C16_25  and  O3_26 
REMARK   14  A    between atoms: C16_25  and  N3_28 
REMARK   15  A    between atoms: C20_32  and  C21_33 
ROOT
HETATM    1  C5  UNL     1      13.661  -5.450  17.459  1.00  0.00     0.260 C 
ENDROOT
BRANCH   1   2
HETATM    2  C4  UNL     1      14.659  -6.185  18.336  1.00  0.00     0.041 C 
BRANCH   2   3
HETATM    3  C3  UNL     1      14.032  -7.192  19.259  1.00  0.00     0.004 C 
BRANCH   3   4
HETATM    4  C2  UNL     1      15.095  -7.858  20.137  1.00  0.00     0.027 C 
BRANCH   4   5
HETATM    5  C1  UNL     1      16.480  -7.458  19.740  1.00  0.00     0.229 C 
BRANCH   5   6
HETATM    6  N1  UNL     1      17.207  -8.618  19.309  1.00  0.00    -0.079 N 
ATOM      7  H13 UNL     1      16.960  -9.449  19.845  1.00  0.00     0.274 HD
ATOM      8  H12 UNL     1      16.906  -8.942  18.390  1.00  0.00     0.274 HD
ATOM      9  H11 UNL     1      18.207  -8.422  19.341  1.00  0.00     0.274 HD
ENDBRANCH   5   6
ENDBRANCH   4   5
ENDBRANCH   3   4
ENDBRANCH   2   3
ENDBRANCH   1   2
BRANCH   1  10
HETATM   10  N2  UNL     1      12.426  -5.426  18.214  1.00  0.00    -0.050 N 
ATOM     11  H22 UNL     1      11.664  -5.867  17.698  1.00  0.00     0.279 HD
ATOM     12  H21 UNL     1      12.463  -6.061  19.012  1.00  0.00     0.279 HD
BRANCH  10  13
HETATM   13  C6  UNL     1      12.084  -4.087  18.620  1.00  0.00     0.287 C 
BRANCH  13  14
HETATM   14  C7  UNL     1      13.172  -3.096  18.268  1.00  0.00     0.049 C 
BRANCH  14  15
HETATM   15  C8  UNL     1      13.599  -2.347  19.505  1.00  0.00     0.041 C 
BRANCH  15  16
HETATM   16  C9  UNL     1      14.237  -3.235  20.496  1.00  0.00    -0.058 A 
HETATM   17  C10 UNL     1      13.494  -3.934  21.401  1.00  0.00     0.007 A 
HETATM   18  C11 UNL     1      14.135  -4.751  22.307  1.00  0.00     0.001 A 
HETATM   19  C12 UNL     1      15.508  -4.852  22.286  1.00  0.00     0.000 A 
HETATM   20  C13 UNL     1      16.251  -4.145  21.370  1.00  0.00     0.001 A 
HETATM   21  C14 UNL     1      15.620  -3.330  20.466  1.00  0.00     0.007 A 
ENDBRANCH  15  16
ENDBRANCH  14  15
ENDBRANCH  13  14
BRANCH  13  22
HETATM   22  C15 UNL     1      10.877  -3.685  17.805  1.00  0.00     0.204 C 
HETATM   23  O1  UNL     1      11.031  -3.305  16.622  1.00  0.00    -0.646 OA
HETATM   24  O2  UNL     1       9.590  -3.721  18.323  1.00  0.00    -0.646 OA
ENDBRANCH  13  22
ENDBRANCH  10  13
ENDBRANCH   1  10
BRANCH   1  25
HETATM   25  C16 UNL     1      13.588  -5.950  16.099  1.00  0.00     0.146 C 
BRANCH  25  26
HETATM   26  O3  UNL     1      12.407  -6.018  15.543  1.00  0.00    -0.348 OA
ATOM     27  H3  UNL     1      12.328  -6.515  14.738  1.00  0.00     0.219 HD
ENDBRANCH  25  26
BRANCH  25  28
HETATM   28  N3  UNL     1      14.586  -6.398  15.211  1.00  0.00    -0.342 N 
HETATM   29  C17 UNL     1      15.807  -5.850  14.684  1.00  0.00     0.153 C 
HETATM   30  C18 UNL     1      15.683  -6.236  13.232  1.00  0.00    -0.008 C 
HETATM   31  C19 UNL     1      14.957  -7.341  13.178  1.00  0.00     0.007 C 
HETATM   32  C20 UNL     1      14.575  -7.732  14.554  1.00  0.00     0.210 C 
BRANCH  32  33
HETATM   33  C21 UNL     1      15.539  -8.650  15.141  1.00  0.00     0.200 C 
HETATM   34  O4  UNL     1      15.859  -9.659  14.462  1.00  0.00    -0.646 OA
HETATM   35  O5  UNL     1      16.145  -8.527  16.379  1.00  0.00    -0.646 OA
ENDBRANCH  32  33
ENDBRANCH  25  28
ENDBRANCH   1  25
TORSDOF 15
ENDMDL
