MODEL 1
REMARK VINA RESULT: -5.902667311      0.000      0.000
REMARK  3 active torsions:
REMARK  status: ('A' for Active; 'I' for Inactive)
REMARK    1  A    between atoms: C2_2  and  C3_3 
REMARK    2  A    between atoms: C2_2  and  C4_5 
REMARK       I    between atoms: C4_5  and  N1_7 
REMARK    3  A    between atoms: C8_11  and  C9_12 
ROOT
HETATM    1  C4  UNL     1      13.927  -3.896  19.554  1.00  0.00     0.225 C 
HETATM    2  O1  UNL     1      14.073  -2.829  18.911  1.00  0.00    -0.273 OA
HETATM    3  N1  UNL     1      13.098  -4.920  19.032  1.00  0.00    -0.337 N 
HETATM    4  C5  UNL     1      12.827  -6.207  19.654  1.00  0.00     0.127 C 
HETATM    5  C6  UNL     1      12.886  -7.101  18.406  1.00  0.00     0.022 C 
HETATM    6  C7  UNL     1      11.927  -6.327  17.525  1.00  0.00     0.038 C 
HETATM    7  C8  UNL     1      12.357  -4.900  17.786  1.00  0.00     0.188 C 
ENDROOT
BRANCH   1   8
HETATM    8  C2  UNL     1      14.635  -4.040  20.847  1.00  0.00     0.084 C 
HETATM    9  C1  UNL     1      14.272  -2.992  21.850  1.00  0.00     0.020 C 
BRANCH   8  10
HETATM   10  C3  UNL     1      16.125  -4.109  20.645  1.00  0.00     0.099 C 
HETATM   11  S1  UNL     1      16.665  -5.791  20.286  1.00  0.00    -0.097 SA
ENDBRANCH   8  10
ENDBRANCH   1   8
BRANCH   7  12
HETATM   12  C9  UNL     1      11.157  -4.012  17.948  1.00  0.00     0.196 C 
HETATM   13  O2  UNL     1      11.107  -2.980  17.260  1.00  0.00    -0.646 OA
HETATM   14  O3  UNL     1      10.139  -4.319  18.829  1.00  0.00    -0.646 OA
ENDBRANCH   7  12
TORSDOF 3
ENDMDL
