MODEL 4
REMARK VINA RESULT: -5.634414348      4.586      5.825
REMARK  3 active torsions:
REMARK  status: ('A' for Active; 'I' for Inactive)
REMARK    1  A    between atoms: C2_2  and  C3_3 
REMARK    2  A    between atoms: C2_2  and  C4_5 
REMARK       I    between atoms: C4_5  and  N1_7 
REMARK    3  A    between atoms: C8_11  and  C9_12 
ROOT
HETATM    1  C4  UNL     1      14.349  -6.159  21.795  1.00  0.00     0.225 C 
HETATM    2  O1  UNL     1      13.387  -6.459  22.542  1.00  0.00    -0.273 OA
HETATM    3  N1  UNL     1      15.444  -7.051  21.671  1.00  0.00    -0.337 N 
HETATM    4  C5  UNL     1      16.628  -6.849  20.850  1.00  0.00     0.127 C 
HETATM    5  C6  UNL     1      16.792  -8.274  20.300  1.00  0.00     0.022 C 
HETATM    6  C7  UNL     1      16.745  -9.032  21.611  1.00  0.00     0.038 C 
HETATM    7  C8  UNL     1      15.610  -8.333  22.327  1.00  0.00     0.188 C 
ENDROOT
BRANCH   1   8
HETATM    8  C2  UNL     1      14.298  -4.871  21.066  1.00  0.00     0.084 C 
HETATM    9  C1  UNL     1      14.962  -3.744  21.791  1.00  0.00     0.020 C 
BRANCH   8  10
HETATM   10  C3  UNL     1      12.885  -4.518  20.686  1.00  0.00     0.099 C 
HETATM   11  S1  UNL     1      12.379  -5.357  19.173  1.00  0.00    -0.097 SA
ENDBRANCH   8  10
ENDBRANCH   1   8
BRANCH   7  12
HETATM   12  C9  UNL     1      15.962  -8.100  23.768  1.00  0.00     0.196 C 
HETATM   13  O2  UNL     1      15.133  -8.440  24.626  1.00  0.00    -0.646 OA
HETATM   14  O3  UNL     1      17.163  -7.528  24.139  1.00  0.00    -0.646 OA
ENDBRANCH   7  12
TORSDOF 3
ENDMDL
