MODEL 2
REMARK VINA RESULT: -5.827957757      2.856      4.891
REMARK  3 active torsions:
REMARK  status: ('A' for Active; 'I' for Inactive)
REMARK    1  A    between atoms: C2_2  and  C3_3 
REMARK    2  A    between atoms: C2_2  and  C4_5 
REMARK       I    between atoms: C4_5  and  N1_7 
REMARK    3  A    between atoms: C8_11  and  C9_12 
ROOT
HETATM    1  C4  UNL     1      11.950  -3.653  18.142  1.00  0.00     0.225 C 
HETATM    2  O1  UNL     1      11.746  -2.687  17.368  1.00  0.00    -0.273 OA
HETATM    3  N1  UNL     1      13.007  -3.584  19.084  1.00  0.00    -0.337 N 
HETATM    4  C5  UNL     1      13.371  -4.616  20.044  1.00  0.00     0.127 C 
HETATM    5  C6  UNL     1      13.665  -3.726  21.261  1.00  0.00     0.022 C 
HETATM    6  C7  UNL     1      14.623  -2.752  20.606  1.00  0.00     0.038 C 
HETATM    7  C8  UNL     1      13.934  -2.489  19.285  1.00  0.00     0.188 C 
ENDROOT
BRANCH   1   8
HETATM    8  C2  UNL     1      11.067  -4.838  18.035  1.00  0.00     0.084 C 
HETATM    9  C1  UNL     1      11.237  -5.600  16.760  1.00  0.00     0.020 C 
BRANCH   8  10
HETATM   10  C3  UNL     1       9.627  -4.463  18.260  1.00  0.00     0.099 C 
HETATM   11  S1  UNL     1       8.710  -4.405  16.709  1.00  0.00    -0.097 SA
ENDBRANCH   8  10
ENDBRANCH   1   8
BRANCH   7  12
HETATM   12  C9  UNL     1      14.933  -2.483  18.164  1.00  0.00     0.196 C 
HETATM   13  O2  UNL     1      15.198  -1.394  17.634  1.00  0.00    -0.646 OA
HETATM   14  O3  UNL     1      15.541  -3.644  17.728  1.00  0.00    -0.646 OA
ENDBRANCH   7  12
TORSDOF 3
ENDMDL
