MODEL 3
REMARK VINA RESULT: -5.770834154      1.649      1.691
REMARK  3 active torsions:
REMARK  status: ('A' for Active; 'I' for Inactive)
REMARK    1  A    between atoms: C2_2  and  C3_3 
REMARK    2  A    between atoms: C2_2  and  C4_5 
REMARK       I    between atoms: C4_5  and  N1_7 
REMARK    3  A    between atoms: C8_11  and  C9_12 
ROOT
HETATM    1  C4  UNL     1      13.163  -4.969  20.013  1.00  0.00     0.225 C 
HETATM    2  O1  UNL     1      13.455  -3.750  20.047  1.00  0.00    -0.273 OA
HETATM    3  N1  UNL     1      12.572  -5.515  18.845  1.00  0.00    -0.337 N 
HETATM    4  C5  UNL     1      12.176  -6.902  18.651  1.00  0.00     0.127 C 
HETATM    5  C6  UNL     1      12.645  -7.089  17.200  1.00  0.00     0.022 C 
HETATM    6  C7  UNL     1      11.968  -5.883  16.582  1.00  0.00     0.038 C 
HETATM    7  C8  UNL     1      12.243  -4.816  17.619  1.00  0.00     0.188 C 
ENDROOT
BRANCH   1   8
HETATM    8  C2  UNL     1      13.452  -5.795  21.208  1.00  0.00     0.084 C 
HETATM    9  C1  UNL     1      13.453  -5.021  22.487  1.00  0.00     0.020 C 
BRANCH   8  10
HETATM   10  C3  UNL     1      14.732  -6.568  21.037  1.00  0.00     0.099 C 
HETATM   11  S1  UNL     1      14.478  -8.333  21.302  1.00  0.00    -0.097 SA
ENDBRANCH   8  10
ENDBRANCH   1   8
BRANCH   7  12
HETATM   12  C9  UNL     1      11.016  -3.980  17.850  1.00  0.00     0.196 C 
HETATM   13  O2  UNL     1      10.895  -2.939  17.186  1.00  0.00    -0.646 OA
HETATM   14  O3  UNL     1      10.051  -4.345  18.767  1.00  0.00    -0.646 OA
ENDBRANCH   7  12
TORSDOF 3
ENDMDL
