MODEL 4
REMARK VINA RESULT: -7.288301118      3.201      7.870
REMARK  16 active torsions:
REMARK  status: ('A' for Active; 'I' for Inactive)
REMARK    1  A    between atoms: O1_2  and  C2_3 
REMARK    2  A    between atoms: C4_5  and  C5_6 
REMARK    3  A    between atoms: C5_6  and  C6_9 
REMARK       I    between atoms: C6_9  and  N1_11 
REMARK    4  A    between atoms: C11_16  and  C12_17 
REMARK    5  A    between atoms: C12_17  and  O4_19 
REMARK    6  A    between atoms: O4_19  and  C13_20 
REMARK    7  A    between atoms: C13_20  and  C14_21 
REMARK    8  A    between atoms: C13_20  and  C23_30 
REMARK    9  A    between atoms: C14_21  and  C15_22 
REMARK   10  A    between atoms: C15_22  and  C16_23 
REMARK   11  A    between atoms: C16_23  and  C17_24 
REMARK   12  A    between atoms: C23_30  and  C24_31 
REMARK   13  A    between atoms: C24_31  and  C25_32 
REMARK   14  A    between atoms: C25_32  and  C26_33 
REMARK   15  A    between atoms: C32_41  and  O5_42 
REMARK   16  A    between atoms: C34_44  and  O6_45 
ROOT
HETATM    1  C6  UNL     1      31.028  16.316  27.156  1.00  0.00     0.298 C 
HETATM    2  O2  UNL     1      32.179  16.811  27.160  1.00  0.00    -0.266 OA
HETATM    3  N1  UNL     1      30.691  15.420  26.110  1.00  0.00    -0.333 N 
HETATM    4  C7  UNL     1      31.656  15.100  25.080  1.00  0.00     0.127 C 
HETATM    5  C8  UNL     1      31.072  14.807  23.750  1.00  0.00     0.020 C 
HETATM    6  C9  UNL     1      29.653  15.182  23.526  1.00  0.00     0.004 C 
HETATM    7  C10 UNL     1      28.747  15.148  24.694  1.00  0.00     0.035 C 
HETATM    8  C11 UNL     1      29.400  14.779  26.005  1.00  0.00     0.187 C 
ENDROOT
BRANCH   8   9
HETATM    9  C12 UNL     1      29.518  13.299  26.054  1.00  0.00     0.282 C 
HETATM   10  O3  UNL     1      30.508  12.708  26.538  1.00  0.00    -0.263 OA
BRANCH   9  11
HETATM   11  O4  UNL     1      28.495  12.545  25.545  1.00  0.00    -0.314 OA
BRANCH  11  12
HETATM   12  C13 UNL     1      27.153  12.636  25.982  1.00  0.00     0.132 C 
BRANCH  12  13
HETATM   13  C14 UNL     1      26.462  11.384  25.455  1.00  0.00     0.033 C 
BRANCH  13  14
HETATM   14  C15 UNL     1      25.710  11.597  24.192  1.00  0.00     0.007 C 
BRANCH  14  15
HETATM   15  C16 UNL     1      26.451  11.371  22.924  1.00  0.00     0.038 C 
BRANCH  15  16
HETATM   16  C17 UNL     1      26.816  12.566  22.166  1.00  0.00    -0.058 A 
HETATM   17  C18 UNL     1      26.126  13.738  22.294  1.00  0.00     0.007 A 
HETATM   18  C19 UNL     1      26.482  14.883  21.572  1.00  0.00     0.001 A 
HETATM   19  C20 UNL     1      27.537  14.850  20.716  1.00  0.00     0.000 A 
HETATM   20  C21 UNL     1      28.248  13.686  20.569  1.00  0.00     0.001 A 
HETATM   21  C22 UNL     1      27.895  12.558  21.283  1.00  0.00     0.007 A 
ENDBRANCH  15  16
ENDBRANCH  14  15
ENDBRANCH  13  14
ENDBRANCH  12  13
BRANCH  12  22
HETATM   22  C23 UNL     1      27.142  12.518  27.494  1.00  0.00     0.033 C 
BRANCH  22  23
HETATM   23  C24 UNL     1      26.477  13.675  28.177  1.00  0.00     0.007 C 
BRANCH  23  24
HETATM   24  C25 UNL     1      26.421  13.572  29.668  1.00  0.00     0.040 C 
BRANCH  24  25
HETATM   25  C26 UNL     1      25.056  13.109  30.029  1.00  0.00    -0.043 A 
HETATM   26  C27 UNL     1      24.863  12.171  31.010  1.00  0.00     0.010 A 
HETATM   27  C28 UNL     1      23.594  11.745  31.339  1.00  0.00     0.018 A 
HETATM   28  C29 UNL     1      22.503  12.277  30.665  1.00  0.00     0.087 A 
HETATM   29  N2  UNL     1      22.749  13.187  29.719  1.00  0.00    -0.375 N 
HETATM   30  C30 UNL     1      23.968  13.622  29.374  1.00  0.00     0.094 A 
ATOM     31  H2  UNL     1      21.949  13.580  29.222  1.00  0.00     0.164 HD
ENDBRANCH  24  25
ENDBRANCH  23  24
ENDBRANCH  22  23
ENDBRANCH  12  22
ENDBRANCH  11  12
ENDBRANCH   9  11
ENDBRANCH   8   9
BRANCH   1  32
HETATM   32  C5  UNL     1      30.025  16.623  28.179  1.00  0.00     0.350 C 
HETATM   33  F1  UNL     1      30.627  17.218  29.284  1.00  0.00    -0.190 F 
HETATM   34  F2  UNL     1      29.408  15.453  28.577  1.00  0.00    -0.190 F 
BRANCH  32  35
HETATM   35  C4  UNL     1      28.982  17.556  27.719  1.00  0.00     0.028 A 
HETATM   36  C3  UNL     1      27.663  17.254  27.986  1.00  0.00     0.053 A 
HETATM   37  C2  UNL     1      26.629  18.075  27.594  1.00  0.00     0.105 A 
HETATM   38  C34 UNL     1      26.891  19.238  26.913  1.00  0.00     0.135 A 
HETATM   39  C32 UNL     1      28.227  19.550  26.637  1.00  0.00     0.105 A 
HETATM   40  C31 UNL     1      29.251  18.722  27.036  1.00  0.00     0.053 A 
BRANCH  37  41
HETATM   41  O1  UNL     1      25.314  17.751  27.875  1.00  0.00    -0.353 OA
HETATM   42  C1  UNL     1      24.994  17.210  29.137  1.00  0.00     0.210 C 
ENDBRANCH  37  41
BRANCH  38  43
HETATM   43  O6  UNL     1      25.898  20.106  26.490  1.00  0.00    -0.351 OA
HETATM   44  C35 UNL     1      25.501  21.119  27.397  1.00  0.00     0.210 C 
ENDBRANCH  38  43
BRANCH  39  45
HETATM   45  O5  UNL     1      28.499  20.717  25.952  1.00  0.00    -0.353 OA
HETATM   46  C33 UNL     1      29.816  20.967  25.506  1.00  0.00     0.210 C 
ENDBRANCH  39  45
ENDBRANCH  32  35
ENDBRANCH   1  32
TORSDOF 16
ENDMDL
