MODEL 5
REMARK VINA RESULT: -7.281830060      4.498      8.586
REMARK  16 active torsions:
REMARK  status: ('A' for Active; 'I' for Inactive)
REMARK    1  A    between atoms: O1_2  and  C2_3 
REMARK    2  A    between atoms: C4_5  and  C5_6 
REMARK    3  A    between atoms: C5_6  and  C6_9 
REMARK       I    between atoms: C6_9  and  N1_11 
REMARK    4  A    between atoms: C11_16  and  C12_17 
REMARK    5  A    between atoms: C12_17  and  O4_19 
REMARK    6  A    between atoms: O4_19  and  C13_20 
REMARK    7  A    between atoms: C13_20  and  C14_21 
REMARK    8  A    between atoms: C13_20  and  C23_30 
REMARK    9  A    between atoms: C14_21  and  C15_22 
REMARK   10  A    between atoms: C15_22  and  C16_23 
REMARK   11  A    between atoms: C16_23  and  C17_24 
REMARK   12  A    between atoms: C23_30  and  C24_31 
REMARK   13  A    between atoms: C24_31  and  C25_32 
REMARK   14  A    between atoms: C25_32  and  C26_33 
REMARK   15  A    between atoms: C32_41  and  O5_42 
REMARK   16  A    between atoms: C34_44  and  O6_45 
ROOT
HETATM    1  C6  UNL     1      31.969  12.438  23.341  1.00  0.00     0.298 C 
HETATM    2  O2  UNL     1      31.585  12.150  22.183  1.00  0.00    -0.266 OA
HETATM    3  N1  UNL     1      31.257  13.440  24.050  1.00  0.00    -0.333 N 
HETATM    4  C7  UNL     1      30.126  14.106  23.440  1.00  0.00     0.127 C 
HETATM    5  C8  UNL     1      29.928  15.511  23.866  1.00  0.00     0.020 C 
HETATM    6  C9  UNL     1      31.046  16.175  24.582  1.00  0.00     0.004 C 
HETATM    7  C10 UNL     1      31.923  15.324  25.415  1.00  0.00     0.035 C 
HETATM    8  C11 UNL     1      31.597  13.849  25.393  1.00  0.00     0.187 C 
ENDROOT
BRANCH   8   9
HETATM    9  C12 UNL     1      30.475  13.617  26.338  1.00  0.00     0.282 C 
HETATM   10  O3  UNL     1      30.310  14.290  27.379  1.00  0.00    -0.263 OA
BRANCH   9  11
HETATM   11  O4  UNL     1      29.581  12.619  26.059  1.00  0.00    -0.314 OA
BRANCH  11  12
HETATM   12  C13 UNL     1      28.220  12.648  26.444  1.00  0.00     0.132 C 
BRANCH  12  13
HETATM   13  C14 UNL     1      27.433  12.859  25.157  1.00  0.00     0.033 C 
BRANCH  13  14
HETATM   14  C15 UNL     1      26.484  11.760  24.844  1.00  0.00     0.007 C 
BRANCH  14  15
HETATM   15  C16 UNL     1      26.101  11.590  23.418  1.00  0.00     0.038 C 
BRANCH  15  16
HETATM   16  C17 UNL     1      26.610  12.597  22.488  1.00  0.00    -0.058 A 
HETATM   17  C18 UNL     1      27.591  12.311  21.582  1.00  0.00     0.007 A 
HETATM   18  C19 UNL     1      28.070  13.276  20.689  1.00  0.00     0.001 A 
HETATM   19  C20 UNL     1      27.562  14.536  20.706  1.00  0.00     0.000 A 
HETATM   20  C21 UNL     1      26.576  14.850  21.607  1.00  0.00     0.001 A 
HETATM   21  C22 UNL     1      26.104  13.897  22.487  1.00  0.00     0.007 A 
ENDBRANCH  15  16
ENDBRANCH  14  15
ENDBRANCH  13  14
ENDBRANCH  12  13
BRANCH  12  22
HETATM   22  C23 UNL     1      27.845  11.267  26.947  1.00  0.00     0.033 C 
BRANCH  22  23
HETATM   23  C24 UNL     1      28.035  11.098  28.424  1.00  0.00     0.007 C 
BRANCH  23  24
HETATM   24  C25 UNL     1      27.970  12.368  29.210  1.00  0.00     0.040 C 
BRANCH  24  25
HETATM   25  C26 UNL     1      26.620  12.440  29.825  1.00  0.00    -0.043 A 
HETATM   26  C27 UNL     1      26.260  11.593  30.842  1.00  0.00     0.010 A 
HETATM   27  C28 UNL     1      25.004  11.664  31.407  1.00  0.00     0.018 A 
HETATM   28  C29 UNL     1      24.100  12.608  30.938  1.00  0.00     0.087 A 
HETATM   29  N2  UNL     1      24.505  13.406  29.947  1.00  0.00    -0.375 N 
HETATM   30  C30 UNL     1      25.715  13.364  29.375  1.00  0.00     0.094 A 
ATOM     31  H2  UNL     1      23.843  14.101  29.600  1.00  0.00     0.164 HD
ENDBRANCH  24  25
ENDBRANCH  23  24
ENDBRANCH  22  23
ENDBRANCH  12  22
ENDBRANCH  11  12
ENDBRANCH   9  11
ENDBRANCH   8   9
BRANCH   1  32
HETATM   32  C5  UNL     1      33.112  11.789  23.986  1.00  0.00     0.350 C 
HETATM   33  F1  UNL     1      32.691  11.048  25.087  1.00  0.00    -0.190 F 
HETATM   34  F2  UNL     1      34.006  12.754  24.407  1.00  0.00    -0.190 F 
BRANCH  32  35
HETATM   35  C4  UNL     1      33.832  10.853  23.105  1.00  0.00     0.028 A 
HETATM   36  C3  UNL     1      34.531  11.364  22.032  1.00  0.00     0.053 A 
HETATM   37  C2  UNL     1      35.233  10.558  21.162  1.00  0.00     0.105 A 
HETATM   38  C34 UNL     1      35.253   9.198  21.347  1.00  0.00     0.135 A 
HETATM   39  C32 UNL     1      34.545   8.672  22.434  1.00  0.00     0.105 A 
HETATM   40  C31 UNL     1      33.849   9.489  23.294  1.00  0.00     0.053 A 
BRANCH  37  41
HETATM   41  O1  UNL     1      35.928  11.094  20.093  1.00  0.00    -0.353 OA
HETATM   42  C1  UNL     1      37.198  11.663  20.316  1.00  0.00     0.210 C 
ENDBRANCH  37  41
BRANCH  38  43
HETATM   43  O6  UNL     1      35.938   8.332  20.511  1.00  0.00    -0.351 OA
HETATM   44  C35 UNL     1      35.301   7.972  19.298  1.00  0.00     0.210 C 
ENDBRANCH  38  43
BRANCH  39  45
HETATM   45  O5  UNL     1      34.560   7.305  22.625  1.00  0.00    -0.353 OA
HETATM   46  C33 UNL     1      34.891   6.789  23.899  1.00  0.00     0.210 C 
ENDBRANCH  39  45
ENDBRANCH  32  35
ENDBRANCH   1  32
TORSDOF 16
ENDMDL
