MODEL 3
REMARK VINA RESULT: -7.330779312      5.388      9.428
REMARK  16 active torsions:
REMARK  status: ('A' for Active; 'I' for Inactive)
REMARK    1  A    between atoms: O1_2  and  C2_3 
REMARK    2  A    between atoms: C4_5  and  C5_6 
REMARK    3  A    between atoms: C5_6  and  C6_9 
REMARK       I    between atoms: C6_9  and  N1_11 
REMARK    4  A    between atoms: C11_16  and  C12_17 
REMARK    5  A    between atoms: C12_17  and  O4_19 
REMARK    6  A    between atoms: O4_19  and  C13_20 
REMARK    7  A    between atoms: C13_20  and  C14_21 
REMARK    8  A    between atoms: C13_20  and  C23_30 
REMARK    9  A    between atoms: C14_21  and  C15_22 
REMARK   10  A    between atoms: C15_22  and  C16_23 
REMARK   11  A    between atoms: C16_23  and  C17_24 
REMARK   12  A    between atoms: C23_30  and  C24_31 
REMARK   13  A    between atoms: C24_31  and  C25_32 
REMARK   14  A    between atoms: C25_32  and  C26_33 
REMARK   15  A    between atoms: C32_41  and  O5_42 
REMARK   16  A    between atoms: C34_44  and  O6_45 
ROOT
HETATM    1  C6  UNL     1      35.066  11.366  23.837  1.00  0.00     0.298 C 
HETATM    2  O2  UNL     1      36.152  11.969  23.666  1.00  0.00    -0.266 OA
HETATM    3  N1  UNL     1      34.661  11.083  25.166  1.00  0.00    -0.333 N 
HETATM    4  C7  UNL     1      35.490  11.480  26.285  1.00  0.00     0.127 C 
HETATM    5  C8  UNL     1      35.414  10.585  27.463  1.00  0.00     0.020 C 
HETATM    6  C9  UNL     1      34.791   9.252  27.273  1.00  0.00     0.004 C 
HETATM    7  C10 UNL     1      33.722   9.138  26.257  1.00  0.00     0.035 C 
HETATM    8  C11 UNL     1      33.428  10.404  25.488  1.00  0.00     0.187 C 
ENDROOT
BRANCH   8   9
HETATM    9  C12 UNL     1      32.539  11.249  26.327  1.00  0.00     0.282 C 
HETATM   10  O3  UNL     1      31.713  10.776  27.137  1.00  0.00    -0.263 OA
BRANCH   9  11
HETATM   11  O4  UNL     1      32.627  12.610  26.207  1.00  0.00    -0.314 OA
BRANCH  11  12
HETATM   12  C13 UNL     1      31.584  13.428  25.713  1.00  0.00     0.132 C 
BRANCH  12  13
HETATM   13  C14 UNL     1      31.121  12.767  24.420  1.00  0.00     0.033 C 
BRANCH  13  14
HETATM   14  C15 UNL     1      31.374  13.580  23.203  1.00  0.00     0.007 C 
BRANCH  14  15
HETATM   15  C16 UNL     1      30.435  14.702  22.940  1.00  0.00     0.038 C 
BRANCH  15  16
HETATM   16  C17 UNL     1      29.168  14.348  22.304  1.00  0.00    -0.058 A 
HETATM   17  C18 UNL     1      27.988  14.929  22.674  1.00  0.00     0.007 A 
HETATM   18  C19 UNL     1      26.778  14.591  22.058  1.00  0.00     0.001 A 
HETATM   19  C20 UNL     1      26.752  13.665  21.064  1.00  0.00     0.000 A 
HETATM   20  C21 UNL     1      27.922  13.066  20.673  1.00  0.00     0.001 A 
HETATM   21  C22 UNL     1      29.116  13.400  21.281  1.00  0.00     0.007 A 
ENDBRANCH  15  16
ENDBRANCH  14  15
ENDBRANCH  13  14
ENDBRANCH  12  13
BRANCH  12  22
HETATM   22  C23 UNL     1      30.416  13.334  26.676  1.00  0.00     0.033 C 
BRANCH  22  23
HETATM   23  C24 UNL     1      29.082  13.325  25.994  1.00  0.00     0.007 C 
BRANCH  23  24
HETATM   24  C25 UNL     1      28.168  12.222  26.423  1.00  0.00     0.040 C 
BRANCH  24  25
HETATM   25  C26 UNL     1      26.939  12.317  25.595  1.00  0.00    -0.043 A 
HETATM   26  C27 UNL     1      26.645  11.365  24.652  1.00  0.00     0.010 A 
HETATM   27  C28 UNL     1      25.503  11.461  23.886  1.00  0.00     0.018 A 
HETATM   28  C29 UNL     1      24.644  12.535  24.078  1.00  0.00     0.087 A 
HETATM   29  N2  UNL     1      24.979  13.431  25.009  1.00  0.00    -0.375 N 
HETATM   30  C30 UNL     1      26.080  13.370  25.769  1.00  0.00     0.094 A 
ATOM     31  H2  UNL     1      24.350  14.221  25.152  1.00  0.00     0.164 HD
ENDBRANCH  24  25
ENDBRANCH  23  24
ENDBRANCH  22  23
ENDBRANCH  12  22
ENDBRANCH  11  12
ENDBRANCH   9  11
ENDBRANCH   8   9
BRANCH   1  32
HETATM   32  C5  UNL     1      34.207  10.945  22.728  1.00  0.00     0.350 C 
HETATM   33  F1  UNL     1      33.956  12.016  21.875  1.00  0.00    -0.190 F 
HETATM   34  F2  UNL     1      33.008  10.480  23.233  1.00  0.00    -0.190 F 
BRANCH  32  35
HETATM   35  C4  UNL     1      34.796   9.879  21.898  1.00  0.00     0.028 A 
HETATM   36  C3  UNL     1      34.981  10.118  20.553  1.00  0.00     0.053 A 
HETATM   37  C2  UNL     1      35.528   9.177  19.709  1.00  0.00     0.105 A 
HETATM   38  C34 UNL     1      35.909   7.951  20.197  1.00  0.00     0.135 A 
HETATM   39  C32 UNL     1      35.722   7.701  21.562  1.00  0.00     0.105 A 
HETATM   40  C31 UNL     1      35.176   8.651  22.393  1.00  0.00     0.053 A 
BRANCH  37  41
HETATM   41  O1  UNL     1      35.706   9.440  18.363  1.00  0.00    -0.353 OA
HETATM   42  C1  UNL     1      36.519  10.525  17.977  1.00  0.00     0.210 C 
ENDBRANCH  37  41
BRANCH  38  43
HETATM   43  O6  UNL     1      36.464   6.961  19.404  1.00  0.00    -0.351 OA
HETATM   44  C35 UNL     1      35.566   6.131  18.690  1.00  0.00     0.210 C 
ENDBRANCH  38  43
BRANCH  39  45
HETATM   45  O5  UNL     1      36.102   6.471  22.059  1.00  0.00    -0.353 OA
HETATM   46  C33 UNL     1      35.192   5.734  22.851  1.00  0.00     0.210 C 
ENDBRANCH  39  45
ENDBRANCH  32  35
ENDBRANCH   1  32
TORSDOF 16
ENDMDL
