MODEL 2
REMARK VINA RESULT: -5.576564088      2.456      5.186
REMARK  5 active torsions:
REMARK  status: ('A' for Active; 'I' for Inactive)
REMARK       I    between atoms: C2_2  and  N1_4 
REMARK    1  A    between atoms: N1_4  and  C3_6 
REMARK    2  A    between atoms: C5_11  and  C6_12 
REMARK    3  A    between atoms: C6_12  and  O2_13 
REMARK    4  A    between atoms: C7_15  and  O3_16 
REMARK    5  A    between atoms: C8_18  and  O4_19 
ROOT
HETATM    1  C3  UNL     1      -2.925  68.724  11.005  1.00  0.00     0.318 C 
HETATM    2  N2  UNL     1      -1.865  68.163  10.192  1.00  0.00    -0.051 N 
ATOM      3  H21 UNL     1      -1.365  67.401  10.649  1.00  0.00     0.279 HD
ATOM      4  H22 UNL     1      -1.067  68.788  10.081  1.00  0.00     0.279 HD
HETATM    5  C4  UNL     1      -2.479  67.773   8.918  1.00  0.00     0.244 C 
HETATM    6  C5  UNL     1      -3.226  66.487   9.097  1.00  0.00     0.066 C 
HETATM    7  C7  UNL     1      -3.773  66.456  10.497  1.00  0.00     0.158 C 
HETATM    8  C8  UNL     1      -4.150  67.838  10.944  1.00  0.00     0.197 C 
ENDROOT
BRANCH   1   9
HETATM    9  N1  UNL     1      -2.554  68.840  12.389  1.00  0.00    -0.332 N 
HETATM   10  C2  UNL     1      -2.831  70.060  13.064  1.00  0.00     0.215 C 
HETATM   11  C1  UNL     1      -2.479  70.257  14.497  1.00  0.00     0.117 C 
HETATM   12  O1  UNL     1      -3.389  71.025  12.471  1.00  0.00    -0.274 OA
ATOM     13  H1  UNL     1      -2.104  68.064  12.875  1.00  0.00     0.164 HD
ENDBRANCH   1   9
BRANCH   8  14
HETATM   14  O4  UNL     1      -5.084  68.451  10.137  1.00  0.00    -0.389 OA
ATOM     15  H4  UNL     1      -5.113  69.372  10.365  1.00  0.00     0.210 HD
ENDBRANCH   8  14
BRANCH   7  16
HETATM   16  O3  UNL     1      -4.849  65.596  10.526  1.00  0.00    -0.392 OA
ATOM     17  H3  UNL     1      -5.403  65.830  11.262  1.00  0.00     0.210 HD
ENDBRANCH   7  16
BRANCH   6  18
HETATM   18  C6  UNL     1      -4.370  66.357   8.101  1.00  0.00     0.173 C 
BRANCH  18  19
HETATM   19  O2  UNL     1      -4.485  67.524   7.353  1.00  0.00    -0.400 OA
ATOM     20  H2  UNL     1      -5.138  68.096   7.740  1.00  0.00     0.209 HD
ENDBRANCH  18  19
ENDBRANCH   6  18
TORSDOF 5
ENDMDL
