MODEL 5
REMARK VINA RESULT: -5.204608548      1.960      5.052
REMARK  5 active torsions:
REMARK  status: ('A' for Active; 'I' for Inactive)
REMARK       I    between atoms: C2_2  and  N1_4 
REMARK    1  A    between atoms: N1_4  and  C3_6 
REMARK    2  A    between atoms: C5_11  and  C6_12 
REMARK    3  A    between atoms: C6_12  and  O2_13 
REMARK    4  A    between atoms: C7_15  and  O3_16 
REMARK    5  A    between atoms: C8_18  and  O4_19 
ROOT
HETATM    1  C3  UNL     1      -2.977  67.997  11.341  1.00  0.00     0.318 C 
HETATM    2  N2  UNL     1      -4.273  67.440  11.674  1.00  0.00    -0.051 N 
ATOM      3  H21 UNL     1      -5.045  68.081  11.498  1.00  0.00     0.279 HD
ATOM      4  H22 UNL     1      -4.421  67.335  12.678  1.00  0.00     0.279 HD
HETATM    5  C4  UNL     1      -4.385  66.178  10.936  1.00  0.00     0.244 C 
HETATM    6  C5  UNL     1      -4.711  66.465   9.503  1.00  0.00     0.066 C 
HETATM    7  C7  UNL     1      -4.053  67.763   9.125  1.00  0.00     0.158 C 
HETATM    8  C8  UNL     1      -2.747  67.919   9.847  1.00  0.00     0.197 C 
ENDROOT
BRANCH   1   9
HETATM    9  N1  UNL     1      -2.859  69.379  11.716  1.00  0.00    -0.332 N 
HETATM   10  C2  UNL     1      -3.112  69.738  13.068  1.00  0.00     0.215 C 
HETATM   11  C1  UNL     1      -3.010  71.149  13.534  1.00  0.00     0.117 C 
HETATM   12  O1  UNL     1      -3.431  68.871  13.927  1.00  0.00    -0.274 OA
ATOM     13  H1  UNL     1      -2.601  70.086  11.027  1.00  0.00     0.164 HD
ENDBRANCH   1   9
BRANCH   8  14
HETATM   14  O4  UNL     1      -1.849  66.902   9.603  1.00  0.00    -0.389 OA
ATOM     15  H4  UNL     1      -1.650  66.478  10.429  1.00  0.00     0.210 HD
ENDBRANCH   8  14
BRANCH   7  16
HETATM   16  O3  UNL     1      -3.890  67.789   7.758  1.00  0.00    -0.392 OA
ATOM     17  H3  UNL     1      -3.504  66.964   7.484  1.00  0.00     0.210 HD
ENDBRANCH   7  16
BRANCH   6  18
HETATM   18  C6  UNL     1      -4.218  65.359   8.581  1.00  0.00     0.173 C 
BRANCH  18  19
HETATM   19  O2  UNL     1      -4.960  64.200   8.786  1.00  0.00    -0.400 OA
ATOM     20  H2  UNL     1      -4.678  63.522   8.184  1.00  0.00     0.209 HD
ENDBRANCH  18  19
ENDBRANCH   6  18
TORSDOF 5
ENDMDL
