MODEL 3
REMARK VINA RESULT: -5.507145201      2.233      5.067
REMARK  5 active torsions:
REMARK  status: ('A' for Active; 'I' for Inactive)
REMARK       I    between atoms: C2_2  and  N1_4 
REMARK    1  A    between atoms: N1_4  and  C3_6 
REMARK    2  A    between atoms: C5_11  and  C6_12 
REMARK    3  A    between atoms: C6_12  and  O2_13 
REMARK    4  A    between atoms: C7_15  and  O3_16 
REMARK    5  A    between atoms: C8_18  and  O4_19 
ROOT
HETATM    1  C3  UNL     1      -3.661  68.746  10.807  1.00  0.00     0.318 C 
HETATM    2  N2  UNL     1      -3.671  68.840   9.360  1.00  0.00    -0.051 N 
ATOM      3  H21 UNL     1      -2.742  68.953   8.957  1.00  0.00     0.279 HD
ATOM      4  H22 UNL     1      -4.067  69.714   9.015  1.00  0.00     0.279 HD
HETATM    5  C4  UNL     1      -4.376  67.650   8.871  1.00  0.00     0.244 C 
HETATM    6  C5  UNL     1      -3.461  66.466   8.937  1.00  0.00     0.066 C 
HETATM    7  C7  UNL     1      -2.550  66.645  10.118  1.00  0.00     0.158 C 
HETATM    8  C8  UNL     1      -3.267  67.348  11.234  1.00  0.00     0.197 C 
ENDROOT
BRANCH   1   9
HETATM    9  N1  UNL     1      -2.724  69.653  11.410  1.00  0.00    -0.332 N 
HETATM   10  C2  UNL     1      -3.065  70.248  12.656  1.00  0.00     0.215 C 
HETATM   11  C1  UNL     1      -2.147  71.197  13.346  1.00  0.00     0.117 C 
HETATM   12  O1  UNL     1      -4.161  69.992  13.227  1.00  0.00    -0.274 OA
ATOM     13  H1  UNL     1      -1.836  69.865  10.956  1.00  0.00     0.164 HD
ENDBRANCH   1   9
BRANCH   8  14
HETATM   14  O4  UNL     1      -4.401  66.696  11.668  1.00  0.00    -0.389 OA
ATOM     15  H4  UNL     1      -4.829  66.312  10.912  1.00  0.00     0.210 HD
ENDBRANCH   8  14
BRANCH   7  16
HETATM   16  O3  UNL     1      -2.089  65.406  10.506  1.00  0.00    -0.392 OA
ATOM     17  H3  UNL     1      -2.507  65.172  11.327  1.00  0.00     0.210 HD
ENDBRANCH   7  16
BRANCH   6  18
HETATM   18  C6  UNL     1      -4.237  65.164   9.086  1.00  0.00     0.173 C 
BRANCH  18  19
HETATM   19  O2  UNL     1      -5.586  65.433   9.290  1.00  0.00    -0.400 OA
ATOM     20  H2  UNL     1      -5.991  65.706   8.475  1.00  0.00     0.209 HD
ENDBRANCH  18  19
ENDBRANCH   6  18
TORSDOF 5
ENDMDL
