MODEL 4
REMARK VINA RESULT: -7.993361954      4.720      7.767
REMARK  8 active torsions:
REMARK  status: ('A' for Active; 'I' for Inactive)
REMARK    1  A    between atoms: C2_2  and  N1_3 
REMARK    2  A    between atoms: C2_2  and  C13_17 
REMARK       I    between atoms: N1_3  and  C3_5 
REMARK    3  A    between atoms: C3_5  and  C4_7 
REMARK    4  A    between atoms: C4_7  and  C5_8 
REMARK    5  A    between atoms: C4_7  and  C6_10 
REMARK    6  A    between atoms: C6_10  and  C7_11 
REMARK       I    between atoms: C13_17  and  N2_19 
REMARK    7  A    between atoms: N2_19  and  C14_21 
REMARK    8  A    between atoms: C14_21  and  C15_22 
ROOT
HETATM    1  N1  UNL     1      26.869  59.646  52.568  1.00  0.00    -0.348 N 
ATOM      2  H1  UNL     1      26.599  60.446  51.996  1.00  0.00     0.163 HD
HETATM    3  C3  UNL     1      27.004  58.355  51.981  1.00  0.00     0.223 C 
HETATM    4  O1  UNL     1      27.334  57.414  52.713  1.00  0.00    -0.273 OA
ENDROOT
BRANCH   1   5
HETATM    5  C2  UNL     1      27.120  59.811  53.983  1.00  0.00     0.172 C 
HETATM    6  C1  UNL     1      27.765  61.194  54.141  1.00  0.00     0.042 C 
BRANCH   5   7
HETATM    7  C13 UNL     1      25.825  59.761  54.707  1.00  0.00     0.240 C 
HETATM    8  O2  UNL     1      24.890  59.055  54.271  1.00  0.00    -0.271 OA
HETATM    9  N2  UNL     1      25.593  60.495  55.903  1.00  0.00    -0.351 N 
ATOM     10  H2  UNL     1      26.338  61.080  56.282  1.00  0.00     0.163 HD
BRANCH   9  11
HETATM   11  C14 UNL     1      24.308  60.431  56.600  1.00  0.00     0.222 C 
BRANCH  11  12
HETATM   12  C15 UNL     1      24.491  60.083  58.013  1.00  0.00     0.248 C 
HETATM   13  N3  UNL     1      25.025  61.065  58.887  1.00  0.00    -0.061 NA
HETATM   14  O3  UNL     1      24.170  58.930  58.400  1.00  0.00    -0.275 OA
ENDBRANCH  11  12
ENDBRANCH   9  11
ENDBRANCH   5   7
ENDBRANCH   1   5
BRANCH   3  15
HETATM   15  C4  UNL     1      26.735  58.247  50.528  1.00  0.00     0.092 C 
BRANCH  15  16
HETATM   16  C5  UNL     1      27.044  59.608  49.941  1.00  0.00     0.100 C 
HETATM   17  S1  UNL     1      28.803  59.818  49.582  1.00  0.00    -0.097 SA
ENDBRANCH  15  16
BRANCH  15  18
HETATM   18  C6  UNL     1      27.467  57.136  49.858  1.00  0.00     0.053 C 
BRANCH  18  19
HETATM   19  C7  UNL     1      26.525  56.267  49.133  1.00  0.00    -0.057 A 
HETATM   20  C8  UNL     1      26.583  54.894  49.202  1.00  0.00     0.007 A 
HETATM   21  C9  UNL     1      25.668  54.114  48.491  1.00  0.00     0.001 A 
HETATM   22  C10 UNL     1      24.690  54.688  47.710  1.00  0.00     0.000 A 
HETATM   23  C11 UNL     1      24.652  56.055  47.656  1.00  0.00     0.001 A 
HETATM   24  C12 UNL     1      25.541  56.850  48.345  1.00  0.00     0.007 A 
ENDBRANCH  18  19
ENDBRANCH  15  18
ENDBRANCH   3  15
TORSDOF 8
ENDMDL
