MODEL 1
REMARK VINA RESULT: -8.189858555      0.000      0.000
REMARK  8 active torsions:
REMARK  status: ('A' for Active; 'I' for Inactive)
REMARK    1  A    between atoms: C2_2  and  N1_3 
REMARK    2  A    between atoms: C2_2  and  C13_17 
REMARK       I    between atoms: N1_3  and  C3_5 
REMARK    3  A    between atoms: C3_5  and  C4_7 
REMARK    4  A    between atoms: C4_7  and  C5_8 
REMARK    5  A    between atoms: C4_7  and  C6_10 
REMARK    6  A    between atoms: C6_10  and  C7_11 
REMARK       I    between atoms: C13_17  and  N2_19 
REMARK    7  A    between atoms: N2_19  and  C14_21 
REMARK    8  A    between atoms: C14_21  and  C15_22 
ROOT
HETATM    1  N1  UNL     1      29.361  58.436  49.707  1.00  0.00    -0.348 N 
ATOM      2  H1  UNL     1      29.494  57.429  49.799  1.00  0.00     0.163 HD
HETATM    3  C3  UNL     1      28.063  59.007  49.847  1.00  0.00     0.223 C 
HETATM    4  O1  UNL     1      27.950  60.233  49.727  1.00  0.00    -0.273 OA
ENDROOT
BRANCH   1   5
HETATM    5  C2  UNL     1      30.489  59.299  49.431  1.00  0.00     0.172 C 
HETATM    6  C1  UNL     1      31.344  59.300  50.705  1.00  0.00     0.042 C 
BRANCH   5   7
HETATM    7  C13 UNL     1      31.258  58.732  48.295  1.00  0.00     0.240 C 
HETATM    8  O2  UNL     1      30.967  57.604  47.841  1.00  0.00    -0.271 OA
HETATM    9  N2  UNL     1      32.337  59.429  47.683  1.00  0.00    -0.351 N 
ATOM     10  H2  UNL     1      32.597  60.351  48.032  1.00  0.00     0.163 HD
BRANCH   9  11
HETATM   11  C14 UNL     1      33.081  58.851  46.564  1.00  0.00     0.222 C 
BRANCH  11  12
HETATM   12  C15 UNL     1      32.679  59.460  45.292  1.00  0.00     0.248 C 
HETATM   13  N3  UNL     1      32.662  58.647  44.129  1.00  0.00    -0.061 NA
HETATM   14  O3  UNL     1      32.364  60.678  45.275  1.00  0.00    -0.275 OA
ENDBRANCH  11  12
ENDBRANCH   9  11
ENDBRANCH   5   7
ENDBRANCH   1   5
BRANCH   3  15
HETATM   15  C4  UNL     1      26.947  58.074  50.129  1.00  0.00     0.092 C 
BRANCH  15  16
HETATM   16  C5  UNL     1      26.287  58.579  51.396  1.00  0.00     0.100 C 
HETATM   17  S1  UNL     1      27.432  58.624  52.794  1.00  0.00    -0.097 SA
ENDBRANCH  15  16
BRANCH  15  18
HETATM   18  C6  UNL     1      25.997  57.908  48.995  1.00  0.00     0.053 C 
BRANCH  18  19
HETATM   19  C7  UNL     1      25.795  56.479  48.701  1.00  0.00    -0.057 A 
HETATM   20  C8  UNL     1      26.564  55.492  49.271  1.00  0.00     0.007 A 
HETATM   21  C9  UNL     1      26.334  54.150  48.957  1.00  0.00     0.001 A 
HETATM   22  C10 UNL     1      25.340  53.778  48.079  1.00  0.00     0.000 A 
HETATM   23  C11 UNL     1      24.588  54.779  47.524  1.00  0.00     0.001 A 
HETATM   24  C12 UNL     1      24.792  56.110  47.814  1.00  0.00     0.007 A 
ENDBRANCH  18  19
ENDBRANCH  15  18
ENDBRANCH   3  15
TORSDOF 8
ENDMDL
