MODEL 8
REMARK VINA RESULT: -7.555826774      1.416      1.694
REMARK  8 active torsions:
REMARK  status: ('A' for Active; 'I' for Inactive)
REMARK    1  A    between atoms: C2_2  and  N1_3 
REMARK    2  A    between atoms: C2_2  and  C13_17 
REMARK       I    between atoms: N1_3  and  C3_5 
REMARK    3  A    between atoms: C3_5  and  C4_7 
REMARK    4  A    between atoms: C4_7  and  C5_8 
REMARK    5  A    between atoms: C4_7  and  C6_10 
REMARK    6  A    between atoms: C6_10  and  C7_11 
REMARK       I    between atoms: C13_17  and  N2_19 
REMARK    7  A    between atoms: N2_19  and  C14_21 
REMARK    8  A    between atoms: C14_21  and  C15_22 
ROOT
HETATM    1  N1  UNL     1      29.402  58.285  49.636  1.00  0.00    -0.348 N 
ATOM      2  H1  UNL     1      29.479  57.277  49.772  1.00  0.00     0.163 HD
HETATM    3  C3  UNL     1      28.148  58.941  49.805  1.00  0.00     0.223 C 
HETATM    4  O1  UNL     1      28.102  60.165  49.629  1.00  0.00    -0.273 OA
ENDROOT
BRANCH   1   5
HETATM    5  C2  UNL     1      30.565  59.063  49.268  1.00  0.00     0.172 C 
HETATM    6  C1  UNL     1      31.408  59.193  50.543  1.00  0.00     0.042 C 
BRANCH   5   7
HETATM    7  C13 UNL     1      31.320  58.328  48.223  1.00  0.00     0.240 C 
HETATM    8  O2  UNL     1      30.776  57.393  47.596  1.00  0.00    -0.271 OA
HETATM    9  N2  UNL     1      32.666  58.646  47.892  1.00  0.00    -0.351 N 
ATOM     10  H2  UNL     1      33.136  59.404  48.386  1.00  0.00     0.163 HD
BRANCH   9  11
HETATM   11  C14 UNL     1      33.392  57.908  46.858  1.00  0.00     0.222 C 
BRANCH  11  12
HETATM   12  C15 UNL     1      34.439  57.066  47.446  1.00  0.00     0.248 C 
HETATM   13  N3  UNL     1      34.807  55.875  46.770  1.00  0.00    -0.061 NA
HETATM   14  O3  UNL     1      34.972  57.428  48.526  1.00  0.00    -0.275 OA
ENDBRANCH  11  12
ENDBRANCH   9  11
ENDBRANCH   5   7
ENDBRANCH   1   5
BRANCH   3  15
HETATM   15  C4  UNL     1      26.992  58.093  50.182  1.00  0.00     0.092 C 
BRANCH  15  16
HETATM   16  C5  UNL     1      26.441  58.680  51.465  1.00  0.00     0.100 C 
HETATM   17  S1  UNL     1      27.646  58.635  52.813  1.00  0.00    -0.097 SA
ENDBRANCH  15  16
BRANCH  15  18
HETATM   18  C6  UNL     1      25.969  57.954  49.109  1.00  0.00     0.053 C 
BRANCH  18  19
HETATM   19  C7  UNL     1      25.782  56.536  48.761  1.00  0.00    -0.057 A 
HETATM   20  C8  UNL     1      26.557  55.535  49.298  1.00  0.00     0.007 A 
HETATM   21  C9  UNL     1      26.342  54.204  48.932  1.00  0.00     0.001 A 
HETATM   22  C10 UNL     1      25.357  53.856  48.033  1.00  0.00     0.000 A 
HETATM   23  C11 UNL     1      24.599  54.870  47.512  1.00  0.00     0.001 A 
HETATM   24  C12 UNL     1      24.789  56.191  47.854  1.00  0.00     0.007 A 
ENDBRANCH  18  19
ENDBRANCH  15  18
ENDBRANCH   3  15
TORSDOF 8
ENDMDL
