MODEL 7
REMARK VINA RESULT: -7.365815375      2.446      3.610
REMARK  9 active torsions:
REMARK  status: ('A' for Active; 'I' for Inactive)
REMARK    1  A    between atoms: C2_2  and  C4_4 
REMARK    2  A    between atoms: C4_4  and  C5_5 
REMARK    3  A    between atoms: C5_5  and  C6_6 
REMARK    4  A    between atoms: C5_5  and  C7_12 
REMARK       I    between atoms: C6_6  and  N1_8 
REMARK    5  A    between atoms: N1_8  and  O2_10 
REMARK       I    between atoms: C7_12  and  N2_14 
REMARK    6  A    between atoms: N2_14  and  C8_16 
REMARK    7  A    between atoms: C8_16  and  C10_18 
REMARK       I    between atoms: C10_18  and  N3_20 
REMARK    8  A    between atoms: N3_20  and  C11_22 
REMARK    9  A    between atoms: C11_22  and  C12_23 
ROOT
HETATM    1  C7  UNL     1      28.108  60.365  51.438  1.00  0.00     0.231 C 
HETATM    2  O3  UNL     1      27.594  61.060  50.525  1.00  0.00    -0.273 OA
HETATM    3  N2  UNL     1      29.042  59.350  51.076  1.00  0.00    -0.347 N 
ATOM      4  H2  UNL     1      29.475  58.769  51.794  1.00  0.00     0.163 HD
ENDROOT
BRANCH   1   5
HETATM    5  C5  UNL     1      27.716  60.636  52.833  1.00  0.00     0.172 C 
BRANCH   5   6
HETATM    6  C4  UNL     1      28.961  60.663  53.663  1.00  0.00     0.027 C 
BRANCH   6   7
HETATM    7  C2  UNL     1      29.794  61.895  53.511  1.00  0.00    -0.021 C 
HETATM    8  C1  UNL     1      29.480  62.841  54.657  1.00  0.00     0.009 C 
HETATM    9  C3  UNL     1      31.266  61.599  53.521  1.00  0.00     0.009 C 
ENDBRANCH   6   7
ENDBRANCH   5   6
BRANCH   5  10
HETATM   10  C6  UNL     1      26.740  59.617  53.249  1.00  0.00     0.254 C 
HETATM   11  O1  UNL     1      26.884  58.382  53.118  1.00  0.00    -0.270 OA
HETATM   12  N1  UNL     1      25.532  60.079  53.847  1.00  0.00    -0.237 N 
ATOM     13  H1  UNL     1      25.373  61.078  53.973  1.00  0.00     0.197 HD
BRANCH  12  14
HETATM   14  O2  UNL     1      24.603  59.194  54.246  1.00  0.00    -0.287 OA
ATOM     15  H2  UNL     1      23.825  59.497  54.698  1.00  0.00     0.244 HD
ENDBRANCH  12  14
ENDBRANCH   5  10
ENDBRANCH   1   5
BRANCH   3  16
HETATM   16  C8  UNL     1      29.363  59.156  49.703  1.00  0.00     0.172 C 
HETATM   17  C9  UNL     1      30.865  58.909  49.560  1.00  0.00     0.042 C 
BRANCH  16  18
HETATM   18  C10 UNL     1      28.626  58.019  49.083  1.00  0.00     0.240 C 
HETATM   19  O4  UNL     1      28.892  57.691  47.901  1.00  0.00    -0.271 OA
HETATM   20  N3  UNL     1      27.631  57.288  49.776  1.00  0.00    -0.351 N 
ATOM     21  H3  UNL     1      27.419  57.559  50.737  1.00  0.00     0.163 HD
BRANCH  20  22
HETATM   22  C11 UNL     1      26.898  56.181  49.206  1.00  0.00     0.222 C 
BRANCH  22  23
HETATM   23  C12 UNL     1      25.613  56.631  48.638  1.00  0.00     0.248 C 
HETATM   24  N4  UNL     1      24.982  55.825  47.656  1.00  0.00    -0.061 NA
HETATM   25  O5  UNL     1      25.064  57.698  48.995  1.00  0.00    -0.275 OA
ENDBRANCH  22  23
ENDBRANCH  20  22
ENDBRANCH  16  18
ENDBRANCH   3  16
TORSDOF 9
ENDMDL
