MODEL 4
REMARK VINA RESULT: -7.670524884      3.502      5.685
REMARK  9 active torsions:
REMARK  status: ('A' for Active; 'I' for Inactive)
REMARK    1  A    between atoms: C2_2  and  C4_4 
REMARK    2  A    between atoms: C4_4  and  C5_5 
REMARK    3  A    between atoms: C5_5  and  C6_6 
REMARK    4  A    between atoms: C5_5  and  C7_12 
REMARK       I    between atoms: C6_6  and  N1_8 
REMARK    5  A    between atoms: N1_8  and  O2_10 
REMARK       I    between atoms: C7_12  and  N2_14 
REMARK    6  A    between atoms: N2_14  and  C8_16 
REMARK    7  A    between atoms: C8_16  and  C10_18 
REMARK       I    between atoms: C10_18  and  N3_20 
REMARK    8  A    between atoms: N3_20  and  C11_22 
REMARK    9  A    between atoms: C11_22  and  C12_23 
ROOT
HETATM    1  C7  UNL     1      28.387  59.065  50.242  1.00  0.00     0.231 C 
HETATM    2  O3  UNL     1      28.030  60.195  49.821  1.00  0.00    -0.273 OA
HETATM    3  N2  UNL     1      29.781  58.765  50.279  1.00  0.00    -0.347 N 
ATOM      4  H2  UNL     1      30.103  57.857  50.615  1.00  0.00     0.163 HD
ENDROOT
BRANCH   1   5
HETATM    5  C5  UNL     1      27.348  58.113  50.672  1.00  0.00     0.172 C 
BRANCH   5   6
HETATM    6  C4  UNL     1      26.297  58.068  49.607  1.00  0.00     0.027 C 
BRANCH   6   7
HETATM    7  C2  UNL     1      26.336  56.854  48.735  1.00  0.00    -0.021 C 
HETATM    8  C1  UNL     1      26.773  55.666  49.573  1.00  0.00     0.009 C 
HETATM    9  C3  UNL     1      25.001  56.546  48.121  1.00  0.00     0.009 C 
ENDBRANCH   6   7
ENDBRANCH   5   6
BRANCH   5  10
HETATM   10  C6  UNL     1      26.849  58.534  51.990  1.00  0.00     0.254 C 
HETATM   11  O1  UNL     1      27.242  58.086  53.090  1.00  0.00    -0.270 OA
HETATM   12  N1  UNL     1      25.834  59.533  52.013  1.00  0.00    -0.237 N 
ATOM     13  H1  UNL     1      25.484  59.927  51.140  1.00  0.00     0.197 HD
BRANCH  12  14
HETATM   14  O2  UNL     1      25.338  59.956  53.188  1.00  0.00    -0.287 OA
ATOM     15  H2  UNL     1      25.465  60.858  53.458  1.00  0.00     0.244 HD
ENDBRANCH  12  14
ENDBRANCH   5  10
ENDBRANCH   1   5
BRANCH   3  16
HETATM   16  C8  UNL     1      30.718  59.744  49.844  1.00  0.00     0.172 C 
HETATM   17  C9  UNL     1      31.415  60.358  51.058  1.00  0.00     0.042 C 
BRANCH  16  18
HETATM   18  C10 UNL     1      31.750  59.199  48.919  1.00  0.00     0.240 C 
HETATM   19  O4  UNL     1      32.645  58.447  49.379  1.00  0.00    -0.271 OA
HETATM   20  N3  UNL     1      31.765  59.493  47.534  1.00  0.00    -0.351 N 
ATOM     21  H3  UNL     1      31.035  60.104  47.167  1.00  0.00     0.163 HD
BRANCH  20  22
HETATM   22  C11 UNL     1      32.750  58.981  46.610  1.00  0.00     0.222 C 
BRANCH  22  23
HETATM   23  C12 UNL     1      32.140  58.040  45.651  1.00  0.00     0.248 C 
HETATM   24  N4  UNL     1      31.717  56.768  46.119  1.00  0.00    -0.061 NA
HETATM   25  O5  UNL     1      31.986  58.326  44.443  1.00  0.00    -0.275 OA
ENDBRANCH  22  23
ENDBRANCH  20  22
ENDBRANCH  16  18
ENDBRANCH   3  16
TORSDOF 9
ENDMDL
