MODEL 3
REMARK VINA RESULT: -7.756624416      3.601      7.894
REMARK  9 active torsions:
REMARK  status: ('A' for Active; 'I' for Inactive)
REMARK    1  A    between atoms: C2_2  and  C4_4 
REMARK    2  A    between atoms: C4_4  and  C5_5 
REMARK    3  A    between atoms: C5_5  and  C6_6 
REMARK    4  A    between atoms: C5_5  and  C7_12 
REMARK       I    between atoms: C6_6  and  N1_8 
REMARK    5  A    between atoms: N1_8  and  O2_10 
REMARK       I    between atoms: C7_12  and  N2_14 
REMARK    6  A    between atoms: N2_14  and  C8_16 
REMARK    7  A    between atoms: C8_16  and  C10_18 
REMARK       I    between atoms: C10_18  and  N3_20 
REMARK    8  A    between atoms: N3_20  and  C11_22 
REMARK    9  A    between atoms: C11_22  and  C12_23 
ROOT
HETATM    1  C7  UNL     1      26.904  58.828  52.221  1.00  0.00     0.231 C 
HETATM    2  O3  UNL     1      27.193  57.757  52.813  1.00  0.00    -0.273 OA
HETATM    3  N2  UNL     1      26.719  60.007  53.002  1.00  0.00    -0.347 N 
ATOM      4  H2  UNL     1      26.483  60.891  52.552  1.00  0.00     0.163 HD
ENDROOT
BRANCH   1   5
HETATM    5  C5  UNL     1      26.773  58.808  50.754  1.00  0.00     0.172 C 
BRANCH   5   6
HETATM    6  C4  UNL     1      27.177  57.448  50.275  1.00  0.00     0.027 C 
BRANCH   6   7
HETATM    7  C2  UNL     1      26.476  56.981  49.040  1.00  0.00    -0.021 C 
HETATM    8  C1  UNL     1      26.319  55.472  49.110  1.00  0.00     0.009 C 
HETATM    9  C3  UNL     1      25.117  57.600  48.882  1.00  0.00     0.009 C 
ENDBRANCH   6   7
ENDBRANCH   5   6
BRANCH   5  10
HETATM   10  C6  UNL     1      27.582  59.904  50.198  1.00  0.00     0.254 C 
HETATM   11  O1  UNL     1      27.412  61.120  50.435  1.00  0.00    -0.270 OA
HETATM   12  N1  UNL     1      28.645  59.548  49.319  1.00  0.00    -0.237 N 
ATOM     13  H1  UNL     1      28.819  58.568  49.098  1.00  0.00     0.197 HD
BRANCH  12  14
HETATM   14  O2  UNL     1      29.417  60.506  48.781  1.00  0.00    -0.287 OA
ATOM     15  H2  UNL     1      30.323  60.319  48.565  1.00  0.00     0.244 HD
ENDBRANCH  12  14
ENDBRANCH   5  10
ENDBRANCH   1   5
BRANCH   3  16
HETATM   16  C8  UNL     1      26.865  59.937  54.416  1.00  0.00     0.172 C 
HETATM   17  C9  UNL     1      27.712  61.113  54.900  1.00  0.00     0.042 C 
BRANCH  16  18
HETATM   18  C10 UNL     1      25.564  59.948  55.142  1.00  0.00     0.240 C 
HETATM   19  O4  UNL     1      24.545  59.479  54.576  1.00  0.00    -0.271 OA
HETATM   20  N3  UNL     1      25.426  60.468  56.451  1.00  0.00    -0.351 N 
ATOM     21  H3  UNL     1      26.256  60.848  56.906  1.00  0.00     0.163 HD
BRANCH  20  22
HETATM   22  C11 UNL     1      24.180  60.494  57.183  1.00  0.00     0.222 C 
BRANCH  22  23
HETATM   23  C12 UNL     1      24.295  59.754  58.454  1.00  0.00     0.248 C 
HETATM   24  N4  UNL     1      25.587  59.534  59.000  1.00  0.00    -0.061 NA
HETATM   25  O5  UNL     1      23.294  59.314  59.063  1.00  0.00    -0.275 OA
ENDBRANCH  22  23
ENDBRANCH  20  22
ENDBRANCH  16  18
ENDBRANCH   3  16
TORSDOF 9
ENDMDL
