MODEL 12
REMARK VINA RESULT: -7.882829238      2.251      6.264
REMARK  16 active torsions:
REMARK  status: ('A' for Active; 'I' for Inactive)
REMARK    1  A    between atoms: C1_2  and  C2_4 
REMARK    2  A    between atoms: C2_4  and  N1_5 
REMARK    3  A    between atoms: N1_5  and  C3_6 
REMARK    4  A    between atoms: N1_5  and  C9_25 
REMARK    5  A    between atoms: C3_6  and  C4_7 
REMARK    6  A    between atoms: C4_7  and  O3_8 
REMARK    7  A    between atoms: C4_7  and  C5_10 
REMARK    8  A    between atoms: C5_10  and  O4_11 
REMARK    9  A    between atoms: C5_10  and  C6_13 
REMARK   10  A    between atoms: C6_13  and  O5_14 
REMARK   11  A    between atoms: C6_13  and  C7_16 
REMARK   12  A    between atoms: C7_16  and  O6_17 
REMARK   13  A    between atoms: C7_16  and  C8_19 
REMARK   14  A    between atoms: C8_19  and  O7_20 
REMARK   15  A    between atoms: O7_20  and  P1_21 
REMARK   16  A    between atoms: C9_25  and  P2_26 
ROOT
HETATM    1  C5  UNL     1      35.276  52.914  19.828  1.00  0.00     0.179 C 
ENDROOT
BRANCH   1   2
HETATM    2  C4  UNL     1      35.438  52.799  18.343  1.00  0.00     0.167 C 
BRANCH   2   3
HETATM    3  C3  UNL     1      35.799  54.055  17.689  1.00  0.00     0.157 C 
BRANCH   3   4
HETATM    4  N1  UNL     1      36.802  53.937  16.636  1.00  0.00    -0.370 N 
BRANCH   4   5
HETATM    5  C2  UNL     1      38.008  54.633  16.875  1.00  0.00     0.235 C 
BRANCH   5   6
HETATM    6  C1  UNL     1      39.168  54.316  16.047  1.00  0.00     0.191 C 
HETATM    7  O1  UNL     1      39.375  53.241  15.438  1.00  0.00    -0.647 OA
HETATM    8  O2  UNL     1      40.192  55.277  15.878  1.00  0.00    -0.647 OA
ENDBRANCH   5   6
ENDBRANCH   4   5
BRANCH   4   9
HETATM    9  C9  UNL     1      36.245  54.025  15.306  1.00  0.00     0.202 C 
BRANCH   9  10
HETATM   10  P2  UNL     1      35.698  52.584  14.524  1.00  0.00     0.300 P 
HETATM   11  O11 UNL     1      36.197  52.237  12.983  1.00  0.00    -0.636 OA
HETATM   12  O12 UNL     1      34.459  51.695  15.256  1.00  0.00    -0.636 OA
HETATM   13  O13 UNL     1      36.706  51.597  15.099  1.00  0.00    -0.636 OA
ENDBRANCH   9  10
ENDBRANCH   4   9
ENDBRANCH   3   4
ENDBRANCH   2   3
BRANCH   2  14
HETATM   14  O3  UNL     1      36.118  51.652  18.019  1.00  0.00    -0.391 OA
ATOM     15  H3  UNL     1      35.637  50.839  17.915  1.00  0.00     0.210 HD
ENDBRANCH   2  14
ENDBRANCH   1   2
BRANCH   1  16
HETATM   16  O4  UNL     1      34.828  54.278  20.097  1.00  0.00    -0.390 OA
ATOM     17  H4  UNL     1      33.940  54.214  20.430  1.00  0.00     0.210 HD
ENDBRANCH   1  16
BRANCH   1  18
HETATM   18  C6  UNL     1      34.167  52.083  20.432  1.00  0.00     0.180 C 
BRANCH  18  19
HETATM   19  O5  UNL     1      33.534  52.884  21.452  1.00  0.00    -0.390 OA
ATOM     20  H5  UNL     1      33.125  52.288  22.069  1.00  0.00     0.210 HD
ENDBRANCH  18  19
BRANCH  18  21
HETATM   21  C7  UNL     1      34.622  50.867  21.183  1.00  0.00     0.173 C 
BRANCH  21  22
HETATM   22  O6  UNL     1      36.012  50.693  20.944  1.00  0.00    -0.391 OA
ATOM     23  H6  UNL     1      36.113  50.133  20.183  1.00  0.00     0.210 HD
ENDBRANCH  21  22
BRANCH  21  24
HETATM   24  C8  UNL     1      33.870  49.622  20.867  1.00  0.00     0.217 C 
BRANCH  24  25
HETATM   25  O7  UNL     1      34.450  48.912  19.809  1.00  0.00    -0.280 OA
BRANCH  25  26
HETATM   26  P1  UNL     1      33.751  48.855  18.430  1.00  0.00     0.422 P 
HETATM   27  O8  UNL     1      34.415  47.434  17.989  1.00  0.00    -0.617 OA
HETATM   28  O9  UNL     1      32.949  49.088  17.130  1.00  0.00    -0.617 OA
HETATM   29  O10 UNL     1      32.326  48.819  19.276  1.00  0.00    -0.617 OA
ENDBRANCH  25  26
ENDBRANCH  24  25
ENDBRANCH  21  24
ENDBRANCH  18  21
ENDBRANCH   1  18
TORSDOF 16
ENDMDL
