MODEL 7
REMARK VINA RESULT: -7.964722533      2.123      3.004
REMARK  16 active torsions:
REMARK  status: ('A' for Active; 'I' for Inactive)
REMARK    1  A    between atoms: C1_2  and  C2_4 
REMARK    2  A    between atoms: C2_4  and  N1_5 
REMARK    3  A    between atoms: N1_5  and  C3_6 
REMARK    4  A    between atoms: N1_5  and  C9_25 
REMARK    5  A    between atoms: C3_6  and  C4_7 
REMARK    6  A    between atoms: C4_7  and  O3_8 
REMARK    7  A    between atoms: C4_7  and  C5_10 
REMARK    8  A    between atoms: C5_10  and  O4_11 
REMARK    9  A    between atoms: C5_10  and  C6_13 
REMARK   10  A    between atoms: C6_13  and  O5_14 
REMARK   11  A    between atoms: C6_13  and  C7_16 
REMARK   12  A    between atoms: C7_16  and  O6_17 
REMARK   13  A    between atoms: C7_16  and  C8_19 
REMARK   14  A    between atoms: C8_19  and  O7_20 
REMARK   15  A    between atoms: O7_20  and  P1_21 
REMARK   16  A    between atoms: C9_25  and  P2_26 
ROOT
HETATM    1  C5  UNL     1      36.185  53.390  18.443  1.00  0.00     0.179 C 
ENDROOT
BRANCH   1   2
HETATM    2  C4  UNL     1      35.172  52.990  19.473  1.00  0.00     0.167 C 
BRANCH   2   3
HETATM    3  C3  UNL     1      35.512  51.763  20.191  1.00  0.00     0.157 C 
BRANCH   3   4
HETATM    4  N1  UNL     1      34.408  50.827  20.374  1.00  0.00    -0.370 N 
BRANCH   4   5
HETATM    5  C2  UNL     1      33.812  50.845  21.655  1.00  0.00     0.235 C 
BRANCH   5   6
HETATM    6  C1  UNL     1      32.693  51.756  21.886  1.00  0.00     0.191 C 
HETATM    7  O1  UNL     1      31.476  51.476  21.795  1.00  0.00    -0.647 OA
HETATM    8  O2  UNL     1      32.948  53.098  22.250  1.00  0.00    -0.647 OA
ENDBRANCH   5   6
ENDBRANCH   4   5
BRANCH   4   9
HETATM    9  C9  UNL     1      34.653  49.533  19.781  1.00  0.00     0.202 C 
BRANCH   9  10
HETATM   10  P2  UNL     1      33.600  48.963  18.535  1.00  0.00     0.300 P 
HETATM   11  O11 UNL     1      32.035  49.501  18.462  1.00  0.00    -0.636 OA
HETATM   12  O12 UNL     1      34.118  47.669  17.576  1.00  0.00    -0.636 OA
HETATM   13  O13 UNL     1      34.006  49.915  17.418  1.00  0.00    -0.636 OA
ENDBRANCH   9  10
ENDBRANCH   4   9
ENDBRANCH   3   4
ENDBRANCH   2   3
BRANCH   2  14
HETATM   14  O3  UNL     1      34.743  54.086  20.179  1.00  0.00    -0.391 OA
ATOM     15  H3  UNL     1      33.812  54.258  20.250  1.00  0.00     0.210 HD
ENDBRANCH   2  14
ENDBRANCH   1   2
BRANCH   1  16
HETATM   16  O4  UNL     1      37.492  53.323  19.092  1.00  0.00    -0.390 OA
ATOM     17  H4  UNL     1      38.010  54.035  18.736  1.00  0.00     0.210 HD
ENDBRANCH   1  16
BRANCH   1  18
HETATM   18  C6  UNL     1      36.350  52.436  17.282  1.00  0.00     0.180 C 
BRANCH  18  19
HETATM   19  O5  UNL     1      37.740  52.051  17.234  1.00  0.00    -0.390 OA
ATOM     20  H5  UNL     1      37.771  51.121  17.044  1.00  0.00     0.210 HD
ENDBRANCH  18  19
BRANCH  18  21
HETATM   21  C7  UNL     1      36.113  53.038  15.929  1.00  0.00     0.173 C 
BRANCH  21  22
HETATM   22  O6  UNL     1      36.728  52.201  14.959  1.00  0.00    -0.391 OA
ATOM     23  H6  UNL     1      37.627  52.048  15.227  1.00  0.00     0.210 HD
ENDBRANCH  21  22
BRANCH  21  24
HETATM   24  C8  UNL     1      36.574  54.446  15.784  1.00  0.00     0.217 C 
BRANCH  24  25
HETATM   25  O7  UNL     1      37.704  54.547  14.963  1.00  0.00    -0.280 OA
BRANCH  25  26
HETATM   26  P1  UNL     1      39.068  54.968  15.560  1.00  0.00     0.422 P 
HETATM   27  O8  UNL     1      38.463  55.399  17.011  1.00  0.00    -0.617 OA
HETATM   28  O9  UNL     1      40.538  55.332  15.865  1.00  0.00    -0.617 OA
HETATM   29  O10 UNL     1      39.526  53.390  15.346  1.00  0.00    -0.617 OA
ENDBRANCH  25  26
ENDBRANCH  24  25
ENDBRANCH  21  24
ENDBRANCH  18  21
ENDBRANCH   1  18
TORSDOF 16
ENDMDL
