MODEL 6
REMARK VINA RESULT: -8.014969123      2.426      6.380
REMARK  16 active torsions:
REMARK  status: ('A' for Active; 'I' for Inactive)
REMARK    1  A    between atoms: C1_2  and  C2_4 
REMARK    2  A    between atoms: C2_4  and  N1_5 
REMARK    3  A    between atoms: N1_5  and  C3_6 
REMARK    4  A    between atoms: N1_5  and  C9_25 
REMARK    5  A    between atoms: C3_6  and  C4_7 
REMARK    6  A    between atoms: C4_7  and  O3_8 
REMARK    7  A    between atoms: C4_7  and  C5_10 
REMARK    8  A    between atoms: C5_10  and  O4_11 
REMARK    9  A    between atoms: C5_10  and  C6_13 
REMARK   10  A    between atoms: C6_13  and  O5_14 
REMARK   11  A    between atoms: C6_13  and  C7_16 
REMARK   12  A    between atoms: C7_16  and  O6_17 
REMARK   13  A    between atoms: C7_16  and  C8_19 
REMARK   14  A    between atoms: C8_19  and  O7_20 
REMARK   15  A    between atoms: O7_20  and  P1_21 
REMARK   16  A    between atoms: C9_25  and  P2_26 
ROOT
HETATM    1  C5  UNL     1      35.001  53.199  18.269  1.00  0.00     0.179 C 
ENDROOT
BRANCH   1   2
HETATM    2  C4  UNL     1      35.944  54.213  17.697  1.00  0.00     0.167 C 
BRANCH   2   3
HETATM    3  C3  UNL     1      35.642  54.589  16.317  1.00  0.00     0.157 C 
BRANCH   3   4
HETATM    4  N1  UNL     1      36.615  54.141  15.327  1.00  0.00    -0.370 N 
BRANCH   4   5
HETATM    5  C2  UNL     1      37.768  54.950  15.209  1.00  0.00     0.235 C 
BRANCH   5   6
HETATM    6  C1  UNL     1      39.064  54.363  15.537  1.00  0.00     0.191 C 
HETATM    7  O1  UNL     1      39.384  53.157  15.419  1.00  0.00    -0.647 OA
HETATM    8  O2  UNL     1      40.098  55.185  16.041  1.00  0.00    -0.647 OA
ENDBRANCH   5   6
ENDBRANCH   4   5
BRANCH   4   9
HETATM    9  C9  UNL     1      36.009  53.678  14.100  1.00  0.00     0.202 C 
BRANCH   9  10
HETATM   10  P2  UNL     1      35.551  52.018  13.960  1.00  0.00     0.300 P 
HETATM   11  O11 UNL     1      36.193  51.080  12.754  1.00  0.00    -0.636 OA
HETATM   12  O12 UNL     1      34.258  51.460  14.898  1.00  0.00    -0.636 OA
HETATM   13  O13 UNL     1      36.511  51.414  14.976  1.00  0.00    -0.636 OA
ENDBRANCH   9  10
ENDBRANCH   4   9
ENDBRANCH   3   4
ENDBRANCH   2   3
BRANCH   2  14
HETATM   14  O3  UNL     1      36.214  55.194  18.618  1.00  0.00    -0.391 OA
ATOM     15  H3  UNL     1      37.101  55.295  18.944  1.00  0.00     0.210 HD
ENDBRANCH   2  14
ENDBRANCH   1   2
BRANCH   1  16
HETATM   16  O4  UNL     1      34.061  52.854  17.205  1.00  0.00    -0.390 OA
ATOM     17  H4  UNL     1      34.085  51.908  17.115  1.00  0.00     0.210 HD
ENDBRANCH   1  16
BRANCH   1  18
HETATM   18  C6  UNL     1      35.610  51.858  18.612  1.00  0.00     0.180 C 
BRANCH  18  19
HETATM   19  O5  UNL     1      34.976  50.869  17.773  1.00  0.00    -0.390 OA
ATOM     20  H5  UNL     1      34.646  50.183  18.341  1.00  0.00     0.210 HD
ENDBRANCH  18  19
BRANCH  18  21
HETATM   21  C7  UNL     1      35.321  51.367  19.999  1.00  0.00     0.173 C 
BRANCH  21  22
HETATM   22  O6  UNL     1      35.821  50.042  20.113  1.00  0.00    -0.391 OA
ATOM     23  H6  UNL     1      36.434  50.018  20.838  1.00  0.00     0.210 HD
ENDBRANCH  21  22
BRANCH  21  24
HETATM   24  C8  UNL     1      33.888  51.430  20.397  1.00  0.00     0.217 C 
BRANCH  24  25
HETATM   25  O7  UNL     1      33.316  50.156  20.501  1.00  0.00    -0.280 OA
BRANCH  25  26
HETATM   26  P1  UNL     1      32.169  49.735  19.553  1.00  0.00     0.422 P 
HETATM   27  O8  UNL     1      32.086  51.167  18.780  1.00  0.00    -0.617 OA
HETATM   28  O9  UNL     1      31.022  49.048  18.778  1.00  0.00    -0.617 OA
HETATM   29  O10 UNL     1      33.218  48.594  18.967  1.00  0.00    -0.617 OA
ENDBRANCH  25  26
ENDBRANCH  24  25
ENDBRANCH  21  24
ENDBRANCH  18  21
ENDBRANCH   1  18
TORSDOF 16
ENDMDL
