MODEL 5
REMARK VINA RESULT: -8.032436149      2.852      7.319
REMARK  16 active torsions:
REMARK  status: ('A' for Active; 'I' for Inactive)
REMARK    1  A    between atoms: C1_2  and  C2_4 
REMARK    2  A    between atoms: C2_4  and  N1_5 
REMARK    3  A    between atoms: N1_5  and  C3_6 
REMARK    4  A    between atoms: N1_5  and  C9_25 
REMARK    5  A    between atoms: C3_6  and  C4_7 
REMARK    6  A    between atoms: C4_7  and  O3_8 
REMARK    7  A    between atoms: C4_7  and  C5_10 
REMARK    8  A    between atoms: C5_10  and  O4_11 
REMARK    9  A    between atoms: C5_10  and  C6_13 
REMARK   10  A    between atoms: C6_13  and  O5_14 
REMARK   11  A    between atoms: C6_13  and  C7_16 
REMARK   12  A    between atoms: C7_16  and  O6_17 
REMARK   13  A    between atoms: C7_16  and  C8_19 
REMARK   14  A    between atoms: C8_19  and  O7_20 
REMARK   15  A    between atoms: O7_20  and  P1_21 
REMARK   16  A    between atoms: C9_25  and  P2_26 
ROOT
HETATM    1  C5  UNL     1      35.606  53.517  19.000  1.00  0.00     0.179 C 
ENDROOT
BRANCH   1   2
HETATM    2  C4  UNL     1      35.752  54.429  17.821  1.00  0.00     0.167 C 
BRANCH   2   3
HETATM    3  C3  UNL     1      36.607  53.896  16.763  1.00  0.00     0.157 C 
BRANCH   3   4
HETATM    4  N1  UNL     1      36.361  54.444  15.433  1.00  0.00    -0.370 N 
BRANCH   4   5
HETATM    5  C2  UNL     1      36.015  53.493  14.447  1.00  0.00     0.235 C 
BRANCH   5   6
HETATM    6  C1  UNL     1      35.752  52.120  14.870  1.00  0.00     0.191 C 
HETATM    7  O1  UNL     1      36.597  51.202  14.983  1.00  0.00    -0.647 OA
HETATM    8  O2  UNL     1      34.432  51.729  15.196  1.00  0.00    -0.647 OA
ENDBRANCH   5   6
ENDBRANCH   4   5
BRANCH   4   9
HETATM    9  C9  UNL     1      37.305  55.469  15.055  1.00  0.00     0.202 C 
BRANCH   9  10
HETATM   10  P2  UNL     1      38.989  55.217  15.355  1.00  0.00     0.300 P 
HETATM   11  O11 UNL     1      39.649  53.711  15.158  1.00  0.00    -0.636 OA
HETATM   12  O12 UNL     1      39.866  56.460  16.095  1.00  0.00    -0.636 OA
HETATM   13  O13 UNL     1      39.545  55.666  14.010  1.00  0.00    -0.636 OA
ENDBRANCH   9  10
ENDBRANCH   4   9
ENDBRANCH   3   4
ENDBRANCH   2   3
BRANCH   2  14
HETATM   14  O3  UNL     1      34.542  54.988  17.491  1.00  0.00    -0.391 OA
ATOM     15  H3  UNL     1      34.241  55.757  17.960  1.00  0.00     0.210 HD
ENDBRANCH   2  14
ENDBRANCH   1   2
BRANCH   1  16
HETATM   16  O4  UNL     1      34.515  54.052  19.812  1.00  0.00    -0.390 OA
ATOM     17  H4  UNL     1      33.740  53.548  19.593  1.00  0.00     0.210 HD
ENDBRANCH   1  16
BRANCH   1  18
HETATM   18  C6  UNL     1      35.125  52.118  18.691  1.00  0.00     0.180 C 
BRANCH  18  19
HETATM   19  O5  UNL     1      33.868  52.239  17.992  1.00  0.00    -0.390 OA
ATOM     20  H5  UNL     1      33.994  51.891  17.117  1.00  0.00     0.210 HD
ENDBRANCH  18  19
BRANCH  18  21
HETATM   21  C7  UNL     1      34.773  51.288  19.889  1.00  0.00     0.173 C 
BRANCH  21  22
HETATM   22  O6  UNL     1      35.650  50.172  19.928  1.00  0.00    -0.391 OA
ATOM     23  H6  UNL     1      36.534  50.494  20.065  1.00  0.00     0.210 HD
ENDBRANCH  21  22
BRANCH  21  24
HETATM   24  C8  UNL     1      33.352  50.848  19.947  1.00  0.00     0.217 C 
BRANCH  24  25
HETATM   25  O7  UNL     1      32.561  51.725  20.699  1.00  0.00    -0.280 OA
BRANCH  25  26
HETATM   26  P1  UNL     1      32.793  51.877  22.220  1.00  0.00     0.422 P 
HETATM   27  O8  UNL     1      33.303  53.423  22.136  1.00  0.00    -0.617 OA
HETATM   28  O9  UNL     1      32.953  51.720  23.749  1.00  0.00    -0.617 OA
HETATM   29  O10 UNL     1      31.166  51.602  22.385  1.00  0.00    -0.617 OA
ENDBRANCH  25  26
ENDBRANCH  24  25
ENDBRANCH  21  24
ENDBRANCH  18  21
ENDBRANCH   1  18
TORSDOF 16
ENDMDL
