MODEL 16
REMARK VINA RESULT: -7.831560419      2.165      2.963
REMARK  16 active torsions:
REMARK  status: ('A' for Active; 'I' for Inactive)
REMARK    1  A    between atoms: C1_2  and  C2_4 
REMARK    2  A    between atoms: C2_4  and  N1_5 
REMARK    3  A    between atoms: N1_5  and  C3_6 
REMARK    4  A    between atoms: N1_5  and  C9_25 
REMARK    5  A    between atoms: C3_6  and  C4_7 
REMARK    6  A    between atoms: C4_7  and  O3_8 
REMARK    7  A    between atoms: C4_7  and  C5_10 
REMARK    8  A    between atoms: C5_10  and  O4_11 
REMARK    9  A    between atoms: C5_10  and  C6_13 
REMARK   10  A    between atoms: C6_13  and  O5_14 
REMARK   11  A    between atoms: C6_13  and  C7_16 
REMARK   12  A    between atoms: C7_16  and  O6_17 
REMARK   13  A    between atoms: C7_16  and  C8_19 
REMARK   14  A    between atoms: C8_19  and  O7_20 
REMARK   15  A    between atoms: O7_20  and  P1_21 
REMARK   16  A    between atoms: C9_25  and  P2_26 
ROOT
HETATM    1  C5  UNL     1      35.234  53.152  17.934  1.00  0.00     0.179 C 
ENDROOT
BRANCH   1   2
HETATM    2  C4  UNL     1      34.695  52.997  19.324  1.00  0.00     0.167 C 
BRANCH   2   3
HETATM    3  C3  UNL     1      35.241  51.851  20.045  1.00  0.00     0.157 C 
BRANCH   3   4
HETATM    4  N1  UNL     1      34.266  50.828  20.412  1.00  0.00    -0.370 N 
BRANCH   4   5
HETATM    5  C2  UNL     1      33.782  50.908  21.737  1.00  0.00     0.235 C 
BRANCH   5   6
HETATM    6  C1  UNL     1      32.685  51.830  22.020  1.00  0.00     0.191 C 
HETATM    7  O1  UNL     1      31.463  51.556  22.007  1.00  0.00    -0.647 OA
HETATM    8  O2  UNL     1      32.969  53.176  22.346  1.00  0.00    -0.647 OA
ENDBRANCH   5   6
ENDBRANCH   4   5
BRANCH   4   9
HETATM    9  C9  UNL     1      34.602  49.515  19.912  1.00  0.00     0.202 C 
BRANCH   9  10
HETATM   10  P2  UNL     1      33.714  48.869  18.577  1.00  0.00     0.300 P 
HETATM   11  O11 UNL     1      32.187  49.423  18.251  1.00  0.00    -0.636 OA
HETATM   12  O12 UNL     1      34.327  47.500  17.795  1.00  0.00    -0.636 OA
HETATM   13  O13 UNL     1      34.292  49.729  17.461  1.00  0.00    -0.636 OA
ENDBRANCH   9  10
ENDBRANCH   4   9
ENDBRANCH   3   4
ENDBRANCH   2   3
BRANCH   2  14
HETATM   14  O3  UNL     1      34.624  54.216  19.952  1.00  0.00    -0.391 OA
ATOM     15  H3  UNL     1      34.468  54.998  19.434  1.00  0.00     0.210 HD
ENDBRANCH   2  14
ENDBRANCH   1   2
BRANCH   1  16
HETATM   16  O4  UNL     1      34.138  52.835  17.021  1.00  0.00    -0.390 OA
ATOM     17  H4  UNL     1      34.345  51.995  16.627  1.00  0.00     0.210 HD
ENDBRANCH   1  16
BRANCH   1  18
HETATM   18  C6  UNL     1      35.600  54.560  17.526  1.00  0.00     0.180 C 
BRANCH  18  19
HETATM   19  O5  UNL     1      35.258  54.709  16.132  1.00  0.00    -0.390 OA
ATOM     20  H5  UNL     1      35.845  54.151  15.634  1.00  0.00     0.210 HD
ENDBRANCH  18  19
BRANCH  18  21
HETATM   21  C7  UNL     1      37.067  54.868  17.555  1.00  0.00     0.173 C 
BRANCH  21  22
HETATM   22  O6  UNL     1      37.498  54.846  18.909  1.00  0.00    -0.391 OA
ATOM     23  H6  UNL     1      38.184  54.193  18.990  1.00  0.00     0.210 HD
ENDBRANCH  21  22
BRANCH  21  24
HETATM   24  C8  UNL     1      37.448  56.149  16.899  1.00  0.00     0.217 C 
BRANCH  24  25
HETATM   25  O7  UNL     1      38.195  55.940  15.733  1.00  0.00    -0.280 OA
BRANCH  25  26
HETATM   26  P1  UNL     1      38.810  54.552  15.438  1.00  0.00     0.422 P 
HETATM   27  O8  UNL     1      38.462  54.575  13.846  1.00  0.00    -0.617 OA
HETATM   28  O9  UNL     1      39.464  53.153  15.457  1.00  0.00    -0.617 OA
HETATM   29  O10 UNL     1      40.251  55.208  15.929  1.00  0.00    -0.617 OA
ENDBRANCH  25  26
ENDBRANCH  24  25
ENDBRANCH  21  24
ENDBRANCH  18  21
ENDBRANCH   1  18
TORSDOF 16
ENDMDL
