MODEL 1
REMARK VINA RESULT: -5.868469590      0.000      0.000
REMARK  3 active torsions:
REMARK  status: ('A' for Active; 'I' for Inactive)
REMARK       I    between atoms: C2_2  and  N1_4 
REMARK    1  A    between atoms: N1_4  and  C3_6 
REMARK    2  A    between atoms: C4_11  and  S1_12 
REMARK    3  A    between atoms: S1_12  and  N4_13 
ROOT
HETATM    1  C3  UNL     1      17.585   6.506  26.762  1.00  0.00     0.168 A 
HETATM    2  N2  UNL     1      17.014   7.697  26.608  1.00  0.00    -0.278 N 
ATOM      3  H2  UNL     1      16.831   8.061  25.673  1.00  0.00     0.189 HD
HETATM    4  N3  UNL     1      16.700   8.375  27.624  1.00  0.00    -0.281 N 
ATOM      5  H3  UNL     1      16.261   9.288  27.511  1.00  0.00     0.188 HD
HETATM    6  C4  UNL     1      16.940   7.898  28.841  1.00  0.00     0.208 A 
HETATM    7  S2  UNL     1      17.657   6.391  28.467  1.00  0.00    -0.020 SA
ENDROOT
BRANCH   6   8
HETATM    8  S1  UNL     1      16.588   8.665  30.399  1.00  0.00     0.280 S 
HETATM    9  O2  UNL     1      16.403   7.622  31.441  1.00  0.00    -0.199 OA
HETATM   10  O3  UNL     1      17.775   9.527  30.719  1.00  0.00    -0.199 OA
BRANCH   8  11
HETATM   11  N4  UNL     1      15.198   9.661  30.214  1.00  0.00    -0.323 N 
ATOM     12  H42 UNL     1      15.017  10.270  29.416  1.00  0.00     0.169 HD
ATOM     13  H41 UNL     1      14.600   9.535  31.029  1.00  0.00     0.169 HD
ENDBRANCH   8  11
ENDBRANCH   6   8
BRANCH   1  14
HETATM   14  N1  UNL     1      18.019   5.578  25.750  1.00  0.00    -0.306 N 
HETATM   15  C2  UNL     1      17.056   4.779  25.095  1.00  0.00     0.219 C 
HETATM   16  C1  UNL     1      17.417   3.799  24.042  1.00  0.00     0.117 C 
HETATM   17  O1  UNL     1      15.850   4.916  25.428  1.00  0.00    -0.274 OA
ATOM     18  H1  UNL     1      19.007   5.499  25.510  1.00  0.00     0.171 HD
ENDBRANCH   1  14
TORSDOF 3
ENDMDL
