MODEL 2
REMARK VINA RESULT: -5.808825031      1.122      1.122
REMARK  3 active torsions:
REMARK  status: ('A' for Active; 'I' for Inactive)
REMARK       I    between atoms: C2_2  and  N1_4 
REMARK    1  A    between atoms: N1_4  and  C3_6 
REMARK    2  A    between atoms: C4_11  and  S1_12 
REMARK    3  A    between atoms: S1_12  and  N4_13 
ROOT
HETATM    1  C3  UNL     1      17.612   6.181  26.998  1.00  0.00     0.168 A 
HETATM    2  N2  UNL     1      16.823   5.743  27.974  1.00  0.00    -0.278 N 
ATOM      3  H2  UNL     1      16.431   4.803  27.933  1.00  0.00     0.189 HD
HETATM    4  N3  UNL     1      16.562   6.496  28.951  1.00  0.00    -0.281 N 
ATOM      5  H3  UNL     1      15.958   6.165  29.703  1.00  0.00     0.188 HD
HETATM    6  C4  UNL     1      17.075   7.721  29.001  1.00  0.00     0.208 A 
HETATM    7  S2  UNL     1      17.977   7.759  27.549  1.00  0.00    -0.020 SA
ENDROOT
BRANCH   6   8
HETATM    8  S1  UNL     1      16.849   8.945  30.264  1.00  0.00     0.280 S 
HETATM    9  O2  UNL     1      16.206   8.326  31.452  1.00  0.00    -0.199 OA
HETATM   10  O3  UNL     1      18.221   9.449  30.607  1.00  0.00    -0.199 OA
BRANCH   8  11
HETATM   11  N4  UNL     1      15.918  10.234  29.611  1.00  0.00    -0.323 N 
ATOM     12  H42 UNL     1      14.907  10.332  29.706  1.00  0.00     0.169 HD
ATOM     13  H41 UNL     1      16.546  10.871  29.121  1.00  0.00     0.169 HD
ENDBRANCH   8  11
ENDBRANCH   6   8
BRANCH   1  14
HETATM   14  N1  UNL     1      18.035   5.494  25.805  1.00  0.00    -0.306 N 
HETATM   15  C2  UNL     1      17.090   4.731  25.082  1.00  0.00     0.219 C 
HETATM   16  C1  UNL     1      17.441   3.994  23.845  1.00  0.00     0.117 C 
HETATM   17  O1  UNL     1      15.910   4.687  25.518  1.00  0.00    -0.274 OA
ATOM     18  H1  UNL     1      19.001   5.557  25.486  1.00  0.00     0.171 HD
ENDBRANCH   1  14
TORSDOF 3
ENDMDL
