MODEL 3
REMARK VINA RESULT: -5.760160980      0.993      1.165
REMARK  3 active torsions:
REMARK  status: ('A' for Active; 'I' for Inactive)
REMARK       I    between atoms: C2_2  and  N1_4 
REMARK    1  A    between atoms: N1_4  and  C3_6 
REMARK    2  A    between atoms: C4_11  and  S1_12 
REMARK    3  A    between atoms: S1_12  and  N4_13 
ROOT
HETATM    1  C3  UNL     1      17.578   6.478  26.742  1.00  0.00     0.168 A 
HETATM    2  N2  UNL     1      17.069   7.686  26.521  1.00  0.00    -0.278 N 
ATOM      3  H2  UNL     1      16.949   8.026  25.567  1.00  0.00     0.189 HD
HETATM    4  N3  UNL     1      16.735   8.410  27.498  1.00  0.00    -0.281 N 
ATOM      5  H3  UNL     1      16.344   9.338  27.334  1.00  0.00     0.188 HD
HETATM    6  C4  UNL     1      16.893   7.965  28.740  1.00  0.00     0.208 A 
HETATM    7  S2  UNL     1      17.560   6.417  28.451  1.00  0.00    -0.020 SA
ENDROOT
BRANCH   6   8
HETATM    8  S1  UNL     1      16.498   8.799  30.253  1.00  0.00     0.280 S 
HETATM    9  O2  UNL     1      15.121   9.352  30.176  1.00  0.00    -0.199 OA
HETATM   10  O3  UNL     1      16.592   7.764  31.337  1.00  0.00    -0.199 OA
BRANCH   8  11
HETATM   11  N4  UNL     1      17.679  10.017  30.528  1.00  0.00    -0.323 N 
ATOM     12  H42 UNL     1      18.580  10.076  30.052  1.00  0.00     0.169 HD
ATOM     13  H41 UNL     1      17.324  10.657  31.238  1.00  0.00     0.169 HD
ENDBRANCH   8  11
ENDBRANCH   6   8
BRANCH   1  14
HETATM   14  N1  UNL     1      18.020   5.498  25.783  1.00  0.00    -0.306 N 
HETATM   15  C2  UNL     1      17.057   4.708  25.117  1.00  0.00     0.219 C 
HETATM   16  C1  UNL     1      17.427   3.678  24.117  1.00  0.00     0.117 C 
HETATM   17  O1  UNL     1      15.844   4.897  25.395  1.00  0.00    -0.274 OA
ATOM     18  H1  UNL     1      19.014   5.378  25.587  1.00  0.00     0.171 HD
ENDBRANCH   1  14
TORSDOF 3
ENDMDL
