MODEL 8
REMARK VINA RESULT: -5.432499088      3.706      5.674
REMARK  3 active torsions:
REMARK  status: ('A' for Active; 'I' for Inactive)
REMARK       I    between atoms: C2_2  and  N1_4 
REMARK    1  A    between atoms: N1_4  and  C3_6 
REMARK    2  A    between atoms: C4_11  and  S1_12 
REMARK    3  A    between atoms: S1_12  and  N4_13 
ROOT
HETATM    1  C3  UNL     1      19.946   7.458  26.167  1.00  0.00     0.168 A 
HETATM    2  N2  UNL     1      19.066   7.372  27.161  1.00  0.00    -0.278 N 
ATOM      3  H2  UNL     1      19.158   7.973  27.980  1.00  0.00     0.189 HD
HETATM    4  N3  UNL     1      18.119   6.543  27.086  1.00  0.00    -0.281 N 
ATOM      5  H3  UNL     1      17.442   6.474  27.846  1.00  0.00     0.188 HD
HETATM    6  C4  UNL     1      18.003   5.761  26.018  1.00  0.00     0.208 A 
HETATM    7  S2  UNL     1      19.346   6.272  25.090  1.00  0.00    -0.020 SA
ENDROOT
BRANCH   6   8
HETATM    8  S1  UNL     1      16.765   4.535  25.697  1.00  0.00     0.280 S 
HETATM    9  O2  UNL     1      16.416   3.833  26.959  1.00  0.00    -0.199 OA
HETATM   10  O3  UNL     1      15.575   5.274  25.156  1.00  0.00    -0.199 OA
BRANCH   8  11
HETATM   11  N4  UNL     1      17.361   3.463  24.492  1.00  0.00    -0.323 N 
ATOM     12  H42 UNL     1      18.347   3.311  24.281  1.00  0.00     0.169 HD
ATOM     13  H41 UNL     1      16.566   3.015  24.037  1.00  0.00     0.169 HD
ENDBRANCH   8  11
ENDBRANCH   6   8
BRANCH   1  14
HETATM   14  N1  UNL     1      21.089   8.325  26.049  1.00  0.00    -0.306 N 
HETATM   15  C2  UNL     1      20.883   9.714  25.886  1.00  0.00     0.219 C 
HETATM   16  C1  UNL     1      22.004  10.675  25.758  1.00  0.00     0.117 C 
HETATM   17  O1  UNL     1      19.697  10.134  25.851  1.00  0.00    -0.274 OA
ATOM     18  H1  UNL     1      22.034   7.943  26.083  1.00  0.00     0.171 HD
ENDBRANCH   1  14
TORSDOF 3
ENDMDL
