MODEL 13
REMARK VINA RESULT: -5.264067504      3.604      5.559
REMARK  3 active torsions:
REMARK  status: ('A' for Active; 'I' for Inactive)
REMARK       I    between atoms: C2_2  and  N1_4 
REMARK    1  A    between atoms: N1_4  and  C3_6 
REMARK    2  A    between atoms: C4_11  and  S1_12 
REMARK    3  A    between atoms: S1_12  and  N4_13 
ROOT
HETATM    1  C3  UNL     1      19.116   8.545  25.874  1.00  0.00     0.168 A 
HETATM    2  N2  UNL     1      17.810   8.605  26.120  1.00  0.00    -0.278 N 
ATOM      3  H2  UNL     1      17.360   9.506  26.283  1.00  0.00     0.189 HD
HETATM    4  N3  UNL     1      17.132   7.543  26.151  1.00  0.00    -0.281 N 
ATOM      5  H3  UNL     1      16.130   7.583  26.339  1.00  0.00     0.188 HD
HETATM    6  C4  UNL     1      17.722   6.371  25.939  1.00  0.00     0.208 A 
HETATM    7  S2  UNL     1      19.340   6.860  25.683  1.00  0.00    -0.020 SA
ENDROOT
BRANCH   6   8
HETATM    8  S1  UNL     1      16.977   4.763  25.933  1.00  0.00     0.280 S 
HETATM    9  O2  UNL     1      16.796   4.290  27.330  1.00  0.00    -0.199 OA
HETATM   10  O3  UNL     1      15.648   4.920  25.252  1.00  0.00    -0.199 OA
BRANCH   8  11
HETATM   11  N4  UNL     1      17.969   3.708  25.007  1.00  0.00    -0.323 N 
ATOM     12  H42 UNL     1      18.966   3.838  24.840  1.00  0.00     0.169 HD
ATOM     13  H41 UNL     1      17.390   2.943  24.660  1.00  0.00     0.169 HD
ENDBRANCH   8  11
ENDBRANCH   6   8
BRANCH   1  14
HETATM   14  N1  UNL     1      20.067   9.624  25.793  1.00  0.00    -0.306 N 
HETATM   15  C2  UNL     1      20.063  10.457  24.653  1.00  0.00     0.219 C 
HETATM   16  C1  UNL     1      21.008  11.589  24.491  1.00  0.00     0.117 C 
HETATM   17  O1  UNL     1      19.220  10.218  23.749  1.00  0.00    -0.274 OA
ATOM     18  H1  UNL     1      20.734   9.783  26.549  1.00  0.00     0.171 HD
ENDBRANCH   1  14
TORSDOF 3
ENDMDL
