MODEL 4
REMARK VINA RESULT: -10.198475256      3.221      5.123
REMARK  2 active torsions:
REMARK  status: ('A' for Active; 'I' for Inactive)
REMARK    1  A    between atoms: C9_9  and  O1_10 
REMARK    2  A    between atoms: C18_20  and  O2_21 
ROOT
HETATM    1  C1  UNL     1      38.636  24.602  65.689  1.00  0.00     0.018 C 
HETATM    2  C2  UNL     1      39.863  25.229  65.072  1.00  0.00    -0.014 C 
HETATM    3  C3  UNL     1      39.921  25.097  63.598  1.00  0.00     0.013 C 
HETATM    4  C4  UNL     1      39.779  23.606  63.275  1.00  0.00     0.010 C 
HETATM    5  C5  UNL     1      41.002  22.922  63.804  1.00  0.00     0.023 C 
HETATM    6  C6  UNL     1      40.997  21.464  63.568  1.00  0.00    -0.047 A 
HETATM    7  C7  UNL     1      40.137  20.824  62.703  1.00  0.00     0.011 A 
HETATM    8  C8  UNL     1      40.155  19.462  62.501  1.00  0.00     0.037 A 
HETATM    9  C9  UNL     1      41.084  18.691  63.202  1.00  0.00     0.066 A 
HETATM   10  C10 UNL     1      41.946  19.330  64.068  1.00  0.00     0.044 A 
HETATM   11  C11 UNL     1      41.913  20.702  64.257  1.00  0.00    -0.049 A 
HETATM   12  C12 UNL     1      42.896  21.263  65.217  1.00  0.00     0.039 C 
HETATM   13  C13 UNL     1      42.668  22.699  65.542  1.00  0.00     0.010 C 
HETATM   14  C14 UNL     1      41.216  23.131  65.283  1.00  0.00    -0.001 C 
HETATM   15  C15 UNL     1      41.131  24.564  65.632  1.00  0.00     0.001 C 
HETATM   16  C16 UNL     1      40.984  24.885  67.074  1.00  0.00     0.008 C 
HETATM   17  C17 UNL     1      40.456  26.312  67.064  1.00  0.00     0.033 C 
HETATM   18  C18 UNL     1      40.072  26.601  65.611  1.00  0.00     0.126 C 
ENDROOT
BRANCH   9  19
HETATM   19  O1  UNL     1      41.110  17.335  63.009  1.00  0.00    -0.361 OA
ATOM     20  H1  UNL     1      41.734  16.808  63.495  1.00  0.00     0.217 HD
ENDBRANCH   9  19
BRANCH  18  21
HETATM   21  O2  UNL     1      38.979  27.428  65.522  1.00  0.00    -0.395 OA
ATOM     22  H2  UNL     1      38.874  28.029  66.250  1.00  0.00     0.210 HD
ENDBRANCH  18  21
TORSDOF 2
ENDMDL
