MODEL 2
REMARK VINA RESULT: -10.724101393      1.560      6.125
REMARK  2 active torsions:
REMARK  status: ('A' for Active; 'I' for Inactive)
REMARK    1  A    between atoms: C9_9  and  O1_10 
REMARK    2  A    between atoms: C18_20  and  O2_21 
ROOT
HETATM    1  C1  UNL     1      42.431  21.762  67.777  1.00  0.00     0.018 C 
HETATM    2  C2  UNL     1      43.284  22.296  66.652  1.00  0.00    -0.014 C 
HETATM    3  C3  UNL     1      43.494  23.762  66.709  1.00  0.00     0.013 C 
HETATM    4  C4  UNL     1      42.108  24.412  66.777  1.00  0.00     0.010 C 
HETATM    5  C5  UNL     1      41.429  24.138  65.470  1.00  0.00     0.023 C 
HETATM    6  C6  UNL     1      40.067  24.705  65.396  1.00  0.00    -0.047 A 
HETATM    7  C7  UNL     1      39.568  25.636  66.280  1.00  0.00     0.011 A 
HETATM    8  C8  UNL     1      38.294  26.148  66.188  1.00  0.00     0.037 A 
HETATM    9  C9  UNL     1      37.466  25.710  65.153  1.00  0.00     0.066 A 
HETATM   10  C10 UNL     1      37.965  24.778  64.266  1.00  0.00     0.044 A 
HETATM   11  C11 UNL     1      39.250  24.274  64.376  1.00  0.00    -0.049 A 
HETATM   12  C12 UNL     1      39.661  23.277  63.356  1.00  0.00     0.039 C 
HETATM   13  C13 UNL     1      40.961  22.614  63.652  1.00  0.00     0.010 C 
HETATM   14  C14 UNL     1      41.315  22.668  65.147  1.00  0.00    -0.001 C 
HETATM   15  C15 UNL     1      42.620  21.992  65.300  1.00  0.00     0.001 C 
HETATM   16  C16 UNL     1      42.592  20.508  65.346  1.00  0.00     0.008 C 
HETATM   17  C17 UNL     1      43.935  20.151  65.968  1.00  0.00     0.033 C 
HETATM   18  C18 UNL     1      44.511  21.469  66.492  1.00  0.00     0.126 C 
ENDROOT
BRANCH   9  19
HETATM   19  O1  UNL     1      36.196  26.213  65.051  1.00  0.00    -0.361 OA
ATOM     20  H1  UNL     1      36.075  27.126  64.819  1.00  0.00     0.217 HD
ENDBRANCH   9  19
BRANCH  18  21
HETATM   21  O2  UNL     1      45.240  21.291  67.642  1.00  0.00    -0.395 OA
ATOM     22  H2  UNL     1      46.022  20.761  67.540  1.00  0.00     0.210 HD
ENDBRANCH  18  21
TORSDOF 2
ENDMDL
