MODEL 1
REMARK VINA RESULT: -12.958872981      0.000      0.000
REMARK  2 active torsions:
REMARK  status: ('A' for Active; 'I' for Inactive)
REMARK    1  A    between atoms: C9_9  and  O1_10 
REMARK    2  A    between atoms: C18_20  and  O2_21 
ROOT
HETATM    1  C1  UNL     1      39.474  26.844  64.217  1.00  0.00     0.018 C 
HETATM    2  C2  UNL     1      38.753  25.790  65.021  1.00  0.00    -0.014 C 
HETATM    3  C3  UNL     1      38.783  26.032  66.482  1.00  0.00     0.013 C 
HETATM    4  C4  UNL     1      40.254  26.193  66.880  1.00  0.00     0.010 C 
HETATM    5  C5  UNL     1      40.917  24.868  66.663  1.00  0.00     0.023 C 
HETATM    6  C6  UNL     1      42.354  24.877  67.001  1.00  0.00    -0.047 A 
HETATM    7  C7  UNL     1      42.973  25.877  67.719  1.00  0.00     0.011 A 
HETATM    8  C8  UNL     1      44.316  25.861  68.021  1.00  0.00     0.037 A 
HETATM    9  C9  UNL     1      45.090  24.785  67.584  1.00  0.00     0.066 A 
HETATM   10  C10 UNL     1      44.472  23.782  66.865  1.00  0.00     0.044 A 
HETATM   11  C11 UNL     1      43.120  23.817  66.571  1.00  0.00    -0.049 A 
HETATM   12  C12 UNL     1      42.581  22.675  65.792  1.00  0.00     0.039 C 
HETATM   13  C13 UNL     1      41.182  22.874  65.321  1.00  0.00     0.010 C 
HETATM   14  C14 UNL     1      40.799  24.361  65.246  1.00  0.00    -0.001 C 
HETATM   15  C15 UNL     1      39.397  24.415  64.782  1.00  0.00     0.001 C 
HETATM   16  C16 UNL     1      39.181  24.272  63.320  1.00  0.00     0.008 C 
HETATM   17  C17 UNL     1      37.781  24.833  63.115  1.00  0.00     0.033 C 
HETATM   18  C18 UNL     1      37.412  25.515  64.435  1.00  0.00     0.126 C 
ENDROOT
BRANCH   9  19
HETATM   19  O1  UNL     1      46.428  24.759  67.879  1.00  0.00    -0.361 OA
ATOM     20  H1  UNL     1      47.015  25.356  67.431  1.00  0.00     0.217 HD
ENDBRANCH   9  19
BRANCH  18  21
HETATM   21  O2  UNL     1      36.631  26.628  64.237  1.00  0.00    -0.395 OA
ATOM     22  H2  UNL     1      35.886  26.494  63.663  1.00  0.00     0.210 HD
ENDBRANCH  18  21
TORSDOF 2
ENDMDL
