MODEL 3
REMARK VINA RESULT: -10.278494240      1.400      6.491
REMARK  2 active torsions:
REMARK  status: ('A' for Active; 'I' for Inactive)
REMARK    1  A    between atoms: C9_9  and  O1_10 
REMARK    2  A    between atoms: C18_20  and  O2_21 
ROOT
HETATM    1  C1  UNL     1      44.549  22.673  65.889  1.00  0.00     0.018 C 
HETATM    2  C2  UNL     1      44.145  22.747  67.342  1.00  0.00    -0.014 C 
HETATM    3  C3  UNL     1      42.876  22.043  67.643  1.00  0.00     0.013 C 
HETATM    4  C4  UNL     1      41.814  22.604  66.691  1.00  0.00     0.010 C 
HETATM    5  C5  UNL     1      41.597  24.037  67.069  1.00  0.00     0.023 C 
HETATM    6  C6  UNL     1      40.594  24.713  66.222  1.00  0.00    -0.047 A 
HETATM    7  C7  UNL     1      39.726  24.057  65.378  1.00  0.00     0.011 A 
HETATM    8  C8  UNL     1      38.800  24.712  64.598  1.00  0.00     0.037 A 
HETATM    9  C9  UNL     1      38.732  26.105  64.662  1.00  0.00     0.066 A 
HETATM   10  C10 UNL     1      39.601  26.765  65.507  1.00  0.00     0.044 A 
HETATM   11  C11 UNL     1      40.526  26.087  66.284  1.00  0.00    -0.049 A 
HETATM   12  C12 UNL     1      41.400  26.917  67.150  1.00  0.00     0.039 C 
HETATM   13  C13 UNL     1      42.511  26.157  67.788  1.00  0.00     0.010 C 
HETATM   14  C14 UNL     1      42.854  24.871  67.019  1.00  0.00    -0.001 C 
HETATM   15  C15 UNL     1      43.952  24.214  67.759  1.00  0.00     0.001 C 
HETATM   16  C16 UNL     1      45.318  24.741  67.514  1.00  0.00     0.008 C 
HETATM   17  C17 UNL     1      46.220  23.614  67.999  1.00  0.00     0.033 C 
HETATM   18  C18 UNL     1      45.298  22.413  68.221  1.00  0.00     0.126 C 
ENDROOT
BRANCH   9  19
HETATM   19  O1  UNL     1      37.815  26.768  63.891  1.00  0.00    -0.361 OA
ATOM     20  H1  UNL     1      36.888  26.614  64.035  1.00  0.00     0.217 HD
ENDBRANCH   9  19
BRANCH  18  21
HETATM   21  O2  UNL     1      45.921  21.225  67.927  1.00  0.00    -0.395 OA
ATOM     22  H2  UNL     1      46.563  21.275  67.227  1.00  0.00     0.210 HD
ENDBRANCH  18  21
TORSDOF 2
ENDMDL
