MODEL 2
REMARK VINA RESULT: -8.884218831      2.391      4.095
REMARK  7 active torsions:
REMARK  status: ('A' for Active; 'I' for Inactive)
REMARK    1  A    between atoms: C1_2  and  C2_4 
REMARK    2  A    between atoms: C2_4  and  C3_5 
REMARK    3  A    between atoms: C2_4  and  C10_12 
REMARK    4  A    between atoms: C3_5  and  C4_6 
REMARK    5  A    between atoms: C10_12  and  C11_13 
REMARK    6  A    between atoms: C10_12  and  C19_23 
REMARK    7  A    between atoms: C11_13  and  C12_14 
ROOT
HETATM    1  C10 UNL     1      57.763  24.419  32.222  1.00  0.00     0.105 C 
ENDROOT
BRANCH   1   2
HETATM    2  C2  UNL     1      56.659  23.780  33.052  1.00  0.00     0.105 C 
BRANCH   2   3
HETATM    3  C1  UNL     1      55.643  23.275  32.129  1.00  0.00     0.178 C 
HETATM    4  O1  UNL     1      54.535  22.886  32.542  1.00  0.00    -0.648 OA
HETATM    5  O2  UNL     1      55.831  23.191  30.744  1.00  0.00    -0.648 OA
ENDBRANCH   2   3
BRANCH   2   6
HETATM    6  C3  UNL     1      57.189  22.810  34.037  1.00  0.00     0.054 C 
BRANCH   6   7
HETATM    7  C4  UNL     1      57.209  23.269  35.455  1.00  0.00    -0.057 A 
HETATM    8  C5  UNL     1      58.406  23.247  36.153  1.00  0.00     0.007 A 
HETATM    9  C6  UNL     1      58.438  23.633  37.455  1.00  0.00     0.001 A 
HETATM   10  C7  UNL     1      57.321  24.059  38.146  1.00  0.00     0.000 A 
HETATM   11  C8  UNL     1      56.128  24.084  37.465  1.00  0.00     0.001 A 
HETATM   12  C9  UNL     1      56.088  23.691  36.138  1.00  0.00     0.007 A 
ENDBRANCH   6   7
ENDBRANCH   2   6
ENDBRANCH   1   2
BRANCH   1  13
HETATM   13  C11 UNL     1      59.014  23.659  32.114  1.00  0.00     0.055 C 
BRANCH  13  14
HETATM   14  C12 UNL     1      59.370  23.425  30.703  1.00  0.00    -0.054 A 
HETATM   15  C13 UNL     1      60.393  22.529  30.402  1.00  0.00     0.010 A 
HETATM   16  C14 UNL     1      60.714  22.373  29.073  1.00  0.00     0.040 A 
HETATM   17  C15 UNL     1      60.076  23.055  28.045  1.00  0.00     0.105 A 
HETATM   18  C16 UNL     1      59.069  23.936  28.361  1.00  0.00     0.105 A 
HETATM   19  O4  UNL     1      60.233  23.053  26.656  1.00  0.00    -0.323 OA
HETATM   20  C17 UNL     1      58.723  24.113  29.709  1.00  0.00     0.047 A 
HETATM   21  O3  UNL     1      58.621  24.463  27.160  1.00  0.00    -0.323 OA
HETATM   22  C18 UNL     1      59.531  24.138  26.123  1.00  0.00     0.352 C 
ENDBRANCH  13  14
ENDBRANCH   1  13
BRANCH   1  23
HETATM   23  C19 UNL     1      57.994  25.796  32.667  1.00  0.00     0.178 C 
HETATM   24  O5  UNL     1      58.925  26.534  32.270  1.00  0.00    -0.648 OA
HETATM   25  O6  UNL     1      57.164  26.436  33.620  1.00  0.00    -0.648 OA
ENDBRANCH   1  23
TORSDOF 7
ENDMDL
