MODEL 4
REMARK VINA RESULT: -8.483655720      2.405      4.224
REMARK  7 active torsions:
REMARK  status: ('A' for Active; 'I' for Inactive)
REMARK    1  A    between atoms: C1_2  and  C2_4 
REMARK    2  A    between atoms: C2_4  and  C3_5 
REMARK    3  A    between atoms: C2_4  and  C10_12 
REMARK    4  A    between atoms: C3_5  and  C4_6 
REMARK    5  A    between atoms: C10_12  and  C11_13 
REMARK    6  A    between atoms: C10_12  and  C19_23 
REMARK    7  A    between atoms: C11_13  and  C12_14 
ROOT
HETATM    1  C10 UNL     1      57.780  24.420  32.260  1.00  0.00     0.105 C 
ENDROOT
BRANCH   1   2
HETATM    2  C2  UNL     1      56.651  23.769  33.046  1.00  0.00     0.105 C 
BRANCH   2   3
HETATM    3  C1  UNL     1      55.669  23.269  32.085  1.00  0.00     0.178 C 
HETATM    4  O1  UNL     1      54.525  22.938  32.448  1.00  0.00    -0.648 OA
HETATM    5  O2  UNL     1      55.930  23.125  30.717  1.00  0.00    -0.648 OA
ENDBRANCH   2   3
BRANCH   2   6
HETATM    6  C3  UNL     1      57.152  22.792  34.039  1.00  0.00     0.054 C 
BRANCH   6   7
HETATM    7  C4  UNL     1      57.189  23.262  35.453  1.00  0.00    -0.057 A 
HETATM    8  C5  UNL     1      58.389  23.228  36.144  1.00  0.00     0.007 A 
HETATM    9  C6  UNL     1      58.435  23.624  37.442  1.00  0.00     0.001 A 
HETATM   10  C7  UNL     1      57.329  24.073  38.136  1.00  0.00     0.000 A 
HETATM   11  C8  UNL     1      56.132  24.110  37.463  1.00  0.00     0.001 A 
HETATM   12  C9  UNL     1      56.078  23.707  36.139  1.00  0.00     0.007 A 
ENDBRANCH   6   7
ENDBRANCH   2   6
ENDBRANCH   1   2
BRANCH   1  13
HETATM   13  C11 UNL     1      59.040  23.671  32.196  1.00  0.00     0.055 C 
BRANCH  13  14
HETATM   14  C12 UNL     1      59.469  23.477  30.800  1.00  0.00    -0.054 A 
HETATM   15  C13 UNL     1      58.921  24.281  29.804  1.00  0.00     0.010 A 
HETATM   16  C14 UNL     1      59.324  24.036  28.511  1.00  0.00     0.040 A 
HETATM   17  C15 UNL     1      60.234  23.044  28.167  1.00  0.00     0.105 A 
HETATM   18  C16 UNL     1      60.765  22.260  29.163  1.00  0.00     0.105 A 
HETATM   19  O4  UNL     1      60.777  22.628  26.948  1.00  0.00    -0.323 OA
HETATM   20  C17 UNL     1      60.369  22.489  30.490  1.00  0.00     0.047 A 
HETATM   21  O3  UNL     1      61.627  21.370  28.541  1.00  0.00    -0.323 OA
HETATM   22  C18 UNL     1      61.421  21.402  27.140  1.00  0.00     0.352 C 
ENDBRANCH  13  14
ENDBRANCH   1  13
BRANCH   1  23
HETATM   23  C19 UNL     1      57.981  25.798  32.716  1.00  0.00     0.178 C 
HETATM   24  O5  UNL     1      58.914  26.548  32.348  1.00  0.00    -0.648 OA
HETATM   25  O6  UNL     1      57.116  26.425  33.646  1.00  0.00    -0.648 OA
ENDBRANCH   1  23
TORSDOF 7
ENDMDL
