MODEL 1
REMARK VINA RESULT: -8.962250278      0.000      0.000
REMARK  7 active torsions:
REMARK  status: ('A' for Active; 'I' for Inactive)
REMARK    1  A    between atoms: C1_2  and  C2_4 
REMARK    2  A    between atoms: C2_4  and  C3_5 
REMARK    3  A    between atoms: C2_4  and  C10_12 
REMARK    4  A    between atoms: C3_5  and  C4_6 
REMARK    5  A    between atoms: C10_12  and  C11_13 
REMARK    6  A    between atoms: C10_12  and  C19_23 
REMARK    7  A    between atoms: C11_13  and  C12_14 
ROOT
HETATM    1  C10 UNL     1      57.412  24.603  35.451  1.00  0.00     0.105 C 
ENDROOT
BRANCH   1   2
HETATM    2  C2  UNL     1      57.579  24.347  36.942  1.00  0.00     0.105 C 
BRANCH   2   3
HETATM    3  C1  UNL     1      56.290  24.601  37.585  1.00  0.00     0.178 C 
HETATM    4  O1  UNL     1      56.120  25.596  38.314  1.00  0.00    -0.648 OA
HETATM    5  O2  UNL     1      55.175  23.767  37.437  1.00  0.00    -0.648 OA
ENDBRANCH   2   3
BRANCH   2   6
HETATM    6  C3  UNL     1      58.201  23.031  37.218  1.00  0.00     0.054 C 
BRANCH   6   7
HETATM    7  C4  UNL     1      58.154  22.574  38.636  1.00  0.00    -0.057 A 
HETATM    8  C5  UNL     1      59.053  23.108  39.545  1.00  0.00     0.007 A 
HETATM    9  C6  UNL     1      59.044  22.682  40.835  1.00  0.00     0.001 A 
HETATM   10  C7  UNL     1      58.171  21.724  41.310  1.00  0.00     0.000 A 
HETATM   11  C8  UNL     1      57.276  21.186  40.418  1.00  0.00     0.001 A 
HETATM   12  C9  UNL     1      57.279  21.616  39.101  1.00  0.00     0.007 A 
ENDBRANCH   6   7
ENDBRANCH   2   6
ENDBRANCH   1   2
BRANCH   1  13
HETATM   13  C11 UNL     1      58.166  23.719  34.554  1.00  0.00     0.055 C 
BRANCH  13  14
HETATM   14  C12 UNL     1      57.522  23.635  33.231  1.00  0.00    -0.054 A 
HETATM   15  C13 UNL     1      56.185  23.251  33.151  1.00  0.00     0.010 A 
HETATM   16  C14 UNL     1      55.640  23.151  31.892  1.00  0.00     0.040 A 
HETATM   17  C15 UNL     1      56.349  23.410  30.726  1.00  0.00     0.105 A 
HETATM   18  C16 UNL     1      57.667  23.788  30.824  1.00  0.00     0.105 A 
HETATM   19  O4  UNL     1      56.006  23.374  29.371  1.00  0.00    -0.323 OA
HETATM   20  C17 UNL     1      58.247  23.897  32.098  1.00  0.00     0.047 A 
HETATM   21  O3  UNL     1      58.116  23.978  29.527  1.00  0.00    -0.323 OA
HETATM   22  C18 UNL     1      57.176  23.445  28.610  1.00  0.00     0.352 C 
ENDBRANCH  13  14
ENDBRANCH   1  13
BRANCH   1  23
HETATM   23  C19 UNL     1      57.649  26.019  35.154  1.00  0.00     0.178 C 
HETATM   24  O5  UNL     1      58.361  26.788  35.840  1.00  0.00    -0.648 OA
HETATM   25  O6  UNL     1      57.073  26.667  34.034  1.00  0.00    -0.648 OA
ENDBRANCH   1  23
TORSDOF 7
ENDMDL
