MODEL 5
REMARK VINA RESULT: -7.021542204      3.534      5.334
REMARK  5 active torsions:
REMARK  status: ('A' for Active; 'I' for Inactive)
REMARK    1  A    between atoms: N1_5  and  C4_6 
REMARK    2  A    between atoms: C6_8  and  O2_9 
REMARK    3  A    between atoms: C7_11  and  C8_12 
REMARK    4  A    between atoms: C8_12  and  O3_13 
REMARK    5  A    between atoms: O3_13  and  P1_14 
ROOT
HETATM    1  C4  UNL     1      18.631  46.478 -53.276  1.00  0.00     0.235 C 
HETATM    2  C5  UNL     1      20.036  46.556 -53.822  1.00  0.00     0.088 C 
HETATM    3  C6  UNL     1      20.811  46.296 -52.543  1.00  0.00     0.153 C 
HETATM    4  C7  UNL     1      19.931  47.023 -51.540  1.00  0.00     0.177 C 
HETATM    5  O7  UNL     1      18.699  47.190 -52.108  1.00  0.00    -0.356 OA
ENDROOT
BRANCH   1   6
HETATM    6  N1  UNL     1      17.634  46.935 -54.192  1.00  0.00    -0.282 N 
HETATM    7  C3  UNL     1      17.256  48.227 -54.155  1.00  0.00     0.104 A 
HETATM    8  C2  UNL     1      16.308  48.764 -54.992  1.00  0.00     0.092 A 
HETATM    9  C1  UNL     1      15.722  47.905 -55.916  1.00  0.00     0.250 A 
HETATM   10  O1  UNL     1      14.849  48.318 -56.714  1.00  0.00    -0.268 OA
HETATM   11  N2  UNL     1      16.104  46.610 -55.949  1.00  0.00    -0.275 N 
HETATM   12  C9  UNL     1      17.035  46.151 -55.105  1.00  0.00     0.331 A 
ATOM     13  H2  UNL     1      15.678  45.975 -56.624  1.00  0.00     0.173 HD
HETATM   14  O8  UNL     1      17.413  44.932 -55.116  1.00  0.00    -0.246 OA
ENDBRANCH   1   6
BRANCH   3  15
HETATM   15  O2  UNL     1      20.801  44.918 -52.338  1.00  0.00    -0.393 OA
ATOM     16  H2  UNL     1      20.951  44.776 -51.411  1.00  0.00     0.210 HD
ENDBRANCH   3  15
BRANCH   4  17
HETATM   17  C8  UNL     1      20.545  48.365 -51.292  1.00  0.00     0.217 C 
BRANCH  17  18
HETATM   18  O3  UNL     1      19.693  49.418 -51.503  1.00  0.00    -0.280 OA
BRANCH  18  19
HETATM   19  P1  UNL     1      20.131  50.654 -52.399  1.00  0.00     0.422 P 
HETATM   20  O4  UNL     1      21.010  49.875 -53.385  1.00  0.00    -0.617 OA
HETATM   21  O5  UNL     1      21.415  51.627 -51.999  1.00  0.00    -0.617 OA
HETATM   22  O6  UNL     1      19.191  51.156 -53.744  1.00  0.00    -0.617 OA
ENDBRANCH  18  19
ENDBRANCH  17  18
ENDBRANCH   4  17
TORSDOF 5
ENDMDL
