MODEL 4
REMARK VINA RESULT: -7.026281697      2.752      5.660
REMARK  5 active torsions:
REMARK  status: ('A' for Active; 'I' for Inactive)
REMARK    1  A    between atoms: N1_5  and  C4_6 
REMARK    2  A    between atoms: C6_8  and  O2_9 
REMARK    3  A    between atoms: C7_11  and  C8_12 
REMARK    4  A    between atoms: C8_12  and  O3_13 
REMARK    5  A    between atoms: O3_13  and  P1_14 
ROOT
HETATM    1  C4  UNL     1      17.687  46.683 -53.035  1.00  0.00     0.235 C 
HETATM    2  C5  UNL     1      17.912  47.854 -52.108  1.00  0.00     0.088 C 
HETATM    3  C6  UNL     1      18.280  47.098 -50.844  1.00  0.00     0.153 C 
HETATM    4  C7  UNL     1      17.357  45.898 -50.967  1.00  0.00     0.177 C 
HETATM    5  O7  UNL     1      16.964  45.804 -52.273  1.00  0.00    -0.356 OA
ENDROOT
BRANCH   1   6
HETATM    6  N1  UNL     1      17.070  47.043 -54.272  1.00  0.00    -0.282 N 
HETATM    7  C3  UNL     1      16.526  48.269 -54.400  1.00  0.00     0.104 A 
HETATM    8  C2  UNL     1      15.910  48.709 -55.546  1.00  0.00     0.092 A 
HETATM    9  C1  UNL     1      15.859  47.823 -56.616  1.00  0.00     0.250 A 
HETATM   10  O1  UNL     1      15.315  48.151 -57.696  1.00  0.00    -0.268 OA
HETATM   11  N2  UNL     1      16.405  46.595 -56.485  1.00  0.00    -0.275 N 
HETATM   12  C9  UNL     1      16.991  46.228 -55.338  1.00  0.00     0.331 A 
ATOM     13  H2  UNL     1      16.371  45.940 -57.266  1.00  0.00     0.173 HD
HETATM   14  O8  UNL     1      17.514  45.074 -55.189  1.00  0.00    -0.246 OA
ENDBRANCH   1   6
BRANCH   3  15
HETATM   15  O2  UNL     1      19.619  46.737 -50.965  1.00  0.00    -0.393 OA
ATOM     16  H2  UNL     1      19.684  45.825 -50.706  1.00  0.00     0.210 HD
ENDBRANCH   3  15
BRANCH   4  17
HETATM   17  C8  UNL     1      16.159  46.161 -50.110  1.00  0.00     0.217 C 
BRANCH  17  18
HETATM   18  O3  UNL     1      15.023  45.514 -50.522  1.00  0.00    -0.280 OA
BRANCH  18  19
HETATM   19  P1  UNL     1      13.585  46.109 -50.206  1.00  0.00     0.422 P 
HETATM   20  O4  UNL     1      13.003  45.969 -51.618  1.00  0.00    -0.617 OA
HETATM   21  O5  UNL     1      13.278  47.740 -50.223  1.00  0.00    -0.617 OA
HETATM   22  O6  UNL     1      12.306  45.104 -49.657  1.00  0.00    -0.617 OA
ENDBRANCH  18  19
ENDBRANCH  17  18
ENDBRANCH   4  17
TORSDOF 5
ENDMDL
