MODEL 6
REMARK VINA RESULT: -6.902808334      3.018      5.909
REMARK  5 active torsions:
REMARK  status: ('A' for Active; 'I' for Inactive)
REMARK    1  A    between atoms: N1_5  and  C4_6 
REMARK    2  A    between atoms: C6_8  and  O2_9 
REMARK    3  A    between atoms: C7_11  and  C8_12 
REMARK    4  A    between atoms: C8_12  and  O3_13 
REMARK    5  A    between atoms: O3_13  and  P1_14 
ROOT
HETATM    1  C4  UNL     1      16.362  45.975 -52.404  1.00  0.00     0.235 C 
HETATM    2  C5  UNL     1      17.404  46.500 -51.446  1.00  0.00     0.088 C 
HETATM    3  C6  UNL     1      16.893  45.875 -50.161  1.00  0.00     0.153 C 
HETATM    4  C7  UNL     1      15.394  45.975 -50.388  1.00  0.00     0.177 C 
HETATM    5  O7  UNL     1      15.185  46.152 -51.727  1.00  0.00    -0.356 OA
ENDROOT
BRANCH   1   6
HETATM    6  N1  UNL     1      16.404  46.592 -53.691  1.00  0.00    -0.282 N 
HETATM    7  C3  UNL     1      16.932  47.827 -53.807  1.00  0.00     0.104 A 
HETATM    8  C2  UNL     1      17.018  48.505 -54.998  1.00  0.00     0.092 A 
HETATM    9  C1  UNL     1      16.528  47.861 -56.129  1.00  0.00     0.250 A 
HETATM   10  O1  UNL     1      16.571  48.414 -57.253  1.00  0.00    -0.268 OA
HETATM   11  N2  UNL     1      16.000  46.624 -56.009  1.00  0.00    -0.275 N 
HETATM   12  C9  UNL     1      15.946  46.018 -54.817  1.00  0.00     0.331 A 
ATOM     13  H2  UNL     1      15.638  46.146 -56.834  1.00  0.00     0.173 HD
HETATM   14  O8  UNL     1      15.453  44.850 -54.677  1.00  0.00    -0.246 OA
ENDBRANCH   1   6
BRANCH   3  15
HETATM   15  O2  UNL     1      17.329  44.552 -50.154  1.00  0.00    -0.393 OA
ATOM     16  H2  UNL     1      17.046  44.163 -50.973  1.00  0.00     0.210 HD
ENDBRANCH   3  15
BRANCH   4  17
HETATM   17  C8  UNL     1      14.906  47.181 -49.649  1.00  0.00     0.217 C 
BRANCH  17  18
HETATM   18  O3  UNL     1      13.882  47.844 -50.275  1.00  0.00    -0.280 OA
BRANCH  18  19
HETATM   19  P1  UNL     1      13.222  49.130 -49.618  1.00  0.00     0.422 P 
HETATM   20  O4  UNL     1      13.881  50.173 -50.529  1.00  0.00    -0.617 OA
HETATM   21  O5  UNL     1      13.866  49.871 -48.279  1.00  0.00    -0.617 OA
HETATM   22  O6  UNL     1      11.704  49.725 -50.154  1.00  0.00    -0.617 OA
ENDBRANCH  18  19
ENDBRANCH  17  18
ENDBRANCH   4  17
TORSDOF 5
ENDMDL
