MODEL 6
REMARK VINA RESULT: -7.054639198      1.535      1.700
REMARK  5 active torsions:
REMARK  status: ('A' for Active; 'I' for Inactive)
REMARK    1  A    between atoms: N1_5  and  C4_6 
REMARK    2  A    between atoms: C6_8  and  O2_9 
REMARK    3  A    between atoms: C7_11  and  C8_12 
REMARK    4  A    between atoms: C8_12  and  O3_13 
REMARK    5  A    between atoms: O3_13  and  P1_14 
ROOT
HETATM    1  C4  UNL     1      18.738  47.078 -53.553  1.00  0.00     0.235 C 
HETATM    2  C5  UNL     1      17.355  46.527 -53.303  1.00  0.00     0.088 C 
HETATM    3  C6  UNL     1      17.018  46.064 -54.709  1.00  0.00     0.153 C 
HETATM    4  C7  UNL     1      17.682  47.162 -55.522  1.00  0.00     0.177 C 
HETATM    5  O7  UNL     1      18.598  47.782 -54.719  1.00  0.00    -0.356 OA
ENDROOT
BRANCH   1   6
HETATM    6  N1  UNL     1      19.257  47.838 -52.461  1.00  0.00    -0.282 N 
HETATM    7  C3  UNL     1      18.872  49.121 -52.315  1.00  0.00     0.104 A 
HETATM    8  C2  UNL     1      19.314  49.934 -51.300  1.00  0.00     0.092 A 
HETATM    9  C1  UNL     1      20.206  49.380 -50.388  1.00  0.00     0.250 A 
HETATM   10  O1  UNL     1      20.654  50.057 -49.434  1.00  0.00    -0.268 OA
HETATM   11  N2  UNL     1      20.590  48.093 -50.537  1.00  0.00    -0.275 N 
HETATM   12  C9  UNL     1      20.120  47.355 -51.550  1.00  0.00     0.331 A 
ATOM     13  H2  UNL     1      21.243  47.680 -49.873  1.00  0.00     0.173 HD
HETATM   14  O8  UNL     1      20.467  46.138 -51.713  1.00  0.00    -0.246 OA
ENDBRANCH   1   6
BRANCH   3  15
HETATM   15  O2  UNL     1      17.644  44.833 -54.890  1.00  0.00    -0.393 OA
ATOM     16  H2  UNL     1      18.129  44.651 -54.094  1.00  0.00     0.210 HD
ENDBRANCH   3  15
BRANCH   4  17
HETATM   17  C8  UNL     1      16.620  48.143 -55.907  1.00  0.00     0.217 C 
BRANCH  17  18
HETATM   18  O3  UNL     1      16.905  48.861 -57.039  1.00  0.00    -0.280 OA
BRANCH  18  19
HETATM   19  P1  UNL     1      15.753  49.589 -57.854  1.00  0.00     0.422 P 
HETATM   20  O4  UNL     1      14.572  49.069 -57.025  1.00  0.00    -0.617 OA
HETATM   21  O5  UNL     1      15.094  48.936 -59.231  1.00  0.00    -0.617 OA
HETATM   22  O6  UNL     1      15.244  51.178 -57.451  1.00  0.00    -0.617 OA
ENDBRANCH  18  19
ENDBRANCH  17  18
ENDBRANCH   4  17
TORSDOF 5
ENDMDL
