MODEL 1
REMARK VINA RESULT: -7.427897748      0.000      0.000
REMARK  5 active torsions:
REMARK  status: ('A' for Active; 'I' for Inactive)
REMARK    1  A    between atoms: N1_5  and  C4_6 
REMARK    2  A    between atoms: C6_8  and  O2_9 
REMARK    3  A    between atoms: C7_11  and  C8_12 
REMARK    4  A    between atoms: C8_12  and  O3_13 
REMARK    5  A    between atoms: O3_13  and  P1_14 
ROOT
HETATM    1  C4  UNL     1      18.769  46.722 -54.148  1.00  0.00     0.235 C 
HETATM    2  C5  UNL     1      17.477  46.736 -53.369  1.00  0.00     0.088 C 
HETATM    3  C6  UNL     1      16.549  46.160 -54.424  1.00  0.00     0.153 C 
HETATM    4  C7  UNL     1      17.137  46.791 -55.675  1.00  0.00     0.177 C 
HETATM    5  O7  UNL     1      18.407  47.199 -55.380  1.00  0.00    -0.356 OA
ENDROOT
BRANCH   1   6
HETATM    6  N1  UNL     1      19.825  47.449 -53.519  1.00  0.00    -0.282 N 
HETATM    7  C3  UNL     1      19.610  47.998 -52.307  1.00  0.00     0.104 A 
HETATM    8  C2  UNL     1      20.559  48.715 -51.619  1.00  0.00     0.092 A 
HETATM    9  C1  UNL     1      21.799  48.868 -52.229  1.00  0.00     0.250 A 
HETATM   10  O1  UNL     1      22.718  49.507 -51.665  1.00  0.00    -0.268 OA
HETATM   11  N2  UNL     1      22.012  48.316 -53.443  1.00  0.00    -0.275 N 
HETATM   12  C9  UNL     1      21.043  47.629 -54.059  1.00  0.00     0.331 A 
ATOM     13  H2  UNL     1      22.919  48.425 -53.895  1.00  0.00     0.173 HD
HETATM   14  O8  UNL     1      21.219  47.098 -55.206  1.00  0.00    -0.246 OA
ENDBRANCH   1   6
BRANCH   3  15
HETATM   15  O2  UNL     1      16.725  44.779 -54.407  1.00  0.00    -0.393 OA
ATOM     16  H2  UNL     1      16.267  44.451 -53.642  1.00  0.00     0.210 HD
ENDBRANCH   3  15
BRANCH   4  17
HETATM   17  C8  UNL     1      16.301  47.985 -56.013  1.00  0.00     0.217 C 
BRANCH  17  18
HETATM   18  O3  UNL     1      16.837  48.785 -56.989  1.00  0.00    -0.280 OA
BRANCH  18  19
HETATM   19  P1  UNL     1      15.902  49.588 -57.989  1.00  0.00     0.422 P 
HETATM   20  O4  UNL     1      14.570  48.966 -57.550  1.00  0.00    -0.617 OA
HETATM   21  O5  UNL     1      15.638  49.089 -59.550  1.00  0.00    -0.617 OA
HETATM   22  O6  UNL     1      15.246  51.116 -57.562  1.00  0.00    -0.617 OA
ENDBRANCH  18  19
ENDBRANCH  17  18
ENDBRANCH   4  17
TORSDOF 5
ENDMDL
