MODEL 4
REMARK VINA RESULT: -7.172115919      9.263     10.539
REMARK  5 active torsions:
REMARK  status: ('A' for Active; 'I' for Inactive)
REMARK    1  A    between atoms: N1_5  and  C4_6 
REMARK    2  A    between atoms: C6_8  and  O2_9 
REMARK    3  A    between atoms: C7_11  and  C8_12 
REMARK    4  A    between atoms: C8_12  and  O3_13 
REMARK    5  A    between atoms: O3_13  and  P1_14 
ROOT
HETATM    1  C4  UNL     1      13.781  49.031 -46.225  1.00  0.00     0.235 C 
HETATM    2  C5  UNL     1      14.221  48.217 -47.418  1.00  0.00     0.088 C 
HETATM    3  C6  UNL     1      15.584  48.844 -47.652  1.00  0.00     0.153 C 
HETATM    4  C7  UNL     1      15.281  50.291 -47.304  1.00  0.00     0.177 C 
HETATM    5  O7  UNL     1      14.134  50.311 -46.560  1.00  0.00    -0.356 OA
ENDROOT
BRANCH   1   6
HETATM    6  N1  UNL     1      12.401  48.864 -45.895  1.00  0.00    -0.282 N 
HETATM    7  C3  UNL     1      11.522  49.819 -46.256  1.00  0.00     0.104 A 
HETATM    8  C2  UNL     1      10.177  49.751 -45.987  1.00  0.00     0.092 A 
HETATM    9  C1  UNL     1       9.724  48.628 -45.303  1.00  0.00     0.250 A 
HETATM   10  O1  UNL     1       8.511  48.492 -45.020  1.00  0.00    -0.268 OA
HETATM   11  N2  UNL     1      10.608  47.672 -44.943  1.00  0.00    -0.275 N 
HETATM   12  C9  UNL     1      11.908  47.800 -45.238  1.00  0.00     0.331 A 
ATOM     13  H2  UNL     1      10.283  46.846 -44.442  1.00  0.00     0.173 HD
HETATM   14  O8  UNL     1      12.763  46.912 -44.909  1.00  0.00    -0.246 OA
ENDBRANCH   1   6
BRANCH   3  15
HETATM   15  O2  UNL     1      16.458  48.262 -46.737  1.00  0.00    -0.393 OA
ATOM     16  H2  UNL     1      16.043  47.467 -46.425  1.00  0.00     0.210 HD
ENDBRANCH   3  15
BRANCH   4  17
HETATM   17  C8  UNL     1      15.049  51.025 -48.587  1.00  0.00     0.217 C 
BRANCH  17  18
HETATM   18  O3  UNL     1      13.726  51.196 -48.902  1.00  0.00    -0.280 OA
BRANCH  18  19
HETATM   19  P1  UNL     1      13.111  50.548 -50.215  1.00  0.00     0.422 P 
HETATM   20  O4  UNL     1      11.812  50.031 -49.585  1.00  0.00    -0.617 OA
HETATM   21  O5  UNL     1      13.500  49.012 -50.711  1.00  0.00    -0.617 OA
HETATM   22  O6  UNL     1      12.138  51.467 -51.290  1.00  0.00    -0.617 OA
ENDBRANCH  18  19
ENDBRANCH  17  18
ENDBRANCH   4  17
TORSDOF 5
ENDMDL
