MODEL 2
REMARK VINA RESULT: -7.362046826      3.378      4.894
REMARK  5 active torsions:
REMARK  status: ('A' for Active; 'I' for Inactive)
REMARK    1  A    between atoms: N1_5  and  C4_6 
REMARK    2  A    between atoms: C6_8  and  O2_9 
REMARK    3  A    between atoms: C7_11  and  C8_12 
REMARK    4  A    between atoms: C8_12  and  O3_13 
REMARK    5  A    between atoms: O3_13  and  P1_14 
ROOT
HETATM    1  C4  UNL     1      16.313  46.214 -52.880  1.00  0.00     0.235 C 
HETATM    2  C5  UNL     1      15.598  45.692 -54.103  1.00  0.00     0.088 C 
HETATM    3  C6  UNL     1      16.601  46.099 -55.166  1.00  0.00     0.153 C 
HETATM    4  C7  UNL     1      17.074  47.426 -54.598  1.00  0.00     0.177 C 
HETATM    5  O7  UNL     1      16.754  47.451 -53.270  1.00  0.00    -0.356 OA
ENDROOT
BRANCH   1   6
HETATM    6  N1  UNL     1      15.505  46.217 -51.702  1.00  0.00    -0.282 N 
HETATM    7  C3  UNL     1      14.165  46.277 -51.828  1.00  0.00     0.104 A 
HETATM    8  C2  UNL     1      13.302  46.284 -50.759  1.00  0.00     0.092 A 
HETATM    9  C1  UNL     1      13.868  46.228 -49.490  1.00  0.00     0.250 A 
HETATM   10  O1  UNL     1      13.149  46.230 -48.464  1.00  0.00    -0.268 OA
HETATM   11  N2  UNL     1      15.212  46.168 -49.367  1.00  0.00    -0.275 N 
HETATM   12  C9  UNL     1      15.996  46.164 -50.452  1.00  0.00     0.331 A 
ATOM     13  H2  UNL     1      15.634  46.126 -48.440  1.00  0.00     0.173 HD
HETATM   14  O8  UNL     1      17.268  46.108 -50.363  1.00  0.00    -0.246 OA
ENDBRANCH   1   6
BRANCH   3  15
HETATM   15  O2  UNL     1      17.612  45.141 -55.157  1.00  0.00    -0.393 OA
ATOM     16  H2  UNL     1      18.034  45.176 -56.007  1.00  0.00     0.210 HD
ENDBRANCH   3  15
BRANCH   4  17
HETATM   17  C8  UNL     1      16.326  48.512 -55.305  1.00  0.00     0.217 C 
BRANCH  17  18
HETATM   18  O3  UNL     1      16.856  48.856 -56.522  1.00  0.00    -0.280 OA
BRANCH  18  19
HETATM   19  P1  UNL     1      15.958  49.540 -57.638  1.00  0.00     0.422 P 
HETATM   20  O4  UNL     1      14.614  48.953 -57.192  1.00  0.00    -0.617 OA
HETATM   21  O5  UNL     1      15.764  48.879 -59.148  1.00  0.00    -0.617 OA
HETATM   22  O6  UNL     1      15.275  51.097 -57.400  1.00  0.00    -0.617 OA
ENDBRANCH  18  19
ENDBRANCH  17  18
ENDBRANCH   4  17
TORSDOF 5
ENDMDL
