MODEL 2
REMARK VINA RESULT: -8.563338785      1.973     10.288
REMARK  13 active torsions:
REMARK  status: ('A' for Active; 'I' for Inactive)
REMARK    1  A    between atoms: N5_13  and  C6_14 
REMARK    2  A    between atoms: C7_16  and  C8_17 
REMARK    3  A    between atoms: C8_17  and  O2_18 
REMARK    4  A    between atoms: O2_18  and  P1_19 
REMARK    5  A    between atoms: P1_19  and  O5_22 
REMARK    6  A    between atoms: O5_22  and  P2_23 
REMARK    7  A    between atoms: P2_23  and  O8_26 
REMARK    8  A    between atoms: O8_26  and  C9_27 
REMARK    9  A    between atoms: C11_29  and  N6_30 
REMARK   10  A    between atoms: C16_40  and  C17_41 
REMARK   11  A    between atoms: C17_41  and  O12_42 
REMARK   12  A    between atoms: C18_44  and  O13_45 
REMARK   13  A    between atoms: C19_47  and  O14_48 
ROOT
HETATM    1  P1  UNL     1      36.980  -2.321  23.616  1.00  0.00     0.417 P 
HETATM    2  O3  UNL     1      36.500  -3.155  24.981  1.00  0.00    -0.624 OA
HETATM    3  O4  UNL     1      36.089  -2.474  22.215  1.00  0.00    -0.624 OA
ENDROOT
BRANCH   1   4
HETATM    4  O2  UNL     1      38.181  -1.243  23.708  1.00  0.00    -0.287 OA
BRANCH   4   5
HETATM    5  C8  UNL     1      38.736  -0.856  22.519  1.00  0.00     0.216 C 
BRANCH   5   6
HETATM    6  C7  UNL     1      38.270   0.496  22.050  1.00  0.00     0.180 C 
HETATM    7  O1  UNL     1      37.195   0.999  22.767  1.00  0.00    -0.353 OA
HETATM    8  C6  UNL     1      37.286   2.387  22.545  1.00  0.00     0.262 C 
HETATM    9  C19 UNL     1      38.740   2.603  22.987  1.00  0.00     0.198 C 
HETATM   10  C18 UNL     1      39.413   1.467  22.236  1.00  0.00     0.182 C 
BRANCH   8  11
HETATM   11  N5  UNL     1      36.355   3.151  23.310  1.00  0.00    -0.297 N 
HETATM   12  C3  UNL     1      35.969   4.412  22.961  1.00  0.00     0.142 A 
HETATM   13  N3  UNL     1      36.314   5.202  21.917  1.00  0.00    -0.336 N 
HETATM   14  C4  UNL     1      35.076   4.898  23.875  1.00  0.00     0.119 A 
HETATM   15  C2  UNL     1      35.800   6.438  21.764  1.00  0.00     0.183 A 
ATOM     16  H3  UNL     1      36.980   4.852  21.229  1.00  0.00     0.168 HD
HETATM   17  N2  UNL     1      34.920   6.924  22.658  1.00  0.00    -0.339 N 
HETATM   18  C1  UNL     1      34.555   6.178  23.699  1.00  0.00     0.148 A 
ATOM     19  H2  UNL     1      34.532   7.859  22.539  1.00  0.00     0.167 HD
HETATM   20  N1  UNL     1      33.637   6.661  24.649  1.00  0.00    -0.080 NA
HETATM   21  N4  UNL     1      34.919   3.921  24.785  1.00  0.00    -0.346 N 
HETATM   22  C5  UNL     1      35.695   2.871  24.437  1.00  0.00     0.188 A 
ATOM     23  H4  UNL     1      34.314   3.965  25.605  1.00  0.00     0.167 HD
ENDBRANCH   8  11
BRANCH   9  24
HETATM   24  O14 UNL     1      39.200   3.841  22.610  1.00  0.00    -0.388 OA
ATOM     25  H14 UNL     1      40.098   3.977  22.888  1.00  0.00     0.210 HD
ENDBRANCH   9  24
BRANCH  10  26
HETATM   26  O13 UNL     1      39.782   1.936  20.976  1.00  0.00    -0.390 OA
ATOM     27  H13 UNL     1      40.494   1.391  20.662  1.00  0.00     0.210 HD
ENDBRANCH  10  26
ENDBRANCH   5   6
ENDBRANCH   4   5
ENDBRANCH   1   4
BRANCH   1  28
HETATM   28  O5  UNL     1      37.913  -3.463  23.243  1.00  0.00    -0.180 OA
BRANCH  28  29
HETATM   29  P2  UNL     1      37.386  -4.789  22.389  1.00  0.00     0.418 P 
HETATM   30  O6  UNL     1      38.158  -5.705  23.342  1.00  0.00    -0.624 OA
HETATM   31  O7  UNL     1      35.917  -5.375  22.772  1.00  0.00    -0.624 OA
BRANCH  29  32
HETATM   32  O8  UNL     1      38.255  -5.324  21.094  1.00  0.00    -0.281 OA
BRANCH  32  33
HETATM   33  C9  UNL     1      37.559  -5.907  20.085  1.00  0.00     0.169 C 
HETATM   34  C10 UNL     1      38.045  -5.262  18.775  1.00  0.00     0.089 C 
HETATM   35  C11 UNL     1      38.208  -6.473  17.888  1.00  0.00     0.235 C 
HETATM   36  O11 UNL     1      37.690  -7.564  18.567  1.00  0.00    -0.356 OA
HETATM   37  C16 UNL     1      38.068  -7.315  19.884  1.00  0.00     0.177 C 
BRANCH  35  38
HETATM   38  N6  UNL     1      37.480  -6.294  16.628  1.00  0.00    -0.282 N 
HETATM   39  C12 UNL     1      36.156  -6.468  16.561  1.00  0.00     0.104 A 
HETATM   40  C13 UNL     1      35.482  -6.293  15.366  1.00  0.00     0.092 A 
HETATM   41  C14 UNL     1      36.176  -5.938  14.232  1.00  0.00     0.250 A 
HETATM   42  O9  UNL     1      35.541  -5.785  13.153  1.00  0.00    -0.268 OA
HETATM   43  N7  UNL     1      37.507  -5.770  14.328  1.00  0.00    -0.275 N 
HETATM   44  C15 UNL     1      38.141  -5.950  15.524  1.00  0.00     0.331 A 
ATOM     45  H7  UNL     1      38.046  -5.506  13.503  1.00  0.00     0.173 HD
HETATM   46  O10 UNL     1      39.388  -5.782  15.570  1.00  0.00    -0.246 OA
ENDBRANCH  35  38
BRANCH  37  47
HETATM   47  C17 UNL     1      37.398  -8.269  20.848  1.00  0.00     0.198 C 
BRANCH  47  48
HETATM   48  O12 UNL     1      36.125  -7.766  21.127  1.00  0.00    -0.398 OA
ATOM     49  H12 UNL     1      36.079  -7.600  22.061  1.00  0.00     0.209 HD
ENDBRANCH  47  48
ENDBRANCH  37  47
ENDBRANCH  32  33
ENDBRANCH  29  32
ENDBRANCH  28  29
ENDBRANCH   1  28
TORSDOF 13
ENDMDL
