MODEL 1
REMARK VINA RESULT: -8.716954034      0.000      0.000
REMARK  13 active torsions:
REMARK  status: ('A' for Active; 'I' for Inactive)
REMARK    1  A    between atoms: N5_13  and  C6_14 
REMARK    2  A    between atoms: C7_16  and  C8_17 
REMARK    3  A    between atoms: C8_17  and  O2_18 
REMARK    4  A    between atoms: O2_18  and  P1_19 
REMARK    5  A    between atoms: P1_19  and  O5_22 
REMARK    6  A    between atoms: O5_22  and  P2_23 
REMARK    7  A    between atoms: P2_23  and  O8_26 
REMARK    8  A    between atoms: O8_26  and  C9_27 
REMARK    9  A    between atoms: C11_29  and  N6_30 
REMARK   10  A    between atoms: C16_40  and  C17_41 
REMARK   11  A    between atoms: C17_41  and  O12_42 
REMARK   12  A    between atoms: C18_44  and  O13_45 
REMARK   13  A    between atoms: C19_47  and  O14_48 
ROOT
HETATM    1  P1  UNL     1      38.062  -4.924  21.335  1.00  0.00     0.417 P 
HETATM    2  O3  UNL     1      38.678  -4.624  22.858  1.00  0.00    -0.624 OA
HETATM    3  O4  UNL     1      38.753  -4.171  20.017  1.00  0.00    -0.624 OA
ENDROOT
BRANCH   1   4
HETATM    4  O2  UNL     1      36.937  -6.066  21.129  1.00  0.00    -0.287 OA
BRANCH   4   5
HETATM    5  C8  UNL     1      37.390  -7.294  20.731  1.00  0.00     0.216 C 
BRANCH   5   6
HETATM    6  C7  UNL     1      36.866  -7.722  19.388  1.00  0.00     0.180 C 
HETATM    7  O1  UNL     1      36.401  -6.676  18.607  1.00  0.00    -0.353 OA
HETATM    8  C6  UNL     1      36.478  -7.195  17.299  1.00  0.00     0.262 C 
HETATM    9  C19 UNL     1      37.952  -7.624  17.302  1.00  0.00     0.198 C 
HETATM   10  C18 UNL     1      38.007  -8.360  18.630  1.00  0.00     0.182 C 
BRANCH   8  11
HETATM   11  N5  UNL     1      36.183  -6.236  16.285  1.00  0.00    -0.297 N 
HETATM   12  C3  UNL     1      36.813  -5.029  16.203  1.00  0.00     0.142 A 
HETATM   13  N3  UNL     1      37.780  -4.464  16.964  1.00  0.00    -0.336 N 
HETATM   14  C4  UNL     1      36.328  -4.320  15.139  1.00  0.00     0.119 A 
HETATM   15  C2  UNL     1      38.266  -3.237  16.696  1.00  0.00     0.183 A 
ATOM     16  H3  UNL     1      38.150  -4.982  17.760  1.00  0.00     0.168 HD
HETATM   17  N2  UNL     1      37.795  -2.533  15.650  1.00  0.00    -0.339 N 
HETATM   18  C1  UNL     1      36.844  -3.053  14.878  1.00  0.00     0.148 A 
ATOM     19  H2  UNL     1      38.165  -1.604  15.450  1.00  0.00     0.167 HD
HETATM   20  N1  UNL     1      36.333  -2.338  13.779  1.00  0.00    -0.080 NA
HETATM   21  N4  UNL     1      35.396  -5.106  14.573  1.00  0.00    -0.346 N 
HETATM   22  C5  UNL     1      35.315  -6.260  15.270  1.00  0.00     0.188 A 
ATOM     23  H4  UNL     1      34.841  -4.870  13.750  1.00  0.00     0.167 HD
ENDBRANCH   8  11
BRANCH   9  24
HETATM   24  O14 UNL     1      38.242  -8.432  16.230  1.00  0.00    -0.388 OA
ATOM     25  H14 UNL     1      38.913  -9.068  16.446  1.00  0.00     0.210 HD
ENDBRANCH   9  24
BRANCH  10  26
HETATM   26  O13 UNL     1      37.674  -9.694  18.403  1.00  0.00    -0.390 OA
ATOM     27  H13 UNL     1      37.392  -9.772  17.499  1.00  0.00     0.210 HD
ENDBRANCH  10  26
ENDBRANCH   5   6
ENDBRANCH   4   5
ENDBRANCH   1   4
BRANCH   1  28
HETATM   28  O5  UNL     1      37.035  -3.819  21.530  1.00  0.00    -0.180 OA
BRANCH  28  29
HETATM   29  P2  UNL     1      36.454  -3.412  23.034  1.00  0.00     0.418 P 
HETATM   30  O6  UNL     1      35.388  -2.529  22.379  1.00  0.00    -0.624 OA
HETATM   31  O7  UNL     1      35.397  -4.442  23.719  1.00  0.00    -0.624 OA
BRANCH  29  32
HETATM   32  O8  UNL     1      37.097  -2.122  23.836  1.00  0.00    -0.281 OA
BRANCH  32  33
HETATM   33  C9  UNL     1      37.034  -0.918  23.212  1.00  0.00     0.169 C 
HETATM   34  C10 UNL     1      36.491   0.090  24.240  1.00  0.00     0.089 C 
HETATM   35  C11 UNL     1      37.418   1.263  24.026  1.00  0.00     0.235 C 
HETATM   36  O11 UNL     1      38.196   0.987  22.915  1.00  0.00    -0.356 OA
HETATM   37  C16 UNL     1      38.435  -0.380  23.038  1.00  0.00     0.177 C 
BRANCH  35  38
HETATM   38  N6  UNL     1      36.653   2.492  23.790  1.00  0.00    -0.282 N 
HETATM   39  C12 UNL     1      36.912   3.281  22.742  1.00  0.00     0.104 A 
HETATM   40  C13 UNL     1      36.181   4.435  22.531  1.00  0.00     0.092 A 
HETATM   41  C14 UNL     1      35.177   4.781  23.405  1.00  0.00     0.250 A 
HETATM   42  O9  UNL     1      34.523   5.839  23.193  1.00  0.00    -0.268 OA
HETATM   43  N7  UNL     1      34.937   3.969  24.451  1.00  0.00    -0.275 N 
HETATM   44  C15 UNL     1      35.678   2.836  24.629  1.00  0.00     0.331 A 
ATOM     45  H7  UNL     1      34.197   4.201  25.114  1.00  0.00     0.173 HD
HETATM   46  O10 UNL     1      35.419   2.105  25.621  1.00  0.00    -0.246 OA
ENDBRANCH  35  38
BRANCH  37  47
HETATM   47  C17 UNL     1      39.076  -0.951  21.793  1.00  0.00     0.198 C 
BRANCH  47  48
HETATM   48  O12 UNL     1      39.743  -2.122  22.158  1.00  0.00    -0.398 OA
ATOM     49  H12 UNL     1      39.357  -2.434  22.968  1.00  0.00     0.209 HD
ENDBRANCH  47  48
ENDBRANCH  37  47
ENDBRANCH  32  33
ENDBRANCH  29  32
ENDBRANCH  28  29
ENDBRANCH   1  28
TORSDOF 13
ENDMDL
