MODEL 4
REMARK VINA RESULT: -8.402219827      2.696     11.281
REMARK  13 active torsions:
REMARK  status: ('A' for Active; 'I' for Inactive)
REMARK    1  A    between atoms: N5_13  and  C6_14 
REMARK    2  A    between atoms: C7_16  and  C8_17 
REMARK    3  A    between atoms: C8_17  and  O2_18 
REMARK    4  A    between atoms: O2_18  and  P1_19 
REMARK    5  A    between atoms: P1_19  and  O5_22 
REMARK    6  A    between atoms: O5_22  and  P2_23 
REMARK    7  A    between atoms: P2_23  and  O8_26 
REMARK    8  A    between atoms: O8_26  and  C9_27 
REMARK    9  A    between atoms: C11_29  and  N6_30 
REMARK   10  A    between atoms: C16_40  and  C17_41 
REMARK   11  A    between atoms: C17_41  and  O12_42 
REMARK   12  A    between atoms: C18_44  and  O13_45 
REMARK   13  A    between atoms: C19_47  and  O14_48 
ROOT
HETATM    1  P1  UNL     1      38.263  -0.371  23.201  1.00  0.00     0.417 P 
HETATM    2  O3  UNL     1      38.540  -1.274  21.823  1.00  0.00    -0.624 OA
HETATM    3  O4  UNL     1      39.462  -0.261  24.355  1.00  0.00    -0.624 OA
ENDROOT
BRANCH   1   4
HETATM    4  O2  UNL     1      36.925   0.527  23.323  1.00  0.00    -0.287 OA
BRANCH   4   5
HETATM    5  C8  UNL     1      37.084   1.775  23.862  1.00  0.00     0.216 C 
BRANCH   5   6
HETATM    6  C7  UNL     1      36.468   2.870  23.033  1.00  0.00     0.180 C 
HETATM    7  O1  UNL     1      35.653   3.729  23.755  1.00  0.00    -0.353 OA
HETATM    8  C6  UNL     1      35.641   4.896  22.965  1.00  0.00     0.262 C 
HETATM    9  C19 UNL     1      37.156   5.112  22.841  1.00  0.00     0.198 C 
HETATM   10  C18 UNL     1      37.592   3.706  22.466  1.00  0.00     0.182 C 
BRANCH   8  11
HETATM   11  N5  UNL     1      34.973   5.996  23.579  1.00  0.00    -0.297 N 
HETATM   12  C3  UNL     1      34.675   7.147  22.911  1.00  0.00     0.142 A 
HETATM   13  N3  UNL     1      34.898   7.528  21.631  1.00  0.00    -0.336 N 
HETATM   14  C4  UNL     1      34.039   8.022  23.747  1.00  0.00     0.119 A 
HETATM   15  C2  UNL     1      34.511   8.734  21.173  1.00  0.00     0.183 A 
ATOM     16  H3  UNL     1      35.372   6.885  20.997  1.00  0.00     0.168 HD
HETATM   17  N2  UNL     1      33.884   9.602  21.989  1.00  0.00    -0.339 N 
HETATM   18  C1  UNL     1      33.646   9.265  23.254  1.00  0.00     0.148 A 
ATOM     19  H2  UNL     1      33.591  10.514  21.639  1.00  0.00     0.167 HD
HETATM   20  N1  UNL     1      32.993  10.152  24.129  1.00  0.00    -0.080 NA
HETATM   21  N4  UNL     1      33.952   7.395  24.932  1.00  0.00    -0.346 N 
HETATM   22  C5  UNL     1      34.518   6.172  24.823  1.00  0.00     0.188 A 
ATOM     23  H4  UNL     1      33.528   7.778  25.777  1.00  0.00     0.167 HD
ENDBRANCH   8  11
BRANCH   9  24
HETATM   24  O14 UNL     1      37.453   6.040  21.873  1.00  0.00    -0.388 OA
ATOM     25  H14 UNL     1      37.063   6.884  22.070  1.00  0.00     0.210 HD
ENDBRANCH   9  24
BRANCH  10  26
HETATM   26  O13 UNL     1      37.548   3.592  21.078  1.00  0.00    -0.390 OA
ATOM     27  H13 UNL     1      36.951   4.255  20.751  1.00  0.00     0.210 HD
ENDBRANCH  10  26
ENDBRANCH   5   6
ENDBRANCH   4   5
ENDBRANCH   1   4
BRANCH   1  28
HETATM   28  O5  UNL     1      37.621  -1.579  23.866  1.00  0.00    -0.180 OA
BRANCH  28  29
HETATM   29  P2  UNL     1      36.801  -2.733  22.993  1.00  0.00     0.418 P 
HETATM   30  O6  UNL     1      36.271  -3.337  24.297  1.00  0.00    -0.624 OA
HETATM   31  O7  UNL     1      35.338  -2.316  22.414  1.00  0.00    -0.624 OA
BRANCH  29  32
HETATM   32  O8  UNL     1      37.556  -4.143  22.592  1.00  0.00    -0.281 OA
BRANCH  32  33
HETATM   33  C9  UNL     1      36.978  -4.895  21.621  1.00  0.00     0.169 C 
HETATM   34  C10 UNL     1      38.032  -5.087  20.517  1.00  0.00     0.089 C 
HETATM   35  C11 UNL     1      37.882  -6.559  20.214  1.00  0.00     0.235 C 
HETATM   36  O11 UNL     1      36.777  -7.020  20.909  1.00  0.00    -0.356 OA
HETATM   37  C16 UNL     1      36.852  -6.319  22.109  1.00  0.00     0.177 C 
BRANCH  35  38
HETATM   38  N6  UNL     1      37.679  -6.774  18.778  1.00  0.00    -0.282 N 
HETATM   39  C12 UNL     1      36.465  -6.671  18.226  1.00  0.00     0.104 A 
HETATM   40  C13 UNL     1      36.289  -6.874  16.869  1.00  0.00     0.092 A 
HETATM   41  C14 UNL     1      37.369  -7.187  16.076  1.00  0.00     0.250 A 
HETATM   42  O9  UNL     1      37.184  -7.368  14.841  1.00  0.00    -0.268 OA
HETATM   43  N7  UNL     1      38.578  -7.283  16.657  1.00  0.00    -0.275 N 
HETATM   44  C15 UNL     1      38.716  -7.076  18.000  1.00  0.00     0.331 A 
ATOM     45  H7  UNL     1      39.395  -7.513  16.092  1.00  0.00     0.173 HD
HETATM   46  O10 UNL     1      39.866  -7.176  18.503  1.00  0.00    -0.246 OA
ENDBRANCH  35  38
BRANCH  37  47
HETATM   47  C17 UNL     1      35.598  -6.491  22.938  1.00  0.00     0.198 C 
BRANCH  47  48
HETATM   48  O12 UNL     1      34.773  -5.391  22.693  1.00  0.00    -0.398 OA
ATOM     49  H12 UNL     1      33.908  -5.721  22.481  1.00  0.00     0.209 HD
ENDBRANCH  47  48
ENDBRANCH  37  47
ENDBRANCH  32  33
ENDBRANCH  29  32
ENDBRANCH  28  29
ENDBRANCH   1  28
TORSDOF 13
ENDMDL
