MODEL 6
REMARK VINA RESULT: -8.321183180      3.028     11.235
REMARK  13 active torsions:
REMARK  status: ('A' for Active; 'I' for Inactive)
REMARK    1  A    between atoms: N5_13  and  C6_14 
REMARK    2  A    between atoms: C7_16  and  C8_17 
REMARK    3  A    between atoms: C8_17  and  O2_18 
REMARK    4  A    between atoms: O2_18  and  P1_19 
REMARK    5  A    between atoms: P1_19  and  O5_22 
REMARK    6  A    between atoms: O5_22  and  P2_23 
REMARK    7  A    between atoms: P2_23  and  O8_26 
REMARK    8  A    between atoms: O8_26  and  C9_27 
REMARK    9  A    between atoms: C11_29  and  N6_30 
REMARK   10  A    between atoms: C16_40  and  C17_41 
REMARK   11  A    between atoms: C17_41  and  O12_42 
REMARK   12  A    between atoms: C18_44  and  O13_45 
REMARK   13  A    between atoms: C19_47  and  O14_48 
ROOT
HETATM    1  P1  UNL     1      38.562   0.431  23.504  1.00  0.00     0.417 P 
HETATM    2  O3  UNL     1      38.406  -0.077  21.920  1.00  0.00    -0.624 OA
HETATM    3  O4  UNL     1      39.631  -0.360  24.509  1.00  0.00    -0.624 OA
ENDROOT
BRANCH   1   4
HETATM    4  O2  UNL     1      37.821   1.781  23.997  1.00  0.00    -0.287 OA
BRANCH   4   5
HETATM    5  C8  UNL     1      36.475   1.850  23.761  1.00  0.00     0.216 C 
BRANCH   5   6
HETATM    6  C7  UNL     1      36.069   3.046  22.944  1.00  0.00     0.180 C 
HETATM    7  O1  UNL     1      35.242   3.932  23.619  1.00  0.00    -0.353 OA
HETATM    8  C6  UNL     1      35.434   5.141  22.921  1.00  0.00     0.262 C 
HETATM    9  C19 UNL     1      36.964   5.222  23.004  1.00  0.00     0.198 C 
HETATM   10  C18 UNL     1      37.324   3.807  22.585  1.00  0.00     0.182 C 
BRANCH   8  11
HETATM   11  N5  UNL     1      34.786   6.259  23.526  1.00  0.00    -0.297 N 
HETATM   12  C3  UNL     1      34.553   7.427  22.861  1.00  0.00     0.142 A 
HETATM   13  N3  UNL     1      34.832   7.812  21.593  1.00  0.00    -0.336 N 
HETATM   14  C4  UNL     1      33.923   8.317  23.686  1.00  0.00     0.119 A 
HETATM   15  C2  UNL     1      34.504   9.037  21.136  1.00  0.00     0.183 A 
ATOM     16  H3  UNL     1      35.302   7.158  20.968  1.00  0.00     0.168 HD
HETATM   17  N2  UNL     1      33.883   9.918  21.941  1.00  0.00    -0.339 N 
HETATM   18  C1  UNL     1      33.592   9.578  23.195  1.00  0.00     0.148 A 
ATOM     19  H2  UNL     1      33.636  10.844  21.593  1.00  0.00     0.167 HD
HETATM   20  N1  UNL     1      32.944  10.481  24.058  1.00  0.00    -0.080 NA
HETATM   21  N4  UNL     1      33.774   7.681  24.860  1.00  0.00    -0.346 N 
HETATM   22  C5  UNL     1      34.298   6.440  24.756  1.00  0.00     0.188 A 
ATOM     23  H4  UNL     1      33.337   8.072  25.695  1.00  0.00     0.167 HD
ENDBRANCH   8  11
BRANCH   9  24
HETATM   24  O14 UNL     1      37.463   6.176  22.151  1.00  0.00    -0.388 OA
ATOM     25  H14 UNL     1      38.123   6.710  22.576  1.00  0.00     0.210 HD
ENDBRANCH   9  24
BRANCH  10  26
HETATM   26  O13 UNL     1      37.453   3.783  21.197  1.00  0.00    -0.390 OA
ATOM     27  H13 UNL     1      38.329   3.477  20.993  1.00  0.00     0.210 HD
ENDBRANCH  10  26
ENDBRANCH   5   6
ENDBRANCH   4   5
ENDBRANCH   1   4
BRANCH   1  28
HETATM   28  O5  UNL     1      37.398  -0.462  23.907  1.00  0.00    -0.180 OA
BRANCH  28  29
HETATM   29  P2  UNL     1      37.144  -1.949  23.205  1.00  0.00     0.418 P 
HETATM   30  O6  UNL     1      36.766  -2.524  24.573  1.00  0.00    -0.624 OA
HETATM   31  O7  UNL     1      35.687  -2.203  22.526  1.00  0.00    -0.624 OA
BRANCH  29  32
HETATM   32  O8  UNL     1      38.401  -3.005  23.056  1.00  0.00    -0.281 OA
BRANCH  32  33
HETATM   33  C9  UNL     1      38.086  -4.307  22.833  1.00  0.00     0.169 C 
HETATM   34  C10 UNL     1      37.851  -4.458  21.320  1.00  0.00     0.089 C 
HETATM   35  C11 UNL     1      38.605  -5.733  21.027  1.00  0.00     0.235 C 
HETATM   36  O11 UNL     1      39.001  -6.275  22.238  1.00  0.00    -0.356 OA
HETATM   37  C16 UNL     1      39.331  -5.148  22.986  1.00  0.00     0.177 C 
BRANCH  35  38
HETATM   38  N6  UNL     1      37.747  -6.691  20.322  1.00  0.00    -0.282 N 
HETATM   39  C12 UNL     1      37.203  -7.734  20.958  1.00  0.00     0.104 A 
HETATM   40  C13 UNL     1      36.395  -8.629  20.282  1.00  0.00     0.092 A 
HETATM   41  C14 UNL     1      36.145  -8.449  18.941  1.00  0.00     0.250 A 
HETATM   42  O9  UNL     1      35.404  -9.278  18.344  1.00  0.00    -0.268 OA
HETATM   43  N7  UNL     1      36.704  -7.392  18.326  1.00  0.00    -0.275 N 
HETATM   44  C15 UNL     1      37.498  -6.528  19.024  1.00  0.00     0.331 A 
ATOM     45  H7  UNL     1      36.535  -7.235  17.333  1.00  0.00     0.173 HD
HETATM   46  O10 UNL     1      38.001  -5.551  18.410  1.00  0.00    -0.246 OA
ENDBRANCH  35  38
BRANCH  37  47
HETATM   47  C17 UNL     1      39.569  -5.492  24.440  1.00  0.00     0.198 C 
BRANCH  47  48
HETATM   48  O12 UNL     1      38.616  -4.810  25.199  1.00  0.00    -0.398 OA
ATOM     49  H12 UNL     1      37.842  -4.698  24.658  1.00  0.00     0.209 HD
ENDBRANCH  47  48
ENDBRANCH  37  47
ENDBRANCH  32  33
ENDBRANCH  29  32
ENDBRANCH  28  29
ENDBRANCH   1  28
TORSDOF 13
ENDMDL
