MODEL 17
REMARK VINA RESULT: -4.969342341      3.191      5.233
REMARK  8 active torsions:
REMARK  status: ('A' for Active; 'I' for Inactive)
REMARK    1  A    between atoms: P1_2  and  O4_5 
REMARK    2  A    between atoms: O4_5  and  C1_6 
REMARK    3  A    between atoms: C2_7  and  O5_8 
REMARK    4  A    between atoms: C3_10  and  O6_11 
REMARK    5  A    between atoms: O6_11  and  P2_12 
REMARK    6  A    between atoms: C4_16  and  O10_17 
REMARK    7  A    between atoms: C5_19  and  O11_20 
REMARK    8  A    between atoms: C6_22  and  O12_23 
ROOT
HETATM    1  C1  UNL     1      29.535  11.124   9.624  1.00  0.00     0.198 C 
HETATM    2  C2  UNL     1      30.454  12.344   9.771  1.00  0.00     0.182 C 
HETATM    3  C3  UNL     1      30.104  13.161  10.965  1.00  0.00     0.198 C 
HETATM    4  C4  UNL     1      29.110  12.491  11.890  1.00  0.00     0.181 C 
HETATM    5  C5  UNL     1      27.842  12.183  11.132  1.00  0.00     0.180 C 
HETATM    6  C6  UNL     1      28.111  11.583   9.792  1.00  0.00     0.181 C 
ENDROOT
BRANCH   1   7
HETATM    7  O4  UNL     1      29.943  10.200  10.538  1.00  0.00    -0.272 OA
BRANCH   7   8
HETATM    8  P1  UNL     1      29.250   8.696  10.404  1.00  0.00     0.422 P 
HETATM    9  O1  UNL     1      28.896   8.339   8.970  1.00  0.00    -0.617 OA
HETATM   10  O2  UNL     1      30.387   7.543  10.916  1.00  0.00    -0.617 OA
HETATM   11  O3  UNL     1      27.895   8.516  11.423  1.00  0.00    -0.617 OA
ENDBRANCH   7   8
ENDBRANCH   1   7
BRANCH   2  12
HETATM   12  O5  UNL     1      31.757  11.832   9.831  1.00  0.00    -0.390 OA
ATOM     13  H5  UNL     1      32.325  12.549   9.575  1.00  0.00     0.210 HD
ENDBRANCH   2  12
BRANCH   6  14
HETATM   14  O12 UNL     1      27.859  12.533   8.801  1.00  0.00    -0.390 OA
ATOM     15  H12 UNL     1      26.927  12.510   8.618  1.00  0.00     0.210 HD
ENDBRANCH   6  14
BRANCH   3  16
HETATM   16  O6  UNL     1      31.267  13.372  11.727  1.00  0.00    -0.272 OA
BRANCH  16  17
HETATM   17  P2  UNL     1      31.925  14.897  11.431  1.00  0.00     0.422 P 
HETATM   18  O7  UNL     1      33.012  14.751  10.388  1.00  0.00    -0.617 OA
HETATM   19  O8  UNL     1      32.681  15.434  12.861  1.00  0.00    -0.617 OA
HETATM   20  O9  UNL     1      30.783  16.002  10.891  1.00  0.00    -0.617 OA
ENDBRANCH  16  17
ENDBRANCH   3  16
BRANCH   5  21
HETATM   21  O11 UNL     1      27.118  13.383  11.058  1.00  0.00    -0.390 OA
ATOM     22  H11 UNL     1      27.559  13.927  10.417  1.00  0.00     0.210 HD
ENDBRANCH   5  21
BRANCH   4  23
HETATM   23  O10 UNL     1      28.813  13.399  12.910  1.00  0.00    -0.390 OA
ATOM     24  H10 UNL     1      28.005  13.111  13.318  1.00  0.00     0.210 HD
ENDBRANCH   4  23
TORSDOF 8
ENDMDL
