MODEL 5
REMARK VINA RESULT: -5.390627309      0.680      1.587
REMARK  8 active torsions:
REMARK  status: ('A' for Active; 'I' for Inactive)
REMARK    1  A    between atoms: P1_2  and  O4_5 
REMARK    2  A    between atoms: O4_5  and  C1_6 
REMARK    3  A    between atoms: C2_7  and  O5_8 
REMARK    4  A    between atoms: C3_10  and  O6_11 
REMARK    5  A    between atoms: O6_11  and  P2_12 
REMARK    6  A    between atoms: C4_16  and  O10_17 
REMARK    7  A    between atoms: C5_19  and  O11_20 
REMARK    8  A    between atoms: C6_22  and  O12_23 
ROOT
HETATM    1  C1  UNL     1      30.458  14.987  11.647  1.00  0.00     0.198 C 
HETATM    2  C2  UNL     1      29.613  16.240  11.378  1.00  0.00     0.182 C 
HETATM    3  C3  UNL     1      30.446  17.383  10.917  1.00  0.00     0.198 C 
HETATM    4  C4  UNL     1      31.872  17.000  10.580  1.00  0.00     0.181 C 
HETATM    5  C5  UNL     1      32.530  16.385  11.791  1.00  0.00     0.180 C 
HETATM    6  C6  UNL     1      31.650  15.392  12.475  1.00  0.00     0.181 C 
ENDROOT
BRANCH   1   7
HETATM    7  O4  UNL     1      30.769  14.444  10.437  1.00  0.00    -0.272 OA
BRANCH   7   8
HETATM    8  P1  UNL     1      31.100  12.816  10.441  1.00  0.00     0.422 P 
HETATM    9  O1  UNL     1      32.572  12.517  10.677  1.00  0.00    -0.617 OA
HETATM   10  O2  UNL     1      30.257  12.108  11.733  1.00  0.00    -0.617 OA
HETATM   11  O3  UNL     1      30.547  12.041   9.027  1.00  0.00    -0.617 OA
ENDBRANCH   7   8
ENDBRANCH   1   7
BRANCH   2  12
HETATM   12  O5  UNL     1      28.656  15.853  10.430  1.00  0.00    -0.390 OA
ATOM     13  H5  UNL     1      28.151  16.636  10.243  1.00  0.00     0.210 HD
ENDBRANCH   2  12
BRANCH   6  14
HETATM   14  O12 UNL     1      31.165  15.945  13.661  1.00  0.00    -0.390 OA
ATOM     15  H12 UNL     1      31.179  15.259  14.319  1.00  0.00     0.210 HD
ENDBRANCH   6  14
BRANCH   3  16
HETATM   16  O6  UNL     1      29.890  17.902   9.734  1.00  0.00    -0.272 OA
BRANCH  16  17
HETATM   17  P2  UNL     1      29.440  19.517   9.926  1.00  0.00     0.422 P 
HETATM   18  O7  UNL     1      29.779  20.260   8.653  1.00  0.00    -0.617 OA
HETATM   19  O8  UNL     1      30.400  20.190  11.162  1.00  0.00    -0.617 OA
HETATM   20  O9  UNL     1      27.804  19.698  10.257  1.00  0.00    -0.617 OA
ENDBRANCH  16  17
ENDBRANCH   3  16
BRANCH   5  21
HETATM   21  O11 UNL     1      32.906  17.448  12.625  1.00  0.00    -0.390 OA
ATOM     22  H11 UNL     1      32.141  17.671  13.143  1.00  0.00     0.210 HD
ENDBRANCH   5  21
BRANCH   4  23
HETATM   23  O10 UNL     1      32.552  18.175  10.249  1.00  0.00    -0.390 OA
ATOM     24  H10 UNL     1      33.372  18.172  10.729  1.00  0.00     0.210 HD
ENDBRANCH   4  23
TORSDOF 8
ENDMDL
