MODEL 8
REMARK VINA RESULT: -5.303775789      0.737      1.642
REMARK  8 active torsions:
REMARK  status: ('A' for Active; 'I' for Inactive)
REMARK    1  A    between atoms: P1_2  and  O4_5 
REMARK    2  A    between atoms: O4_5  and  C1_6 
REMARK    3  A    between atoms: C2_7  and  O5_8 
REMARK    4  A    between atoms: C3_10  and  O6_11 
REMARK    5  A    between atoms: O6_11  and  P2_12 
REMARK    6  A    between atoms: C4_16  and  O10_17 
REMARK    7  A    between atoms: C5_19  and  O11_20 
REMARK    8  A    between atoms: C6_22  and  O12_23 
ROOT
HETATM    1  C1  UNL     1      30.430  15.129  11.788  1.00  0.00     0.198 C 
HETATM    2  C2  UNL     1      29.616  16.399  11.500  1.00  0.00     0.182 C 
HETATM    3  C3  UNL     1      30.471  17.501  10.985  1.00  0.00     0.198 C 
HETATM    4  C4  UNL     1      31.877  17.064  10.626  1.00  0.00     0.181 C 
HETATM    5  C5  UNL     1      32.545  16.467  11.840  1.00  0.00     0.180 C 
HETATM    6  C6  UNL     1      31.653  15.522  12.574  1.00  0.00     0.181 C 
ENDROOT
BRANCH   1   7
HETATM    7  O4  UNL     1      30.695  14.540  10.588  1.00  0.00    -0.272 OA
BRANCH   7   8
HETATM    8  P1  UNL     1      31.026  12.913  10.640  1.00  0.00     0.422 P 
HETATM    9  O1  UNL     1      30.238  12.188  11.720  1.00  0.00    -0.617 OA
HETATM   10  O2  UNL     1      30.549  12.229   9.161  1.00  0.00    -0.617 OA
HETATM   11  O3  UNL     1      32.694  12.599  10.797  1.00  0.00    -0.617 OA
ENDBRANCH   7   8
ENDBRANCH   1   7
BRANCH   2  12
HETATM   12  O5  UNL     1      28.625  16.013  10.587  1.00  0.00    -0.390 OA
ATOM     13  H5  UNL     1      28.008  16.735  10.560  1.00  0.00     0.210 HD
ENDBRANCH   2  12
BRANCH   6  14
HETATM   14  O12 UNL     1      31.214  16.125  13.754  1.00  0.00    -0.390 OA
ATOM     15  H12 UNL     1      31.706  15.739  14.469  1.00  0.00     0.210 HD
ENDBRANCH   6  14
BRANCH   3  16
HETATM   16  O6  UNL     1      29.903  18.001   9.799  1.00  0.00    -0.272 OA
BRANCH  16  17
HETATM   17  P2  UNL     1      29.461  19.621   9.968  1.00  0.00     0.422 P 
HETATM   18  O7  UNL     1      29.793  20.341   8.680  1.00  0.00    -0.617 OA
HETATM   19  O8  UNL     1      30.435  20.310  11.185  1.00  0.00    -0.617 OA
HETATM   20  O9  UNL     1      27.829  19.816  10.308  1.00  0.00    -0.617 OA
ENDBRANCH  16  17
ENDBRANCH   3  16
BRANCH   5  21
HETATM   21  O11 UNL     1      32.973  17.542  12.632  1.00  0.00    -0.390 OA
ATOM     22  H11 UNL     1      33.827  17.798  12.304  1.00  0.00     0.210 HD
ENDBRANCH   5  21
BRANCH   4  23
HETATM   23  O10 UNL     1      32.584  18.207  10.243  1.00  0.00    -0.390 OA
ATOM     24  H10 UNL     1      33.268  17.930   9.646  1.00  0.00     0.210 HD
ENDBRANCH   4  23
TORSDOF 8
ENDMDL
