MODEL 7
REMARK VINA RESULT: -5.369777079      0.643      1.578
REMARK  8 active torsions:
REMARK  status: ('A' for Active; 'I' for Inactive)
REMARK    1  A    between atoms: P1_2  and  O4_5 
REMARK    2  A    between atoms: O4_5  and  C1_6 
REMARK    3  A    between atoms: C2_7  and  O5_8 
REMARK    4  A    between atoms: C3_10  and  O6_11 
REMARK    5  A    between atoms: O6_11  and  P2_12 
REMARK    6  A    between atoms: C4_16  and  O10_17 
REMARK    7  A    between atoms: C5_19  and  O11_20 
REMARK    8  A    between atoms: C6_22  and  O12_23 
ROOT
HETATM    1  C1  UNL     1      30.459  15.020  11.621  1.00  0.00     0.198 C 
HETATM    2  C2  UNL     1      29.637  16.279  11.316  1.00  0.00     0.182 C 
HETATM    3  C3  UNL     1      30.495  17.404  10.855  1.00  0.00     0.198 C 
HETATM    4  C4  UNL     1      31.922  16.996  10.553  1.00  0.00     0.181 C 
HETATM    5  C5  UNL     1      32.547  16.392  11.787  1.00  0.00     0.180 C 
HETATM    6  C6  UNL     1      31.639  15.421  12.468  1.00  0.00     0.181 C 
ENDROOT
BRANCH   1   7
HETATM    7  O4  UNL     1      30.788  14.453  10.426  1.00  0.00    -0.272 OA
BRANCH   7   8
HETATM    8  P1  UNL     1      31.130  12.828  10.467  1.00  0.00     0.422 P 
HETATM    9  O1  UNL     1      32.601  12.544  10.725  1.00  0.00    -0.617 OA
HETATM   10  O2  UNL     1      30.278  12.142  11.766  1.00  0.00    -0.617 OA
HETATM   11  O3  UNL     1      30.596  12.020   9.064  1.00  0.00    -0.617 OA
ENDBRANCH   7   8
ENDBRANCH   1   7
BRANCH   2  12
HETATM   12  O5  UNL     1      28.695  15.891  10.354  1.00  0.00    -0.390 OA
ATOM     13  H5  UNL     1      28.191  15.193  10.757  1.00  0.00     0.210 HD
ENDBRANCH   2  12
BRANCH   6  14
HETATM   14  O12 UNL     1      31.138  15.998  13.635  1.00  0.00    -0.390 OA
ATOM     15  H12 UNL     1      30.399  15.471  13.917  1.00  0.00     0.210 HD
ENDBRANCH   6  14
BRANCH   3  16
HETATM   16  O6  UNL     1      29.971  17.912   9.653  1.00  0.00    -0.272 OA
BRANCH  16  17
HETATM   17  P2  UNL     1      29.583  19.547   9.797  1.00  0.00     0.422 P 
HETATM   18  O7  UNL     1      30.364  20.121  10.958  1.00  0.00    -0.617 OA
HETATM   19  O8  UNL     1      27.932  19.664  10.206  1.00  0.00    -0.617 OA
HETATM   20  O9  UNL     1      29.930  20.422   8.407  1.00  0.00    -0.617 OA
ENDBRANCH  16  17
ENDBRANCH   3  16
BRANCH   5  21
HETATM   21  O11 UNL     1      32.920  17.462  12.613  1.00  0.00    -0.390 OA
ATOM     22  H11 UNL     1      33.475  18.028  12.090  1.00  0.00     0.210 HD
ENDBRANCH   5  21
BRANCH   4  23
HETATM   23  O10 UNL     1      32.625  18.157  10.219  1.00  0.00    -0.390 OA
ATOM     24  H10 UNL     1      31.991  18.859  10.138  1.00  0.00     0.210 HD
ENDBRANCH   4  23
TORSDOF 8
ENDMDL
