MODEL 10
REMARK VINA RESULT: -5.224813695      1.119      1.465
REMARK  8 active torsions:
REMARK  status: ('A' for Active; 'I' for Inactive)
REMARK    1  A    between atoms: P1_2  and  O4_5 
REMARK    2  A    between atoms: O4_5  and  C1_6 
REMARK    3  A    between atoms: C2_7  and  O5_8 
REMARK    4  A    between atoms: C3_10  and  O6_11 
REMARK    5  A    between atoms: O6_11  and  P2_12 
REMARK    6  A    between atoms: C4_16  and  O10_17 
REMARK    7  A    between atoms: C5_19  and  O11_20 
REMARK    8  A    between atoms: C6_22  and  O12_23 
ROOT
HETATM    1  C1  UNL     1      30.698  15.050  11.902  1.00  0.00     0.198 C 
HETATM    2  C2  UNL     1      29.683  16.202  11.902  1.00  0.00     0.182 C 
HETATM    3  C3  UNL     1      30.254  17.444  11.314  1.00  0.00     0.198 C 
HETATM    4  C4  UNL     1      31.590  17.236  10.631  1.00  0.00     0.181 C 
HETATM    5  C5  UNL     1      32.581  16.675  11.621  1.00  0.00     0.180 C 
HETATM    6  C6  UNL     1      32.003  15.572  12.444  1.00  0.00     0.181 C 
ENDROOT
BRANCH   1   7
HETATM    7  O4  UNL     1      30.766  14.573  10.627  1.00  0.00    -0.272 OA
BRANCH   7   8
HETATM    8  P1  UNL     1      30.907  12.924  10.480  1.00  0.00     0.422 P 
HETATM    9  O1  UNL     1      30.429  12.412   9.130  1.00  0.00    -0.617 OA
HETATM   10  O2  UNL     1      32.554  12.524  10.586  1.00  0.00    -0.617 OA
HETATM   11  O3  UNL     1      30.130  12.094  11.750  1.00  0.00    -0.617 OA
ENDBRANCH   7   8
ENDBRANCH   1   7
BRANCH   2  12
HETATM   12  O5  UNL     1      28.574  15.728  11.188  1.00  0.00    -0.390 OA
ATOM     13  H5  UNL     1      27.925  16.420  11.235  1.00  0.00     0.210 HD
ENDBRANCH   2  12
BRANCH   6  14
HETATM   14  O12 UNL     1      31.760  16.038  13.737  1.00  0.00    -0.390 OA
ATOM     15  H12 UNL     1      31.075  15.496  14.110  1.00  0.00     0.210 HD
ENDBRANCH   6  14
BRANCH   3  16
HETATM   16  O6  UNL     1      29.378  17.921  10.322  1.00  0.00    -0.272 OA
BRANCH  16  17
HETATM   17  P2  UNL     1      28.841  19.480  10.678  1.00  0.00     0.422 P 
HETATM   18  O7  UNL     1      28.923  19.681  12.175  1.00  0.00    -0.617 OA
HETATM   19  O8  UNL     1      27.193  19.581  10.255  1.00  0.00    -0.617 OA
HETATM   20  O9  UNL     1      29.742  20.668   9.907  1.00  0.00    -0.617 OA
ENDBRANCH  16  17
ENDBRANCH   3  16
BRANCH   5  21
HETATM   21  O11 UNL     1      33.030  17.756  12.395  1.00  0.00    -0.390 OA
ATOM     22  H11 UNL     1      33.685  18.208  11.876  1.00  0.00     0.210 HD
ENDBRANCH   5  21
BRANCH   4  23
HETATM   23  O10 UNL     1      32.041  18.489  10.207  1.00  0.00    -0.390 OA
ATOM     24  H10 UNL     1      32.990  18.475  10.245  1.00  0.00     0.210 HD
ENDBRANCH   4  23
TORSDOF 8
ENDMDL
