MODEL 3
REMARK VINA RESULT: -5.447607359      0.733      1.279
REMARK  8 active torsions:
REMARK  status: ('A' for Active; 'I' for Inactive)
REMARK    1  A    between atoms: P1_2  and  O4_5 
REMARK    2  A    between atoms: O4_5  and  C1_6 
REMARK    3  A    between atoms: C2_7  and  O5_8 
REMARK    4  A    between atoms: C3_10  and  O6_11 
REMARK    5  A    between atoms: O6_11  and  P2_12 
REMARK    6  A    between atoms: C4_16  and  O10_17 
REMARK    7  A    between atoms: C5_19  and  O11_20 
REMARK    8  A    between atoms: C6_22  and  O12_23 
ROOT
HETATM    1  C1  UNL     1      30.619  15.045  11.695  1.00  0.00     0.198 C 
HETATM    2  C2  UNL     1      29.737  16.279  11.465  1.00  0.00     0.182 C 
HETATM    3  C3  UNL     1      30.518  17.427  10.928  1.00  0.00     0.198 C 
HETATM    4  C4  UNL     1      31.923  17.058  10.498  1.00  0.00     0.181 C 
HETATM    5  C5  UNL     1      32.673  16.476  11.671  1.00  0.00     0.180 C 
HETATM    6  C6  UNL     1      31.859  15.482  12.431  1.00  0.00     0.181 C 
ENDROOT
BRANCH   1   7
HETATM    7  O4  UNL     1      30.854  14.484  10.476  1.00  0.00    -0.272 OA
BRANCH   7   8
HETATM    8  P1  UNL     1      31.149  12.849  10.477  1.00  0.00     0.422 P 
HETATM    9  O1  UNL     1      32.617  12.518  10.696  1.00  0.00    -0.617 OA
HETATM   10  O2  UNL     1      30.306  12.162  11.781  1.00  0.00    -0.617 OA
HETATM   11  O3  UNL     1      30.562  12.086   9.071  1.00  0.00    -0.617 OA
ENDBRANCH   7   8
ENDBRANCH   1   7
BRANCH   2  12
HETATM   12  O5  UNL     1      28.723  15.862  10.593  1.00  0.00    -0.390 OA
ATOM     13  H5  UNL     1      28.158  16.616  10.478  1.00  0.00     0.210 HD
ENDBRANCH   2  12
BRANCH   6  14
HETATM   14  O12 UNL     1      31.449  16.048  13.639  1.00  0.00    -0.390 OA
ATOM     15  H12 UNL     1      31.413  15.349  14.282  1.00  0.00     0.210 HD
ENDBRANCH   6  14
BRANCH   3  16
HETATM   16  O6  UNL     1      29.873  17.916   9.778  1.00  0.00    -0.272 OA
BRANCH  16  17
HETATM   17  P2  UNL     1      29.551  19.567   9.912  1.00  0.00     0.422 P 
HETATM   18  O7  UNL     1      28.074  19.742  10.187  1.00  0.00    -0.617 OA
HETATM   19  O8  UNL     1      29.863  20.290   8.401  1.00  0.00    -0.617 OA
HETATM   20  O9  UNL     1      30.435  20.302  11.135  1.00  0.00    -0.617 OA
ENDBRANCH  16  17
ENDBRANCH   3  16
BRANCH   5  21
HETATM   21  O11 UNL     1      33.089  17.559  12.459  1.00  0.00    -0.390 OA
ATOM     22  H11 UNL     1      32.650  18.328  12.117  1.00  0.00     0.210 HD
ENDBRANCH   5  21
BRANCH   4  23
HETATM   23  O10 UNL     1      32.560  18.237  10.102  1.00  0.00    -0.390 OA
ATOM     24  H10 UNL     1      32.553  18.257   9.152  1.00  0.00     0.210 HD
ENDBRANCH   4  23
TORSDOF 8
ENDMDL
