MODEL 1
REMARK VINA RESULT: -8.317793117      0.000      0.000
REMARK  15 active torsions:
REMARK  status: ('A' for Active; 'I' for Inactive)
REMARK    1  A    between atoms: N1_1  and  C1_5 
REMARK    2  A    between atoms: C1_5  and  C2_6 
REMARK    3  A    between atoms: C2_6  and  C3_7 
REMARK    4  A    between atoms: C3_7  and  C4_8 
REMARK    5  A    between atoms: C3_7  and  S1_17 
REMARK    6  A    between atoms: C4_8  and  C5_9 
REMARK    7  A    between atoms: C5_9  and  C6_10 
REMARK    8  A    between atoms: C6_10  and  C7_11 
REMARK    9  A    between atoms: C7_11  and  C8_12 
REMARK   10  A    between atoms: C8_12  and  N2_13 
REMARK   11  A    between atoms: S1_17  and  C9_18 
REMARK   12  A    between atoms: C9_18  and  C10_19 
REMARK   13  A    between atoms: C11_21  and  N3_22 
REMARK   14  A    between atoms: C17_35  and  O2_36 
REMARK   15  A    between atoms: C18_38  and  O3_39 
ROOT
HETATM    1  C10 UNL     1      19.924  37.183  11.325  1.00  0.00     0.165 C 
HETATM    2  O1  UNL     1      19.380  37.239  10.065  1.00  0.00    -0.355 OA
HETATM    3  C11 UNL     1      18.849  36.036   9.709  1.00  0.00     0.262 C 
HETATM    4  C17 UNL     1      19.186  35.035  10.785  1.00  0.00     0.198 C 
HETATM    5  C18 UNL     1      19.286  35.949  11.988  1.00  0.00     0.180 C 
ENDROOT
BRANCH   1   6
HETATM    6  C9  UNL     1      21.414  36.966  11.171  1.00  0.00     0.114 C 
BRANCH   6   7
HETATM    7  S1  UNL     1      22.434  38.380  11.411  1.00  0.00    -0.132 SA
BRANCH   7   8
HETATM    8  C3  UNL     1      23.406  38.449  12.884  1.00  0.00    -0.024 C 
BRANCH   8   9
HETATM    9  C2  UNL     1      22.834  38.823  14.012  1.00  0.00     0.014 C 
BRANCH   9  10
HETATM   10  C1  UNL     1      22.789  40.165  14.597  1.00  0.00     0.258 C 
BRANCH  10  11
HETATM   11  N1  UNL     1      21.774  40.958  13.885  1.00  0.00    -0.076 N 
ATOM     12  H13 UNL     1      20.855  40.899  14.324  1.00  0.00     0.274 HD
ATOM     13  H12 UNL     1      21.917  41.962  13.992  1.00  0.00     0.274 HD
ATOM     14  H11 UNL     1      21.759  40.666  12.907  1.00  0.00     0.274 HD
ENDBRANCH  10  11
ENDBRANCH   9  10
ENDBRANCH   8   9
BRANCH   8  15
HETATM   15  C4  UNL     1      24.845  38.143  12.855  1.00  0.00     0.045 C 
BRANCH  15  16
HETATM   16  C5  UNL     1      25.536  39.391  12.279  1.00  0.00     0.005 C 
BRANCH  16  17
HETATM   17  C6  UNL     1      26.933  39.130  11.831  1.00  0.00     0.002 C 
BRANCH  17  18
HETATM   18  C7  UNL     1      27.557  38.003  12.594  1.00  0.00     0.027 C 
BRANCH  18  19
HETATM   19  C8  UNL     1      28.015  36.884  11.658  1.00  0.00     0.229 C 
BRANCH  19  20
HETATM   20  N2  UNL     1      27.698  37.300  10.305  1.00  0.00    -0.079 N 
ATOM     21  H23 UNL     1      27.853  38.296  10.146  1.00  0.00     0.274 HD
ATOM     22  H22 UNL     1      28.362  36.951   9.614  1.00  0.00     0.274 HD
ATOM     23  H21 UNL     1      26.738  37.010  10.119  1.00  0.00     0.274 HD
ENDBRANCH  19  20
ENDBRANCH  18  19
ENDBRANCH  17  18
ENDBRANCH  16  17
ENDBRANCH  15  16
ENDBRANCH   8  15
ENDBRANCH   7   8
ENDBRANCH   6   7
ENDBRANCH   1   6
BRANCH   5  24
HETATM   24  O3  UNL     1      18.001  36.293  12.366  1.00  0.00    -0.390 OA
ATOM     25  H3  UNL     1      17.805  35.831  13.172  1.00  0.00     0.210 HD
ENDBRANCH   5  24
BRANCH   3  26
HETATM   26  N3  UNL     1      19.204  35.587   8.387  1.00  0.00    -0.297 N 
HETATM   27  C12 UNL     1      20.264  34.830   8.056  1.00  0.00     0.188 A 
HETATM   28  N4  UNL     1      20.226  34.642   6.725  1.00  0.00    -0.346 N 
HETATM   29  C13 UNL     1      19.163  35.260   6.175  1.00  0.00     0.119 A 
ATOM     30  H4  UNL     1      20.912  34.100   6.200  1.00  0.00     0.167 HD
HETATM   31  C14 UNL     1      18.673  35.378   4.887  1.00  0.00     0.148 A 
HETATM   32  C16 UNL     1      18.516  35.862   7.252  1.00  0.00     0.142 A 
HETATM   33  N5  UNL     1      19.332  34.767   3.800  1.00  0.00    -0.080 NA
HETATM   34  N6  UNL     1      17.554  36.091   4.689  1.00  0.00    -0.339 N 
HETATM   35  C15 UNL     1      16.903  36.689   5.724  1.00  0.00     0.183 A 
ATOM     36  H6  UNL     1      17.184  36.187   3.744  1.00  0.00     0.167 HD
HETATM   37  N7  UNL     1      17.397  36.561   6.968  1.00  0.00    -0.336 N 
ATOM     38  H7  UNL     1      16.901  37.014   7.736  1.00  0.00     0.168 HD
ENDBRANCH   3  26
BRANCH   4  39
HETATM   39  O2  UNL     1      18.144  34.104  10.947  1.00  0.00    -0.388 OA
ATOM     40  H2  UNL     1      18.347  33.486  11.639  1.00  0.00     0.210 HD
ENDBRANCH   4  39
TORSDOF 15
ENDMDL
