MODEL 7
REMARK VINA RESULT: -6.782182807      3.159      5.591
REMARK  15 active torsions:
REMARK  status: ('A' for Active; 'I' for Inactive)
REMARK    1  A    between atoms: N1_1  and  C1_5 
REMARK    2  A    between atoms: C1_5  and  C2_6 
REMARK    3  A    between atoms: C2_6  and  C3_7 
REMARK    4  A    between atoms: C3_7  and  C4_8 
REMARK    5  A    between atoms: C3_7  and  S1_17 
REMARK    6  A    between atoms: C4_8  and  C5_9 
REMARK    7  A    between atoms: C5_9  and  C6_10 
REMARK    8  A    between atoms: C6_10  and  C7_11 
REMARK    9  A    between atoms: C7_11  and  C8_12 
REMARK   10  A    between atoms: C8_12  and  N2_13 
REMARK   11  A    between atoms: S1_17  and  C9_18 
REMARK   12  A    between atoms: C9_18  and  C10_19 
REMARK   13  A    between atoms: C11_21  and  N3_22 
REMARK   14  A    between atoms: C17_35  and  O2_36 
REMARK   15  A    between atoms: C18_38  and  O3_39 
ROOT
HETATM    1  C10 UNL     1      23.939  39.051  12.373  1.00  0.00     0.165 C 
HETATM    2  O1  UNL     1      22.669  38.870  11.882  1.00  0.00    -0.355 OA
HETATM    3  C11 UNL     1      21.783  38.649  12.892  1.00  0.00     0.262 C 
HETATM    4  C17 UNL     1      22.555  38.541  14.183  1.00  0.00     0.198 C 
HETATM    5  C18 UNL     1      23.753  39.409  13.858  1.00  0.00     0.180 C 
ENDROOT
BRANCH   1   6
HETATM    6  C9  UNL     1      24.669  37.730  12.254  1.00  0.00     0.114 C 
BRANCH   6   7
HETATM    7  S1  UNL     1      25.766  37.327  13.571  1.00  0.00    -0.132 SA
BRANCH   7   8
HETATM    8  C3  UNL     1      27.463  37.054  13.169  1.00  0.00    -0.024 C 
BRANCH   8   9
HETATM    9  C2  UNL     1      28.103  37.953  12.446  1.00  0.00     0.014 C 
BRANCH   9  10
HETATM   10  C1  UNL     1      27.748  38.461  11.119  1.00  0.00     0.258 C 
BRANCH  10  11
HETATM   11  N1  UNL     1      27.663  37.326  10.186  1.00  0.00    -0.076 N 
ATOM     12  H13 UNL     1      27.456  36.447  10.660  1.00  0.00     0.274 HD
ATOM     13  H12 UNL     1      26.832  37.368   9.596  1.00  0.00     0.274 HD
ATOM     14  H11 UNL     1      28.526  37.284   9.643  1.00  0.00     0.274 HD
ENDBRANCH  10  11
ENDBRANCH   9  10
ENDBRANCH   8   9
BRANCH   8  15
HETATM   15  C4  UNL     1      28.149  35.821  13.586  1.00  0.00     0.045 C 
BRANCH  15  16
HETATM   16  C5  UNL     1      29.655  36.093  13.422  1.00  0.00     0.005 C 
BRANCH  16  17
HETATM   17  C6  UNL     1      30.483  34.856  13.498  1.00  0.00     0.002 C 
BRANCH  17  18
HETATM   18  C7  UNL     1      31.548  34.838  12.446  1.00  0.00     0.027 C 
BRANCH  18  19
HETATM   19  C8  UNL     1      32.208  33.462  12.348  1.00  0.00     0.229 C 
BRANCH  19  20
HETATM   20  N2  UNL     1      32.472  33.213  10.943  1.00  0.00    -0.079 N 
ATOM     21  H23 UNL     1      32.447  34.060  10.375  1.00  0.00     0.274 HD
ATOM     22  H22 UNL     1      33.443  32.960  10.758  1.00  0.00     0.274 HD
ATOM     23  H21 UNL     1      31.808  32.504  10.633  1.00  0.00     0.274 HD
ENDBRANCH  19  20
ENDBRANCH  18  19
ENDBRANCH  17  18
ENDBRANCH  16  17
ENDBRANCH  15  16
ENDBRANCH   8  15
ENDBRANCH   7   8
ENDBRANCH   6   7
ENDBRANCH   1   6
BRANCH   5  24
HETATM   24  O3  UNL     1      23.348  40.729  13.924  1.00  0.00    -0.390 OA
ATOM     25  H3  UNL     1      22.689  40.795  14.605  1.00  0.00     0.210 HD
ENDBRANCH   5  24
BRANCH   3  26
HETATM   26  N3  UNL     1      20.885  37.545  12.676  1.00  0.00    -0.297 N 
HETATM   27  C12 UNL     1      20.257  36.826  13.623  1.00  0.00     0.188 A 
HETATM   28  N4  UNL     1      19.517  35.893  12.998  1.00  0.00    -0.346 N 
HETATM   29  C13 UNL     1      19.646  35.984  11.661  1.00  0.00     0.119 A 
ATOM     30  H4  UNL     1      18.933  35.206  13.475  1.00  0.00     0.167 HD
HETATM   31  C14 UNL     1      19.117  35.287  10.588  1.00  0.00     0.148 A 
HETATM   32  C16 UNL     1      20.525  37.047  11.467  1.00  0.00     0.142 A 
HETATM   33  N5  UNL     1      18.227  34.212  10.788  1.00  0.00    -0.080 NA
HETATM   34  N6  UNL     1      19.470  35.655   9.348  1.00  0.00    -0.339 N 
HETATM   35  C15 UNL     1      20.327  36.690   9.132  1.00  0.00     0.183 A 
ATOM     36  H6  UNL     1      19.088  35.148   8.549  1.00  0.00     0.167 HD
HETATM   37  N7  UNL     1      20.828  37.354  10.189  1.00  0.00    -0.336 N 
ATOM     38  H7  UNL     1      21.470  38.127  10.015  1.00  0.00     0.168 HD
ENDBRANCH   3  26
BRANCH   4  39
HETATM   39  O2  UNL     1      21.820  39.080  15.253  1.00  0.00    -0.388 OA
ATOM     40  H2  UNL     1      21.023  38.586  15.399  1.00  0.00     0.210 HD
ENDBRANCH   4  39
TORSDOF 15
ENDMDL
