MODEL 2
REMARK VINA RESULT: -7.488347619      1.371      1.541
REMARK  15 active torsions:
REMARK  status: ('A' for Active; 'I' for Inactive)
REMARK    1  A    between atoms: N1_1  and  C1_5 
REMARK    2  A    between atoms: C1_5  and  C2_6 
REMARK    3  A    between atoms: C2_6  and  C3_7 
REMARK    4  A    between atoms: C3_7  and  C4_8 
REMARK    5  A    between atoms: C3_7  and  S1_17 
REMARK    6  A    between atoms: C4_8  and  C5_9 
REMARK    7  A    between atoms: C5_9  and  C6_10 
REMARK    8  A    between atoms: C6_10  and  C7_11 
REMARK    9  A    between atoms: C7_11  and  C8_12 
REMARK   10  A    between atoms: C8_12  and  N2_13 
REMARK   11  A    between atoms: S1_17  and  C9_18 
REMARK   12  A    between atoms: C9_18  and  C10_19 
REMARK   13  A    between atoms: C11_21  and  N3_22 
REMARK   14  A    between atoms: C17_35  and  O2_36 
REMARK   15  A    between atoms: C18_38  and  O3_39 
ROOT
HETATM    1  C10 UNL     1      19.450  36.837  10.396  1.00  0.00     0.165 C 
HETATM    2  O1  UNL     1      18.768  36.670   9.216  1.00  0.00    -0.355 OA
HETATM    3  C11 UNL     1      18.661  35.350   8.896  1.00  0.00     0.262 C 
HETATM    4  C17 UNL     1      19.465  34.556   9.895  1.00  0.00     0.198 C 
HETATM    5  C18 UNL     1      19.382  35.469  11.100  1.00  0.00     0.180 C 
ENDROOT
BRANCH   1   6
HETATM    6  C9  UNL     1      20.888  37.163  10.053  1.00  0.00     0.114 C 
BRANCH   6   7
HETATM    7  S1  UNL     1      22.072  36.891  11.326  1.00  0.00    -0.132 SA
BRANCH   7   8
HETATM    8  C3  UNL     1      22.225  38.124  12.580  1.00  0.00    -0.024 C 
BRANCH   8   9
HETATM    9  C2  UNL     1      21.287  38.220  13.502  1.00  0.00     0.014 C 
BRANCH   9  10
HETATM   10  C1  UNL     1      20.493  37.142  14.095  1.00  0.00     0.258 C 
BRANCH  10  11
HETATM   11  N1  UNL     1      19.068  37.407  13.838  1.00  0.00    -0.076 N 
ATOM     12  H13 UNL     1      18.783  38.337  14.146  1.00  0.00     0.274 HD
ATOM     13  H12 UNL     1      18.866  37.520  12.844  1.00  0.00     0.274 HD
ATOM     14  H11 UNL     1      18.515  36.666  14.268  1.00  0.00     0.274 HD
ENDBRANCH  10  11
ENDBRANCH   9  10
ENDBRANCH   8   9
BRANCH   8  15
HETATM   15  C4  UNL     1      23.354  39.068  12.577  1.00  0.00     0.045 C 
BRANCH  15  16
HETATM   16  C5  UNL     1      24.626  38.213  12.449  1.00  0.00     0.005 C 
BRANCH  16  17
HETATM   17  C6  UNL     1      25.850  39.023  12.191  1.00  0.00     0.002 C 
BRANCH  17  18
HETATM   18  C7  UNL     1      27.098  38.226  12.410  1.00  0.00     0.027 C 
BRANCH  18  19
HETATM   19  C8  UNL     1      27.108  36.961  11.550  1.00  0.00     0.229 C 
BRANCH  19  20
HETATM   20  N2  UNL     1      27.704  37.314  10.276  1.00  0.00    -0.079 N 
ATOM     21  H23 UNL     1      27.090  37.131   9.482  1.00  0.00     0.274 HD
ATOM     22  H22 UNL     1      27.794  38.321  10.142  1.00  0.00     0.274 HD
ATOM     23  H21 UNL     1      28.595  36.821  10.214  1.00  0.00     0.274 HD
ENDBRANCH  19  20
ENDBRANCH  18  19
ENDBRANCH  17  18
ENDBRANCH  16  17
ENDBRANCH  15  16
ENDBRANCH   8  15
ENDBRANCH   7   8
ENDBRANCH   6   7
ENDBRANCH   1   6
BRANCH   5  24
HETATM   24  O3  UNL     1      18.118  35.339  11.644  1.00  0.00    -0.390 OA
ATOM     25  H3  UNL     1      17.870  34.424  11.580  1.00  0.00     0.210 HD
ENDBRANCH   5  24
BRANCH   3  26
HETATM   26  N3  UNL     1      18.983  35.032   7.529  1.00  0.00    -0.297 N 
HETATM   27  C12 UNL     1      19.936  34.182   7.108  1.00  0.00     0.188 A 
HETATM   28  N4  UNL     1      19.905  34.176   5.763  1.00  0.00    -0.346 N 
HETATM   29  C13 UNL     1      18.954  35.005   5.293  1.00  0.00     0.119 A 
ATOM     30  H4  UNL     1      20.523  33.616   5.176  1.00  0.00     0.167 HD
HETATM   31  C14 UNL     1      18.518  35.359   4.028  1.00  0.00     0.148 A 
HETATM   32  C16 UNL     1      18.370  35.548   6.435  1.00  0.00     0.142 A 
HETATM   33  N5  UNL     1      19.113  34.807   2.874  1.00  0.00    -0.080 NA
HETATM   34  N6  UNL     1      17.516  36.243   3.919  1.00  0.00    -0.339 N 
HETATM   35  C15 UNL     1      16.927  36.787   5.020  1.00  0.00     0.183 A 
ATOM     36  H6  UNL     1      17.186  36.513   2.993  1.00  0.00     0.167 HD
HETATM   37  N7  UNL     1      17.367  36.429   6.239  1.00  0.00    -0.336 N 
ATOM     38  H7  UNL     1      16.919  36.843   7.057  1.00  0.00     0.168 HD
ENDBRANCH   3  26
BRANCH   4  39
HETATM   39  O2  UNL     1      18.853  33.319  10.160  1.00  0.00    -0.388 OA
ATOM     40  H2  UNL     1      18.623  33.245  11.079  1.00  0.00     0.210 HD
ENDBRANCH   4  39
TORSDOF 15
ENDMDL
