MODEL 10
REMARK VINA RESULT: -6.315707236      2.220      8.610
REMARK  15 active torsions:
REMARK  status: ('A' for Active; 'I' for Inactive)
REMARK    1  A    between atoms: N1_1  and  C1_5 
REMARK    2  A    between atoms: C1_5  and  C2_6 
REMARK    3  A    between atoms: C2_6  and  C3_7 
REMARK    4  A    between atoms: C3_7  and  C4_8 
REMARK    5  A    between atoms: C3_7  and  S1_17 
REMARK    6  A    between atoms: C4_8  and  C5_9 
REMARK    7  A    between atoms: C5_9  and  C6_10 
REMARK    8  A    between atoms: C6_10  and  C7_11 
REMARK    9  A    between atoms: C7_11  and  C8_12 
REMARK   10  A    between atoms: C8_12  and  N2_13 
REMARK   11  A    between atoms: S1_17  and  C9_18 
REMARK   12  A    between atoms: C9_18  and  C10_19 
REMARK   13  A    between atoms: C11_21  and  N3_22 
REMARK   14  A    between atoms: C17_35  and  O2_36 
REMARK   15  A    between atoms: C18_38  and  O3_39 
ROOT
HETATM    1  C10 UNL     1      20.891  36.372  11.550  1.00  0.00     0.165 C 
HETATM    2  O1  UNL     1      22.226  36.454  11.861  1.00  0.00    -0.355 OA
HETATM    3  C11 UNL     1      22.433  37.304  12.905  1.00  0.00     0.262 C 
HETATM    4  C17 UNL     1      21.119  37.960  13.247  1.00  0.00     0.198 C 
HETATM    5  C18 UNL     1      20.152  36.884  12.800  1.00  0.00     0.180 C 
ENDROOT
BRANCH   1   6
HETATM    6  C9  UNL     1      20.632  37.305  10.387  1.00  0.00     0.114 C 
BRANCH   6   7
HETATM    7  S1  UNL     1      19.471  36.749   9.187  1.00  0.00    -0.132 SA
BRANCH   7   8
HETATM    8  C3  UNL     1      19.981  35.464   8.089  1.00  0.00    -0.024 C 
BRANCH   8   9
HETATM    9  C2  UNL     1      19.927  34.211   8.499  1.00  0.00     0.014 C 
BRANCH   9  10
HETATM   10  C1  UNL     1      19.344  33.694   9.740  1.00  0.00     0.258 C 
BRANCH  10  11
HETATM   11  N1  UNL     1      17.947  33.311   9.481  1.00  0.00    -0.076 N 
ATOM     12  H13 UNL     1      17.833  32.303   9.369  1.00  0.00     0.274 HD
ATOM     13  H12 UNL     1      17.351  33.430  10.300  1.00  0.00     0.274 HD
ATOM     14  H11 UNL     1      17.609  33.834   8.672  1.00  0.00     0.274 HD
ENDBRANCH  10  11
ENDBRANCH   9  10
ENDBRANCH   8   9
BRANCH   8  15
HETATM   15  C4  UNL     1      20.506  35.778   6.750  1.00  0.00     0.045 C 
BRANCH  15  16
HETATM   16  C5  UNL     1      20.054  34.628   5.833  1.00  0.00     0.005 C 
BRANCH  16  17
HETATM   17  C6  UNL     1      19.026  35.046   4.838  1.00  0.00     0.002 C 
BRANCH  17  18
HETATM   18  C7  UNL     1      18.063  36.034   5.419  1.00  0.00     0.027 C 
BRANCH  18  19
HETATM   19  C8  UNL     1      17.439  36.908   4.330  1.00  0.00     0.229 C 
BRANCH  19  20
HETATM   20  N2  UNL     1      16.033  37.058   4.654  1.00  0.00    -0.079 N 
ATOM     21  H23 UNL     1      15.876  37.398   5.603  1.00  0.00     0.274 HD
ATOM     22  H22 UNL     1      15.590  37.834   4.161  1.00  0.00     0.274 HD
ATOM     23  H21 UNL     1      15.584  36.160   4.472  1.00  0.00     0.274 HD
ENDBRANCH  19  20
ENDBRANCH  18  19
ENDBRANCH  17  18
ENDBRANCH  16  17
ENDBRANCH  15  16
ENDBRANCH   8  15
ENDBRANCH   7   8
ENDBRANCH   6   7
ENDBRANCH   1   6
BRANCH   5  24
HETATM   24  O3  UNL     1      20.176  35.875  13.745  1.00  0.00    -0.390 OA
ATOM     25  H3  UNL     1      19.313  35.479  13.764  1.00  0.00     0.210 HD
ENDBRANCH   5  24
BRANCH   3  26
HETATM   26  N3  UNL     1      23.504  38.248  12.712  1.00  0.00    -0.297 N 
HETATM   27  C12 UNL     1      23.459  39.570  12.953  1.00  0.00     0.188 A 
HETATM   28  N4  UNL     1      24.664  40.078  12.640  1.00  0.00    -0.346 N 
HETATM   29  C13 UNL     1      25.499  39.118  12.197  1.00  0.00     0.119 A 
ATOM     30  H4  UNL     1      24.914  41.063  12.727  1.00  0.00     0.167 HD
HETATM   31  C14 UNL     1      26.811  39.104  11.759  1.00  0.00     0.148 A 
HETATM   32  C16 UNL     1      24.742  37.949  12.248  1.00  0.00     0.142 A 
HETATM   33  N5  UNL     1      27.573  40.290  11.709  1.00  0.00    -0.080 NA
HETATM   34  N6  UNL     1      27.348  37.935  11.379  1.00  0.00    -0.339 N 
HETATM   35  C15 UNL     1      26.631  36.779  11.420  1.00  0.00     0.183 A 
ATOM     36  H6  UNL     1      28.314  37.912  11.053  1.00  0.00     0.167 HD
HETATM   37  N7  UNL     1      25.357  36.816  11.850  1.00  0.00    -0.336 N 
ATOM     38  H7  UNL     1      24.828  35.944  11.876  1.00  0.00     0.168 HD
ENDBRANCH   3  26
BRANCH   4  39
HETATM   39  O2  UNL     1      21.016  38.184  14.631  1.00  0.00    -0.388 OA
ATOM     40  H2  UNL     1      21.822  38.550  14.976  1.00  0.00     0.210 HD
ENDBRANCH   4  39
TORSDOF 15
ENDMDL
