MODEL 9
REMARK VINA RESULT: -6.536917460      2.131      8.661
REMARK  15 active torsions:
REMARK  status: ('A' for Active; 'I' for Inactive)
REMARK    1  A    between atoms: N1_1  and  C1_5 
REMARK    2  A    between atoms: C1_5  and  C2_6 
REMARK    3  A    between atoms: C2_6  and  C3_7 
REMARK    4  A    between atoms: C3_7  and  C4_8 
REMARK    5  A    between atoms: C3_7  and  S1_17 
REMARK    6  A    between atoms: C4_8  and  C5_9 
REMARK    7  A    between atoms: C5_9  and  C6_10 
REMARK    8  A    between atoms: C6_10  and  C7_11 
REMARK    9  A    between atoms: C7_11  and  C8_12 
REMARK   10  A    between atoms: C8_12  and  N2_13 
REMARK   11  A    between atoms: S1_17  and  C9_18 
REMARK   12  A    between atoms: C9_18  and  C10_19 
REMARK   13  A    between atoms: C11_21  and  N3_22 
REMARK   14  A    between atoms: C17_35  and  O2_36 
REMARK   15  A    between atoms: C18_38  and  O3_39 
ROOT
HETATM    1  C10 UNL     1      20.640  36.402  11.582  1.00  0.00     0.165 C 
HETATM    2  O1  UNL     1      21.996  36.451  11.796  1.00  0.00    -0.355 OA
HETATM    3  C11 UNL     1      22.292  37.227  12.875  1.00  0.00     0.262 C 
HETATM    4  C17 UNL     1      21.016  37.871  13.358  1.00  0.00     0.198 C 
HETATM    5  C18 UNL     1      20.004  36.836  12.915  1.00  0.00     0.180 C 
ENDROOT
BRANCH   1   6
HETATM    6  C9  UNL     1      20.309  37.413  10.505  1.00  0.00     0.114 C 
BRANCH   6   7
HETATM    7  S1  UNL     1      20.236  36.799   8.858  1.00  0.00    -0.132 SA
BRANCH   7   8
HETATM    8  C3  UNL     1      19.016  35.577   8.492  1.00  0.00    -0.024 C 
BRANCH   8   9
HETATM    9  C2  UNL     1      19.048  34.427   9.137  1.00  0.00     0.014 C 
BRANCH   9  10
HETATM   10  C1  UNL     1      19.138  33.078   8.571  1.00  0.00     0.258 C 
BRANCH  10  11
HETATM   11  N1  UNL     1      20.418  32.952   7.855  1.00  0.00    -0.076 N 
ATOM     12  H13 UNL     1      20.564  33.703   7.181  1.00  0.00     0.274 HD
ATOM     13  H12 UNL     1      21.220  33.143   8.455  1.00  0.00     0.274 HD
ATOM     14  H11 UNL     1      20.462  32.027   7.426  1.00  0.00     0.274 HD
ENDBRANCH  10  11
ENDBRANCH   9  10
ENDBRANCH   8   9
BRANCH   8  15
HETATM   15  C4  UNL     1      18.002  35.809   7.450  1.00  0.00     0.045 C 
BRANCH  15  16
HETATM   16  C5  UNL     1      18.780  36.094   6.154  1.00  0.00     0.005 C 
BRANCH  16  17
HETATM   17  C6  UNL     1      17.966  36.809   5.131  1.00  0.00     0.002 C 
BRANCH  17  18
HETATM   18  C7  UNL     1      17.547  35.896   4.021  1.00  0.00     0.027 C 
BRANCH  18  19
HETATM   19  C8  UNL     1      18.465  34.676   3.928  1.00  0.00     0.229 C 
BRANCH  19  20
HETATM   20  N2  UNL     1      18.847  34.532   2.537  1.00  0.00    -0.079 N 
ATOM     21  H23 UNL     1      19.011  33.562   2.266  1.00  0.00     0.274 HD
ATOM     22  H22 UNL     1      18.080  34.720   1.891  1.00  0.00     0.274 HD
ATOM     23  H21 UNL     1      19.656  35.132   2.383  1.00  0.00     0.274 HD
ENDBRANCH  19  20
ENDBRANCH  18  19
ENDBRANCH  17  18
ENDBRANCH  16  17
ENDBRANCH  15  16
ENDBRANCH   8  15
ENDBRANCH   7   8
ENDBRANCH   6   7
ENDBRANCH   1   6
BRANCH   5  24
HETATM   24  O3  UNL     1      20.083  35.766  13.786  1.00  0.00    -0.390 OA
ATOM     25  H3  UNL     1      19.196  35.519  14.021  1.00  0.00     0.210 HD
ENDBRANCH   5  24
BRANCH   3  26
HETATM   26  N3  UNL     1      23.358  38.172  12.665  1.00  0.00    -0.297 N 
HETATM   27  C12 UNL     1      23.297  39.502  12.849  1.00  0.00     0.188 A 
HETATM   28  N4  UNL     1      24.505  40.008  12.540  1.00  0.00    -0.346 N 
HETATM   29  C13 UNL     1      25.356  39.038  12.157  1.00  0.00     0.119 A 
ATOM     30  H4  UNL     1      24.744  40.998  12.590  1.00  0.00     0.167 HD
HETATM   31  C14 UNL     1      26.678  39.017  11.748  1.00  0.00     0.148 A 
HETATM   32  C16 UNL     1      24.609  37.865  12.242  1.00  0.00     0.142 A 
HETATM   33  N5  UNL     1      27.431  40.207  11.664  1.00  0.00    -0.080 NA
HETATM   34  N6  UNL     1      27.233  37.839  11.431  1.00  0.00    -0.339 N 
HETATM   35  C15 UNL     1      26.525  36.679  11.506  1.00  0.00     0.183 A 
ATOM     36  H6  UNL     1      28.206  37.811  11.127  1.00  0.00     0.167 HD
HETATM   37  N7  UNL     1      25.242  36.722  11.906  1.00  0.00    -0.336 N 
ATOM     38  H7  UNL     1      24.720  35.846  11.958  1.00  0.00     0.168 HD
ENDBRANCH   3  26
BRANCH   4  39
HETATM   39  O2  UNL     1      21.020  38.002  14.758  1.00  0.00    -0.388 OA
ATOM     40  H2  UNL     1      20.433  38.696  15.034  1.00  0.00     0.210 HD
ENDBRANCH   4  39
TORSDOF 15
ENDMDL
