MODEL 4
REMARK VINA RESULT: -3.913382353      1.746      2.450
REMARK  3 active torsions:
REMARK  status: ('A' for Active; 'I' for Inactive)
REMARK    1  A    between atoms: N1_1  and  C1_5 
REMARK    2  A    between atoms: C1_5  and  C2_6 
REMARK    3  A    between atoms: C2_6  and  C3_7 
ROOT
HETATM    1  C3  UNL     1      42.842 -34.333  -4.726  1.00  0.00     0.027 A 
HETATM    2  C4  UNL     1      42.732 -35.546  -4.036  1.00  0.00     0.114 A 
HETATM    3  N2  UNL     1      41.532 -35.592  -3.478  1.00  0.00    -0.360 N 
ATOM      4  H2  UNL     1      41.174 -36.363  -2.913  1.00  0.00     0.166 HD
HETATM    5  C5  UNL     1      40.855 -34.466  -3.771  1.00  0.00     0.180 A 
HETATM    6  N3  UNL     1      41.674 -33.728  -4.525  1.00  0.00    -0.355 N 
ATOM      7  H3  UNL     1      41.434 -32.811  -4.902  1.00  0.00     0.166 HD
ENDROOT
BRANCH   1   8
HETATM    8  C2  UNL     1      44.010 -33.864  -5.494  1.00  0.00     0.085 C 
BRANCH   8   9
HETATM    9  C1  UNL     1      43.869 -32.412  -5.867  1.00  0.00     0.235 C 
BRANCH   9  10
HETATM   10  N1  UNL     1      44.158 -32.139  -7.242  1.00  0.00    -0.079 N 
ATOM     11  H13 UNL     1      43.631 -31.329  -7.566  1.00  0.00     0.274 HD
ATOM     12  H12 UNL     1      45.107 -31.778  -7.344  1.00  0.00     0.274 HD
ATOM     13  H11 UNL     1      44.008 -32.936  -7.860  1.00  0.00     0.274 HD
ENDBRANCH   9  10
ENDBRANCH   8   9
ENDBRANCH   1   8
TORSDOF 3
ENDMDL
