MODEL 2
REMARK VINA RESULT: -4.006111425      3.085      3.805
REMARK  3 active torsions:
REMARK  status: ('A' for Active; 'I' for Inactive)
REMARK    1  A    between atoms: N1_1  and  C1_5 
REMARK    2  A    between atoms: C1_5  and  C2_6 
REMARK    3  A    between atoms: C2_6  and  C3_7 
ROOT
HETATM    1  C3  UNL     1      42.144 -36.205  -3.511  1.00  0.00     0.027 A 
HETATM    2  C4  UNL     1      42.416 -35.401  -4.625  1.00  0.00     0.114 A 
HETATM    3  N2  UNL     1      41.520 -34.426  -4.653  1.00  0.00    -0.360 N 
ATOM      4  H2  UNL     1      41.475 -33.688  -5.356  1.00  0.00     0.166 HD
HETATM    5  C5  UNL     1      40.679 -34.556  -3.611  1.00  0.00     0.180 A 
HETATM    6  N3  UNL     1      41.083 -35.640  -2.942  1.00  0.00    -0.355 N 
ATOM      7  H3  UNL     1      40.633 -35.992  -2.097  1.00  0.00     0.166 HD
ENDROOT
BRANCH   1   8
HETATM    8  C2  UNL     1      42.893 -37.406  -3.094  1.00  0.00     0.085 C 
BRANCH   8   9
HETATM    9  C1  UNL     1      41.995 -38.614  -3.038  1.00  0.00     0.235 C 
BRANCH   9  10
HETATM   10  N1  UNL     1      42.686 -39.854  -3.218  1.00  0.00    -0.079 N 
ATOM     11  H13 UNL     1      43.390 -39.982  -2.492  1.00  0.00     0.274 HD
ATOM     12  H12 UNL     1      42.074 -40.641  -3.003  1.00  0.00     0.274 HD
ATOM     13  H11 UNL     1      43.101 -39.964  -4.143  1.00  0.00     0.274 HD
ENDBRANCH   9  10
ENDBRANCH   8   9
ENDBRANCH   1   8
TORSDOF 3
ENDMDL
