MODEL 3
REMARK VINA RESULT: -3.989346055      3.068      3.864
REMARK  3 active torsions:
REMARK  status: ('A' for Active; 'I' for Inactive)
REMARK    1  A    between atoms: N1_1  and  C1_5 
REMARK    2  A    between atoms: C1_5  and  C2_6 
REMARK    3  A    between atoms: C2_6  and  C3_7 
ROOT
HETATM    1  C3  UNL     1      42.228 -36.135  -3.622  1.00  0.00     0.027 A 
HETATM    2  C4  UNL     1      41.147 -35.507  -2.990  1.00  0.00     0.114 A 
HETATM    3  N2  UNL     1      40.760 -34.495  -3.752  1.00  0.00    -0.360 N 
ATOM      4  H2  UNL     1      39.991 -33.860  -3.539  1.00  0.00     0.166 HD
HETATM    5  C5  UNL     1      41.536 -34.434  -4.849  1.00  0.00     0.180 A 
HETATM    6  N3  UNL     1      42.411 -35.438  -4.739  1.00  0.00    -0.355 N 
ATOM      7  H3  UNL     1      43.133 -35.644  -5.429  1.00  0.00     0.166 HD
ENDROOT
BRANCH   1   8
HETATM    8  C2  UNL     1      42.971 -37.308  -3.127  1.00  0.00     0.085 C 
BRANCH   8   9
HETATM    9  C1  UNL     1      42.059 -38.493  -2.948  1.00  0.00     0.235 C 
BRANCH   9  10
HETATM   10  N1  UNL     1      42.685 -39.750  -3.228  1.00  0.00    -0.079 N 
ATOM     11  H13 UNL     1      42.724 -40.327  -2.388  1.00  0.00     0.274 HD
ATOM     12  H12 UNL     1      42.080 -40.331  -3.807  1.00  0.00     0.274 HD
ATOM     13  H11 UNL     1      43.610 -39.664  -3.648  1.00  0.00     0.274 HD
ENDBRANCH   9  10
ENDBRANCH   8   9
ENDBRANCH   1   8
TORSDOF 3
ENDMDL
