MODEL 8
REMARK VINA RESULT: -3.851173284      2.830      3.817
REMARK  3 active torsions:
REMARK  status: ('A' for Active; 'I' for Inactive)
REMARK    1  A    between atoms: N1_1  and  C1_5 
REMARK    2  A    between atoms: C1_5  and  C2_6 
REMARK    3  A    between atoms: C2_6  and  C3_7 
ROOT
HETATM    1  C3  UNL     1      42.459 -35.898  -3.716  1.00  0.00     0.027 A 
HETATM    2  C4  UNL     1      41.309 -35.358  -3.128  1.00  0.00     0.114 A 
HETATM    3  N2  UNL     1      40.814 -34.451  -3.956  1.00  0.00    -0.360 N 
ATOM      4  H2  UNL     1      39.976 -33.895  -3.787  1.00  0.00     0.166 HD
HETATM    5  C5  UNL     1      41.587 -34.374  -5.055  1.00  0.00     0.180 A 
HETATM    6  N3  UNL     1      42.571 -35.261  -4.878  1.00  0.00    -0.355 N 
ATOM      7  H3  UNL     1      43.318 -35.429  -5.552  1.00  0.00     0.166 HD
ENDROOT
BRANCH   1   8
HETATM    8  C2  UNL     1      43.328 -36.943  -3.143  1.00  0.00     0.085 C 
BRANCH   8   9
HETATM    9  C1  UNL     1      43.407 -36.823  -1.644  1.00  0.00     0.235 C 
BRANCH   9  10
HETATM   10  N1  UNL     1      44.141 -37.880  -1.018  1.00  0.00    -0.079 N 
ATOM     11  H13 UNL     1      44.895 -38.203  -1.624  1.00  0.00     0.274 HD
ATOM     12  H12 UNL     1      44.691 -37.522  -0.237  1.00  0.00     0.274 HD
ATOM     13  H11 UNL     1      43.560 -38.663  -0.719  1.00  0.00     0.274 HD
ENDBRANCH   9  10
ENDBRANCH   8   9
ENDBRANCH   1   8
TORSDOF 3
ENDMDL
