MODEL 6
REMARK VINA RESULT: -3.902582049      1.808      2.485
REMARK  3 active torsions:
REMARK  status: ('A' for Active; 'I' for Inactive)
REMARK    1  A    between atoms: N1_1  and  C1_5 
REMARK    2  A    between atoms: C1_5  and  C2_6 
REMARK    3  A    between atoms: C2_6  and  C3_7 
ROOT
HETATM    1  C3  UNL     1      42.956 -34.360  -4.728  1.00  0.00     0.027 A 
HETATM    2  C4  UNL     1      41.670 -33.806  -4.719  1.00  0.00     0.114 A 
HETATM    3  N2  UNL     1      40.904 -34.563  -3.948  1.00  0.00    -0.360 N 
ATOM      4  H2  UNL     1      39.916 -34.398  -3.757  1.00  0.00     0.166 HD
HETATM    5  C5  UNL     1      41.630 -35.583  -3.454  1.00  0.00     0.180 A 
HETATM    6  N3  UNL     1      42.863 -35.431  -3.945  1.00  0.00    -0.355 N 
ATOM      7  H3  UNL     1      43.640 -36.060  -3.743  1.00  0.00     0.166 HD
ENDROOT
BRANCH   1   8
HETATM    8  C2  UNL     1      44.128 -33.841  -5.457  1.00  0.00     0.085 C 
BRANCH   8   9
HETATM    9  C1  UNL     1      43.920 -32.409  -5.872  1.00  0.00     0.235 C 
BRANCH   9  10
HETATM   10  N1  UNL     1      44.159 -32.170  -7.263  1.00  0.00    -0.079 N 
ATOM     11  H13 UNL     1      44.592 -32.984  -7.698  1.00  0.00     0.274 HD
ATOM     12  H12 UNL     1      43.280 -32.147  -7.779  1.00  0.00     0.274 HD
ATOM     13  H11 UNL     1      44.707 -31.330  -7.448  1.00  0.00     0.274 HD
ENDBRANCH   9  10
ENDBRANCH   8   9
ENDBRANCH   1   8
TORSDOF 3
ENDMDL
