MODEL 3
REMARK VINA RESULT: -6.842819816      2.939      5.814
REMARK  13 active torsions:
REMARK  status: ('A' for Active; 'I' for Inactive)
REMARK       I    between atoms: C1_2  and  N1_3 
REMARK    1  A    between atoms: C1_2  and  C9_14 
REMARK    2  A    between atoms: N1_3  and  C2_5 
REMARK    3  A    between atoms: C2_5  and  C3_6 
REMARK    4  A    between atoms: C3_6  and  C4_7 
REMARK    5  A    between atoms: C4_7  and  N2_8 
REMARK    6  A    between atoms: C11_16  and  O3_17 
REMARK    7  A    between atoms: O3_17  and  C12_18 
REMARK    8  A    between atoms: C13_20  and  C14_21 
REMARK    9  A    between atoms: C14_21  and  O5_22 
REMARK   10  A    between atoms: C15_24  and  O6_25 
REMARK   11  A    between atoms: C16_27  and  O7_28 
REMARK   12  A    between atoms: C17_30  and  O8_31 
REMARK   13  A    between atoms: C19_34  and  N3_35 
ROOT
HETATM    1  C9  UNL     1      48.105   0.192  -2.003  1.00  0.00     0.037 A 
HETATM    2  C10 UNL     1      49.472   0.034  -2.058  1.00  0.00     0.054 A 
HETATM    3  C11 UNL     1      50.344   0.750  -1.269  1.00  0.00     0.075 A 
HETATM    4  C18 UNL     1      49.805   1.666  -0.390  1.00  0.00     0.073 A 
HETATM    5  C19 UNL     1      48.419   1.847  -0.314  1.00  0.00     0.106 A 
HETATM    6  C20 UNL     1      47.574   1.109  -1.121  1.00  0.00     0.053 A 
ENDROOT
BRANCH   3   7
HETATM    7  O3  UNL     1      51.689   0.596  -1.320  1.00  0.00    -0.318 OA
BRANCH   7   8
HETATM    8  C12 UNL     1      52.637   1.136  -2.162  1.00  0.00     0.298 C 
HETATM    9  O4  UNL     1      53.535   1.964  -1.499  1.00  0.00    -0.348 OA
HETATM   10  C13 UNL     1      54.335   2.668  -2.388  1.00  0.00     0.179 C 
HETATM   11  C15 UNL     1      54.629   1.949  -3.661  1.00  0.00     0.180 C 
HETATM   12  C16 UNL     1      54.592   0.457  -3.545  1.00  0.00     0.183 C 
HETATM   13  C17 UNL     1      53.342  -0.001  -2.874  1.00  0.00     0.205 C 
BRANCH  10  14
HETATM   14  C14 UNL     1      53.692   4.004  -2.786  1.00  0.00     0.198 C 
BRANCH  14  15
HETATM   15  O5  UNL     1      53.299   4.748  -1.702  1.00  0.00    -0.398 OA
ATOM     16  H5  UNL     1      53.539   5.663  -1.778  1.00  0.00     0.209 HD
ENDBRANCH  14  15
ENDBRANCH  10  14
BRANCH  11  17
HETATM   17  O6  UNL     1      53.783   2.412  -4.691  1.00  0.00    -0.390 OA
ATOM     18  H6  UNL     1      53.880   1.869  -5.466  1.00  0.00     0.210 HD
ENDBRANCH  11  17
BRANCH  12  19
HETATM   19  O7  UNL     1      54.709  -0.064  -4.851  1.00  0.00    -0.390 OA
ATOM     20  H7  UNL     1      55.572  -0.458  -4.917  1.00  0.00     0.210 HD
ENDBRANCH  12  19
BRANCH  13  21
HETATM   21  O8  UNL     1      53.542  -1.049  -2.004  1.00  0.00    -0.388 OA
ATOM     22  H8  UNL     1      54.121  -1.691  -2.398  1.00  0.00     0.210 HD
ENDBRANCH  13  21
ENDBRANCH   7   8
ENDBRANCH   3   7
BRANCH   1  23
HETATM   23  C1  UNL     1      47.174  -0.558  -2.858  1.00  0.00     0.251 C 
HETATM   24  O1  UNL     1      46.721  -1.606  -2.382  1.00  0.00    -0.268 OA
HETATM   25  N1  UNL     1      46.866  -0.045  -4.129  1.00  0.00    -0.357 N 
ATOM     26  H1  UNL     1      47.291   0.844  -4.392  1.00  0.00     0.162 HD
BRANCH  25  27
HETATM   27  C2  UNL     1      46.012  -0.666  -5.075  1.00  0.00     0.124 C 
BRANCH  27  28
HETATM   28  C3  UNL     1      46.578  -1.511  -6.140  1.00  0.00     0.050 C 
BRANCH  28  29
HETATM   29  C4  UNL     1      46.189  -2.927  -6.241  1.00  0.00     0.274 C 
BRANCH  29  30
HETATM   30  N2  UNL     1      47.204  -3.820  -5.659  1.00  0.00     0.092 N 
HETATM   31  C5  UNL     1      47.282  -5.090  -6.310  1.00  0.00     0.298 C 
HETATM   32  C6  UNL     1      48.164  -5.984  -5.420  1.00  0.00     0.198 C 
HETATM   33  O2  UNL     1      49.443  -5.397  -5.496  1.00  0.00    -0.388 OA
HETATM   34  C7  UNL     1      49.451  -4.138  -4.924  1.00  0.00     0.198 C 
HETATM   35  C8  UNL     1      48.522  -3.211  -5.682  1.00  0.00     0.298 C 
ENDBRANCH  29  30
ENDBRANCH  28  29
ENDBRANCH  27  28
ENDBRANCH  25  27
ENDBRANCH   1  23
BRANCH   5  36
HETATM   36  N3  UNL     1      47.881   2.793   0.594  1.00  0.00    -0.116 N 
HETATM   37  O9  UNL     1      48.577   3.742   0.988  1.00  0.00    -0.532 OA
HETATM   38  O10 UNL     1      46.592   2.653   1.030  1.00  0.00    -0.532 OA
ENDBRANCH   5  36
TORSDOF 13
ENDMDL
