MODEL 8
REMARK VINA RESULT: -6.662587607      2.349      9.976
REMARK  13 active torsions:
REMARK  status: ('A' for Active; 'I' for Inactive)
REMARK       I    between atoms: C1_2  and  N1_3 
REMARK    1  A    between atoms: C1_2  and  C9_14 
REMARK    2  A    between atoms: N1_3  and  C2_5 
REMARK    3  A    between atoms: C2_5  and  C3_6 
REMARK    4  A    between atoms: C3_6  and  C4_7 
REMARK    5  A    between atoms: C4_7  and  N2_8 
REMARK    6  A    between atoms: C11_16  and  O3_17 
REMARK    7  A    between atoms: O3_17  and  C12_18 
REMARK    8  A    between atoms: C13_20  and  C14_21 
REMARK    9  A    between atoms: C14_21  and  O5_22 
REMARK   10  A    between atoms: C15_24  and  O6_25 
REMARK   11  A    between atoms: C16_27  and  O7_28 
REMARK   12  A    between atoms: C17_30  and  O8_31 
REMARK   13  A    between atoms: C19_34  and  N3_35 
ROOT
HETATM    1  C9  UNL     1      50.270  -2.556  -3.442  1.00  0.00     0.037 A 
HETATM    2  C10 UNL     1      50.271  -3.674  -4.245  1.00  0.00     0.054 A 
HETATM    3  C11 UNL     1      49.161  -4.104  -4.936  1.00  0.00     0.075 A 
HETATM    4  C18 UNL     1      48.002  -3.369  -4.805  1.00  0.00     0.073 A 
HETATM    5  C19 UNL     1      47.973  -2.228  -3.995  1.00  0.00     0.106 A 
HETATM    6  C20 UNL     1      49.108  -1.825  -3.317  1.00  0.00     0.053 A 
ENDROOT
BRANCH   3   7
HETATM    7  O3  UNL     1      49.159  -5.203  -5.729  1.00  0.00    -0.318 OA
BRANCH   7   8
HETATM    8  C12 UNL     1      49.221  -6.546  -5.424  1.00  0.00     0.298 C 
HETATM    9  O4  UNL     1      48.260  -7.294  -6.094  1.00  0.00    -0.348 OA
HETATM   10  C13 UNL     1      48.191  -8.593  -5.609  1.00  0.00     0.179 C 
HETATM   11  C15 UNL     1      49.486  -9.136  -5.106  1.00  0.00     0.180 C 
HETATM   12  C16 UNL     1      50.695  -8.526  -5.743  1.00  0.00     0.183 C 
HETATM   13  C17 UNL     1      50.623  -7.037  -5.722  1.00  0.00     0.205 C 
BRANCH  10  14
HETATM   14  C14 UNL     1      47.195  -8.708  -4.448  1.00  0.00     0.198 C 
BRANCH  14  15
HETATM   15  O5  UNL     1      46.983 -10.006  -4.056  1.00  0.00    -0.398 OA
ATOM     16  H5  UNL     1      46.891 -10.096  -3.116  1.00  0.00     0.209 HD
ENDBRANCH  14  15
ENDBRANCH  10  14
BRANCH  11  17
HETATM   17  O6  UNL     1      49.538  -9.049  -3.698  1.00  0.00    -0.390 OA
ATOM     18  H6  UNL     1      49.325  -8.168  -3.414  1.00  0.00     0.210 HD
ENDBRANCH  11  17
BRANCH  12  19
HETATM   19  O7  UNL     1      51.821  -9.008  -5.041  1.00  0.00    -0.390 OA
ATOM     20  H7  UNL     1      52.364  -9.471  -5.669  1.00  0.00     0.210 HD
ENDBRANCH  12  19
BRANCH  13  21
HETATM   21  O8  UNL     1      51.090  -6.453  -6.877  1.00  0.00    -0.388 OA
ATOM     22  H8  UNL     1      51.432  -7.118  -7.463  1.00  0.00     0.210 HD
ENDBRANCH  13  21
ENDBRANCH   7   8
ENDBRANCH   3   7
BRANCH   1  23
HETATM   23  C1  UNL     1      51.449  -2.106  -2.688  1.00  0.00     0.251 C 
HETATM   24  O1  UNL     1      52.247  -2.988  -2.347  1.00  0.00    -0.268 OA
HETATM   25  N1  UNL     1      51.588  -0.735  -2.413  1.00  0.00    -0.357 N 
ATOM     26  H1  UNL     1      50.869  -0.109  -2.772  1.00  0.00     0.162 HD
BRANCH  25  27
HETATM   27  C2  UNL     1      52.651  -0.155  -1.675  1.00  0.00     0.124 C 
BRANCH  27  28
HETATM   28  C3  UNL     1      52.362   0.753  -0.552  1.00  0.00     0.050 C 
BRANCH  28  29
HETATM   29  C4  UNL     1      51.619   2.002  -0.788  1.00  0.00     0.274 C 
BRANCH  29  30
HETATM   30  N2  UNL     1      50.171   1.827  -0.595  1.00  0.00     0.092 N 
HETATM   31  C5  UNL     1      49.601   2.777   0.308  1.00  0.00     0.298 C 
HETATM   32  C6  UNL     1      48.175   2.287   0.615  1.00  0.00     0.198 C 
HETATM   33  O2  UNL     1      47.492   2.415  -0.611  1.00  0.00    -0.388 OA
HETATM   34  C7  UNL     1      48.008   1.557  -1.564  1.00  0.00     0.198 C 
HETATM   35  C8  UNL     1      49.454   1.905  -1.855  1.00  0.00     0.298 C 
ENDBRANCH  29  30
ENDBRANCH  28  29
ENDBRANCH  27  28
ENDBRANCH  25  27
ENDBRANCH   1  23
BRANCH   5  36
HETATM   36  N3  UNL     1      46.774  -1.483  -3.870  1.00  0.00    -0.116 N 
HETATM   37  O9  UNL     1      46.333  -1.199  -2.746  1.00  0.00    -0.532 OA
HETATM   38  O10 UNL     1      46.109  -1.080  -4.996  1.00  0.00    -0.532 OA
ENDBRANCH   5  36
TORSDOF 13
ENDMDL
