MODEL 2
REMARK VINA RESULT: -6.889561517      3.396      6.234
REMARK  13 active torsions:
REMARK  status: ('A' for Active; 'I' for Inactive)
REMARK       I    between atoms: C1_2  and  N1_3 
REMARK    1  A    between atoms: C1_2  and  C9_14 
REMARK    2  A    between atoms: N1_3  and  C2_5 
REMARK    3  A    between atoms: C2_5  and  C3_6 
REMARK    4  A    between atoms: C3_6  and  C4_7 
REMARK    5  A    between atoms: C4_7  and  N2_8 
REMARK    6  A    between atoms: C11_16  and  O3_17 
REMARK    7  A    between atoms: O3_17  and  C12_18 
REMARK    8  A    between atoms: C13_20  and  C14_21 
REMARK    9  A    between atoms: C14_21  and  O5_22 
REMARK   10  A    between atoms: C15_24  and  O6_25 
REMARK   11  A    between atoms: C16_27  and  O7_28 
REMARK   12  A    between atoms: C17_30  and  O8_31 
REMARK   13  A    between atoms: C19_34  and  N3_35 
ROOT
HETATM    1  C9  UNL     1      48.051   0.189  -1.926  1.00  0.00     0.037 A 
HETATM    2  C10 UNL     1      49.415   0.016  -1.996  1.00  0.00     0.054 A 
HETATM    3  C11 UNL     1      50.305   0.738  -1.233  1.00  0.00     0.075 A 
HETATM    4  C18 UNL     1      49.787   1.676  -0.364  1.00  0.00     0.073 A 
HETATM    5  C19 UNL     1      48.404   1.872  -0.273  1.00  0.00     0.106 A 
HETATM    6  C20 UNL     1      47.541   1.127  -1.054  1.00  0.00     0.053 A 
ENDROOT
BRANCH   3   7
HETATM    7  O3  UNL     1      51.647   0.570  -1.298  1.00  0.00    -0.318 OA
BRANCH   7   8
HETATM    8  C12 UNL     1      52.592   1.104  -2.147  1.00  0.00     0.298 C 
HETATM    9  O4  UNL     1      53.492   1.938  -1.494  1.00  0.00    -0.348 OA
HETATM   10  C13 UNL     1      54.289   2.636  -2.391  1.00  0.00     0.179 C 
HETATM   11  C15 UNL     1      54.579   1.907  -3.659  1.00  0.00     0.180 C 
HETATM   12  C16 UNL     1      54.543   0.416  -3.531  1.00  0.00     0.183 C 
HETATM   13  C17 UNL     1      53.296  -0.037  -2.853  1.00  0.00     0.205 C 
BRANCH  10  14
HETATM   14  C14 UNL     1      53.644   3.968  -2.797  1.00  0.00     0.198 C 
BRANCH  14  15
HETATM   15  O5  UNL     1      53.270   4.728  -1.717  1.00  0.00    -0.398 OA
ATOM     16  H5  UNL     1      54.007   4.979  -1.172  1.00  0.00     0.209 HD
ENDBRANCH  14  15
ENDBRANCH  10  14
BRANCH  11  17
HETATM   17  O6  UNL     1      53.730   2.362  -4.690  1.00  0.00    -0.390 OA
ATOM     18  H6  UNL     1      53.849   1.834  -5.472  1.00  0.00     0.210 HD
ENDBRANCH  11  17
BRANCH  12  19
HETATM   19  O7  UNL     1      54.657  -0.115  -4.834  1.00  0.00    -0.390 OA
ATOM     20  H7  UNL     1      55.583  -0.255  -4.998  1.00  0.00     0.210 HD
ENDBRANCH  12  19
BRANCH  13  21
HETATM   21  O8  UNL     1      53.500  -1.079  -1.976  1.00  0.00    -0.388 OA
ATOM     22  H8  UNL     1      52.688  -1.290  -1.530  1.00  0.00     0.210 HD
ENDBRANCH  13  21
ENDBRANCH   7   8
ENDBRANCH   3   7
BRANCH   1  23
HETATM   23  C1  UNL     1      47.101  -0.568  -2.754  1.00  0.00     0.251 C 
HETATM   24  O1  UNL     1      46.718  -1.650  -2.293  1.00  0.00    -0.268 OA
HETATM   25  N1  UNL     1      46.700  -0.023  -3.985  1.00  0.00    -0.357 N 
ATOM     26  H1  UNL     1      47.073   0.891  -4.238  1.00  0.00     0.162 HD
BRANCH  25  27
HETATM   27  C2  UNL     1      45.816  -0.645  -4.903  1.00  0.00     0.124 C 
BRANCH  27  28
HETATM   28  C3  UNL     1      46.301  -1.721  -5.783  1.00  0.00     0.050 C 
BRANCH  28  29
HETATM   29  C4  UNL     1      47.502  -1.511  -6.609  1.00  0.00     0.274 C 
BRANCH  29  30
HETATM   30  N2  UNL     1      48.649  -2.294  -6.123  1.00  0.00     0.092 N 
HETATM   31  C5  UNL     1      49.607  -1.512  -5.408  1.00  0.00     0.298 C 
HETATM   32  C6  UNL     1      50.850  -2.401  -5.226  1.00  0.00     0.198 C 
HETATM   33  O2  UNL     1      50.420  -3.427  -4.361  1.00  0.00    -0.388 OA
HETATM   34  C7  UNL     1      49.454  -4.215  -4.960  1.00  0.00     0.198 C 
HETATM   35  C8  UNL     1      48.222  -3.389  -5.270  1.00  0.00     0.298 C 
ENDBRANCH  29  30
ENDBRANCH  28  29
ENDBRANCH  27  28
ENDBRANCH  25  27
ENDBRANCH   1  23
BRANCH   5  36
HETATM   36  N3  UNL     1      47.887   2.840   0.624  1.00  0.00    -0.116 N 
HETATM   37  O9  UNL     1      48.600   3.786   0.995  1.00  0.00    -0.532 OA
HETATM   38  O10 UNL     1      46.601   2.724   1.076  1.00  0.00    -0.532 OA
ENDBRANCH   5  36
TORSDOF 13
ENDMDL
