MODEL 2
REMARK VINA RESULT: -7.260513854      0.117      1.123
REMARK  4 active torsions:
REMARK  status: ('A' for Active; 'I' for Inactive)
REMARK    1  A    between atoms: C3_4  and  N2_5 
REMARK    2  A    between atoms: N2_5  and  C4_7 
REMARK    3  A    between atoms: C7_10  and  S1_11 
REMARK    4  A    between atoms: S1_11  and  N3_12 
ROOT
HETATM    1  C4  UNL     1       9.839  10.278  25.819  1.00  0.00     0.033 A 
HETATM    2  C5  UNL     1      11.043  10.414  25.112  1.00  0.00     0.031 A 
HETATM    3  C6  UNL     1      12.074   9.568  25.330  1.00  0.00     0.027 A 
HETATM    4  C7  UNL     1      11.975   8.556  26.243  1.00  0.00     0.079 A 
HETATM    5  C8  UNL     1      10.820   8.381  26.959  1.00  0.00     0.027 A 
HETATM    6  C9  UNL     1       9.757   9.260  26.729  1.00  0.00     0.031 A 
ENDROOT
BRANCH   1   7
HETATM    7  N2  UNL     1       8.847  11.215  25.522  1.00  0.00    -0.342 N 
ATOM      8  H2  UNL     1       8.452  11.211  24.581  1.00  0.00     0.167 HD
BRANCH   7   9
HETATM    9  C3  UNL     1       8.356  12.173  26.447  1.00  0.00     0.109 A 
HETATM   10  C2  UNL     1       8.859  13.487  26.428  1.00  0.00     0.093 A 
HETATM   11  C1  UNL     1       8.424  14.466  27.287  1.00  0.00     0.120 A 
HETATM   12  N1  UNL     1       8.941  15.790  27.256  1.00  0.00    -0.083 NA
HETATM   13  N5  UNL     1       7.466  14.117  28.179  1.00  0.00    -0.341 N 
HETATM   14  C10 UNL     1       6.972  12.861  28.211  1.00  0.00     0.183 A 
ATOM     15  H5  UNL     1       7.114  14.813  28.836  1.00  0.00     0.167 HD
HETATM   16  N4  UNL     1       7.420  11.939  27.363  1.00  0.00    -0.338 N 
ATOM     17  H4  UNL     1       7.023  11.001  27.418  1.00  0.00     0.168 HD
ENDBRANCH   7   9
ENDBRANCH   1   7
BRANCH   4  18
HETATM   18  S1  UNL     1      13.344   7.500  26.475  1.00  0.00     0.256 S 
HETATM   19  O1  UNL     1      13.680   6.727  25.234  1.00  0.00    -0.201 OA
HETATM   20  O2  UNL     1      14.568   8.338  26.815  1.00  0.00    -0.201 OA
BRANCH  18  21
HETATM   21  N3  UNL     1      13.016   6.433  27.794  1.00  0.00    -0.324 N 
ATOM     22  H32 UNL     1      13.073   5.416  27.745  1.00  0.00     0.169 HD
ATOM     23  H31 UNL     1      12.761   6.985  28.612  1.00  0.00     0.169 HD
ENDBRANCH  18  21
ENDBRANCH   4  18
TORSDOF 4
ENDMDL
