MODEL 3
REMARK VINA RESULT: -7.235733768      1.272      1.950
REMARK  4 active torsions:
REMARK  status: ('A' for Active; 'I' for Inactive)
REMARK    1  A    between atoms: C3_4  and  N2_5 
REMARK    2  A    between atoms: N2_5  and  C4_7 
REMARK    3  A    between atoms: C7_10  and  S1_11 
REMARK    4  A    between atoms: S1_11  and  N3_12 
ROOT
HETATM    1  C4  UNL     1       9.290  10.976  25.994  1.00  0.00     0.033 A 
HETATM    2  C5  UNL     1      10.439  11.287  25.250  1.00  0.00     0.031 A 
HETATM    3  C6  UNL     1      11.505  10.455  25.241  1.00  0.00     0.027 A 
HETATM    4  C7  UNL     1      11.495   9.289  25.954  1.00  0.00     0.079 A 
HETATM    5  C8  UNL     1      10.397   8.941  26.696  1.00  0.00     0.027 A 
HETATM    6  C9  UNL     1       9.298   9.806  26.701  1.00  0.00     0.031 A 
ENDROOT
BRANCH   1   7
HETATM    7  N2  UNL     1       8.256  11.914  25.940  1.00  0.00    -0.342 N 
ATOM      8  H2  UNL     1       7.486  11.739  25.294  1.00  0.00     0.167 HD
BRANCH   7   9
HETATM    9  C3  UNL     1       8.212  13.093  26.727  1.00  0.00     0.109 A 
HETATM   10  C2  UNL     1       8.651  13.060  28.064  1.00  0.00     0.093 A 
HETATM   11  C1  UNL     1       8.645  14.164  28.879  1.00  0.00     0.120 A 
HETATM   12  N1  UNL     1       9.093  14.117  30.229  1.00  0.00    -0.083 NA
HETATM   13  N5  UNL     1       8.189  15.322  28.342  1.00  0.00    -0.341 N 
HETATM   14  C10 UNL     1       7.764  15.371  27.061  1.00  0.00     0.183 A 
ATOM     15  H5  UNL     1       8.166  16.166  28.913  1.00  0.00     0.167 HD
HETATM   16  N4  UNL     1       7.784  14.279  26.301  1.00  0.00    -0.338 N 
ATOM     17  H4  UNL     1       7.454  14.356  25.339  1.00  0.00     0.168 HD
ENDBRANCH   7   9
ENDBRANCH   1   7
BRANCH   4  18
HETATM   18  S1  UNL     1      12.903   8.261  25.898  1.00  0.00     0.256 S 
HETATM   19  O1  UNL     1      13.216   7.804  24.504  1.00  0.00    -0.201 OA
HETATM   20  O2  UNL     1      14.113   9.048  26.383  1.00  0.00    -0.201 OA
BRANCH  18  21
HETATM   21  N3  UNL     1      12.659   6.912  26.948  1.00  0.00    -0.324 N 
ATOM     22  H32 UNL     1      12.092   6.095  26.721  1.00  0.00     0.169 HD
ATOM     23  H31 UNL     1      13.169   7.069  27.817  1.00  0.00     0.169 HD
ENDBRANCH  18  21
ENDBRANCH   4  18
TORSDOF 4
ENDMDL
