MODEL 1
REMARK VINA RESULT: -7.358771839      0.000      0.000
REMARK  4 active torsions:
REMARK  status: ('A' for Active; 'I' for Inactive)
REMARK    1  A    between atoms: C3_4  and  N2_5 
REMARK    2  A    between atoms: N2_5  and  C4_7 
REMARK    3  A    between atoms: C7_10  and  S1_11 
REMARK    4  A    between atoms: S1_11  and  N3_12 
ROOT
HETATM    1  C4  UNL     1       9.867  10.367  25.695  1.00  0.00     0.033 A 
HETATM    2  C5  UNL     1       9.765   9.314  26.618  1.00  0.00     0.031 A 
HETATM    3  C6  UNL     1      10.810   8.488  26.846  1.00  0.00     0.027 A 
HETATM    4  C7  UNL     1      11.996   8.653  26.187  1.00  0.00     0.079 A 
HETATM    5  C8  UNL     1      12.146   9.665  25.276  1.00  0.00     0.027 A 
HETATM    6  C9  UNL     1      11.061  10.516  25.045  1.00  0.00     0.031 A 
ENDROOT
BRANCH   1   7
HETATM    7  N2  UNL     1       8.722  11.148  25.531  1.00  0.00    -0.342 N 
ATOM      8  H2  UNL     1       8.169  11.016  24.684  1.00  0.00     0.167 HD
BRANCH   7   9
HETATM    9  C3  UNL     1       8.280  12.115  26.470  1.00  0.00     0.109 A 
HETATM   10  C2  UNL     1       8.801  13.422  26.429  1.00  0.00     0.093 A 
HETATM   11  C1  UNL     1       8.412  14.409  27.300  1.00  0.00     0.120 A 
HETATM   12  N1  UNL     1       8.948  15.726  27.246  1.00  0.00    -0.083 NA
HETATM   13  N5  UNL     1       7.483  14.077  28.228  1.00  0.00    -0.341 N 
HETATM   14  C10 UNL     1       6.971  12.828  28.282  1.00  0.00     0.183 A 
ATOM     15  H5  UNL     1       7.165  14.780  28.895  1.00  0.00     0.167 HD
HETATM   16  N4  UNL     1       7.374  11.898  27.421  1.00  0.00    -0.338 N 
ATOM     17  H4  UNL     1       6.966  10.966  27.493  1.00  0.00     0.168 HD
ENDBRANCH   7   9
ENDBRANCH   1   7
BRANCH   4  18
HETATM   18  S1  UNL     1      13.304   7.551  26.529  1.00  0.00     0.256 S 
HETATM   19  O1  UNL     1      13.655   6.702  25.344  1.00  0.00    -0.201 OA
HETATM   20  O2  UNL     1      14.551   8.351  26.881  1.00  0.00    -0.201 OA
BRANCH  18  21
HETATM   21  N3  UNL     1      12.873   6.568  27.884  1.00  0.00    -0.324 N 
ATOM     22  H32 UNL     1      11.924   6.268  28.104  1.00  0.00     0.169 HD
ATOM     23  H31 UNL     1      13.716   6.344  28.413  1.00  0.00     0.169 HD
ENDBRANCH  18  21
ENDBRANCH   4  18
TORSDOF 4
ENDMDL
