MODEL 3
REMARK VINA RESULT: -5.118279448      1.227      1.528
REMARK  3 active torsions:
REMARK  status: ('A' for Active; 'I' for Inactive)
REMARK    1  A    between atoms: C2_2  and  C3_3 
REMARK    2  A    between atoms: C2_2  and  C4_5 
REMARK       I    between atoms: C4_5  and  N1_7 
REMARK    3  A    between atoms: C8_11  and  C9_12 
ROOT
HETATM    1  C4  UNL     1      14.730   0.797  21.974  1.00  0.00     0.225 C 
HETATM    2  O1  UNL     1      15.194   1.458  21.019  1.00  0.00    -0.273 OA
HETATM    3  N1  UNL     1      15.054   1.168  23.296  1.00  0.00    -0.337 N 
HETATM    4  C5  UNL     1      14.581   0.470  24.471  1.00  0.00     0.127 C 
HETATM    5  C6  UNL     1      14.319   1.606  25.429  1.00  0.00     0.022 C 
HETATM    6  C7  UNL     1      15.653   2.359  25.280  1.00  0.00     0.038 C 
HETATM    7  C8  UNL     1      15.884   2.255  23.765  1.00  0.00     0.188 C 
ENDROOT
BRANCH   1   8
HETATM    8  C2  UNL     1      13.858  -0.348  21.682  1.00  0.00     0.084 C 
HETATM    9  C1  UNL     1      14.619  -1.654  21.668  1.00  0.00     0.020 C 
BRANCH   8  10
HETATM   10  C3  UNL     1      13.128  -0.173  20.368  1.00  0.00     0.099 C 
HETATM   11  S1  UNL     1      12.038  -1.578  20.028  1.00  0.00    -0.097 SA
ENDBRANCH   8  10
ENDBRANCH   1   8
BRANCH   7  12
HETATM   12  C9  UNL     1      15.619   3.542  23.118  1.00  0.00     0.196 C 
HETATM   13  O2  UNL     1      14.432   3.893  22.919  1.00  0.00    -0.646 OA
HETATM   14  O3  UNL     1      16.621   4.400  22.711  1.00  0.00    -0.646 OA
ENDBRANCH   7  12
TORSDOF 3
ENDMDL
