MODEL 1
REMARK VINA RESULT: -5.151361286      0.000      0.000
REMARK  3 active torsions:
REMARK  status: ('A' for Active; 'I' for Inactive)
REMARK    1  A    between atoms: C2_2  and  C3_3 
REMARK    2  A    between atoms: C2_2  and  C4_5 
REMARK       I    between atoms: C4_5  and  N1_7 
REMARK    3  A    between atoms: C8_11  and  C9_12 
ROOT
HETATM    1  C4  UNL     1      14.013   0.084  21.316  1.00  0.00     0.225 C 
HETATM    2  O1  UNL     1      14.624   0.699  20.414  1.00  0.00    -0.273 OA
HETATM    3  N1  UNL     1      14.427   0.229  22.657  1.00  0.00    -0.337 N 
HETATM    4  C5  UNL     1      13.800  -0.441  23.774  1.00  0.00     0.127 C 
HETATM    5  C6  UNL     1      13.838   0.624  24.842  1.00  0.00     0.022 C 
HETATM    6  C7  UNL     1      15.318   1.029  24.725  1.00  0.00     0.038 C 
HETATM    7  C8  UNL     1      15.507   1.022  23.201  1.00  0.00     0.188 C 
ENDROOT
BRANCH   1   8
HETATM    8  C2  UNL     1      12.880  -0.772  20.943  1.00  0.00     0.084 C 
HETATM    9  C1  UNL     1      13.183  -2.238  21.144  1.00  0.00     0.020 C 
BRANCH   8  10
HETATM   10  C3  UNL     1      12.449  -0.535  19.512  1.00  0.00     0.099 C 
HETATM   11  S1  UNL     1      11.341  -1.845  18.932  1.00  0.00    -0.097 SA
ENDBRANCH   8  10
ENDBRANCH   1   8
BRANCH   7  12
HETATM   12  C9  UNL     1      15.572   2.392  22.687  1.00  0.00     0.196 C 
HETATM   13  O2  UNL     1      16.486   2.701  21.886  1.00  0.00    -0.646 OA
HETATM   14  O3  UNL     1      14.670   3.373  23.045  1.00  0.00    -0.646 OA
ENDBRANCH   7  12
TORSDOF 3
ENDMDL
