MODEL 2
REMARK VINA RESULT: -5.146771166      3.009      4.349
REMARK  3 active torsions:
REMARK  status: ('A' for Active; 'I' for Inactive)
REMARK    1  A    between atoms: C2_2  and  C3_3 
REMARK    2  A    between atoms: C2_2  and  C4_5 
REMARK       I    between atoms: C4_5  and  N1_7 
REMARK    3  A    between atoms: C8_11  and  C9_12 
ROOT
HETATM    1  C4  UNL     1      14.928  -0.401  24.226  1.00  0.00     0.225 C 
HETATM    2  O1  UNL     1      14.555  -1.340  23.489  1.00  0.00    -0.273 OA
HETATM    3  N1  UNL     1      15.481   0.759  23.644  1.00  0.00    -0.337 N 
HETATM    4  C5  UNL     1      15.952   1.898  24.401  1.00  0.00     0.127 C 
HETATM    5  C6  UNL     1      15.515   3.054  23.535  1.00  0.00     0.022 C 
HETATM    6  C7  UNL     1      16.056   2.560  22.182  1.00  0.00     0.038 C 
HETATM    7  C8  UNL     1      15.702   1.068  22.248  1.00  0.00     0.188 C 
ENDROOT
BRANCH   1   8
HETATM    8  C2  UNL     1      14.775  -0.540  25.679  1.00  0.00     0.084 C 
HETATM    9  C1  UNL     1      15.313  -1.858  26.185  1.00  0.00     0.020 C 
BRANCH   8  10
HETATM   10  C3  UNL     1      13.330  -0.387  26.106  1.00  0.00     0.099 C 
HETATM   11  S1  UNL     1      12.984   1.300  26.666  1.00  0.00    -0.097 SA
ENDBRANCH   8  10
ENDBRANCH   1   8
BRANCH   7  12
HETATM   12  C9  UNL     1      14.565   0.773  21.375  1.00  0.00     0.196 C 
HETATM   13  O2  UNL     1      13.617   1.591  21.309  1.00  0.00    -0.646 OA
HETATM   14  O3  UNL     1      14.480  -0.374  20.611  1.00  0.00    -0.646 OA
ENDBRANCH   7  12
TORSDOF 3
ENDMDL
