MODEL 8
REMARK VINA RESULT: -5.827888116      7.718     10.131
REMARK  7 active torsions:
REMARK  status: ('A' for Active; 'I' for Inactive)
REMARK    1  A    between atoms: N1_1  and  C1_4 
REMARK    2  A    between atoms: N2_7  and  C4_8 
REMARK    3  A    between atoms: C5_10  and  C6_11 
REMARK    4  A    between atoms: C6_11  and  O2_12 
REMARK    5  A    between atoms: C7_14  and  O3_15 
REMARK    6  A    between atoms: C8_17  and  O4_18 
REMARK    7  A    between atoms: O4_18  and  P1_19 
ROOT
HETATM    1  C4  UNL     1      33.843   8.361  22.974  1.00  0.00     0.264 C 
HETATM    2  O1  UNL     1      34.420   8.638  21.767  1.00  0.00    -0.353 OA
HETATM    3  C5  UNL     1      34.681   9.972  21.669  1.00  0.00     0.179 C 
HETATM    4  C7  UNL     1      34.117  10.682  22.851  1.00  0.00     0.183 C 
HETATM    5  C8  UNL     1      34.032   9.547  23.877  1.00  0.00     0.216 C 
ENDROOT
BRANCH   1   6
HETATM    6  N2  UNL     1      34.413   7.144  23.495  1.00  0.00    -0.280 N 
HETATM    7  C3  UNL     1      35.705   6.886  23.220  1.00  0.00     0.102 A 
HETATM    8  C2  UNL     1      36.334   5.730  23.686  1.00  0.00     0.065 A 
HETATM    9  C1  UNL     1      35.619   4.827  24.446  1.00  0.00     0.103 A 
HETATM   10  N3  UNL     1      34.326   5.131  24.696  1.00  0.00    -0.295 N 
HETATM   11  C9  UNL     1      33.751   6.255  24.230  1.00  0.00     0.330 A 
ATOM     12  H3  UNL     1      33.768   4.487  25.256  1.00  0.00     0.172 HD
HETATM   13  O8  UNL     1      32.543   6.462  24.507  1.00  0.00    -0.246 OA
BRANCH   9  14
HETATM   14  N1  UNL     1      36.177   3.747  24.891  1.00  0.00    -0.385 N 
ATOM     15  H12 UNL     1      35.914   2.819  24.561  1.00  0.00     0.157 HD
ATOM     16  H11 UNL     1      36.909   3.792  25.601  1.00  0.00     0.157 HD
ENDBRANCH   9  14
ENDBRANCH   1   6
BRANCH   5  17
HETATM   17  O4  UNL     1      32.912   9.687  24.647  1.00  0.00    -0.270 OA
BRANCH  17  18
HETATM   18  P1  UNL     1      33.089  10.964  25.678  1.00  0.00     0.422 P 
HETATM   19  O5  UNL     1      33.881  10.624  27.163  1.00  0.00    -0.617 OA
HETATM   20  O6  UNL     1      31.769  10.621  26.371  1.00  0.00    -0.617 OA
HETATM   21  O7  UNL     1      32.786  12.481  25.268  1.00  0.00    -0.617 OA
ENDBRANCH  17  18
ENDBRANCH   5  17
BRANCH   3  22
HETATM   22  C6  UNL     1      36.162  10.221  21.479  1.00  0.00     0.198 C 
BRANCH  22  23
HETATM   23  O2  UNL     1      36.458   9.929  20.147  1.00  0.00    -0.398 OA
ATOM     24  H2  UNL     1      36.407   8.985  20.052  1.00  0.00     0.209 HD
ENDBRANCH  22  23
ENDBRANCH   3  22
BRANCH   4  25
HETATM   25  O3  UNL     1      32.838  11.146  22.555  1.00  0.00    -0.390 OA
ATOM     26  H3  UNL     1      32.747  12.044  22.849  1.00  0.00     0.210 HD
ENDBRANCH   4  25
TORSDOF 7
ENDMDL
