MODEL 5
REMARK VINA RESULT: -6.013169904      3.226      5.235
REMARK  7 active torsions:
REMARK  status: ('A' for Active; 'I' for Inactive)
REMARK    1  A    between atoms: N1_1  and  C1_4 
REMARK    2  A    between atoms: N2_7  and  C4_8 
REMARK    3  A    between atoms: C5_10  and  C6_11 
REMARK    4  A    between atoms: C6_11  and  O2_12 
REMARK    5  A    between atoms: C7_14  and  O3_15 
REMARK    6  A    between atoms: C8_17  and  O4_18 
REMARK    7  A    between atoms: O4_18  and  P1_19 
ROOT
HETATM    1  C4  UNL     1      38.215   1.821  24.011  1.00  0.00     0.264 C 
HETATM    2  O1  UNL     1      38.502   0.489  23.924  1.00  0.00    -0.353 OA
HETATM    3  C5  UNL     1      37.412  -0.248  24.283  1.00  0.00     0.179 C 
HETATM    4  C7  UNL     1      36.337   0.656  24.779  1.00  0.00     0.183 C 
HETATM    5  C8  UNL     1      36.725   1.984  24.120  1.00  0.00     0.216 C 
ENDROOT
BRANCH   1   6
HETATM    6  N2  UNL     1      38.786   2.496  22.872  1.00  0.00    -0.280 N 
HETATM    7  C3  UNL     1      38.190   2.327  21.677  1.00  0.00     0.102 A 
HETATM    8  C2  UNL     1      38.679   2.944  20.524  1.00  0.00     0.065 A 
HETATM    9  C1  UNL     1      39.798   3.747  20.606  1.00  0.00     0.103 A 
HETATM   10  N3  UNL     1      40.359   3.887  21.827  1.00  0.00    -0.295 N 
HETATM   11  C9  UNL     1      39.862   3.276  22.919  1.00  0.00     0.330 A 
ATOM     12  H3  UNL     1      41.187   4.474  21.925  1.00  0.00     0.172 HD
HETATM   13  O8  UNL     1      40.445   3.457  24.017  1.00  0.00    -0.246 OA
BRANCH   9  14
HETATM   14  N1  UNL     1      40.272   4.332  19.553  1.00  0.00    -0.385 N 
ATOM     15  H12 UNL     1      39.684   4.858  18.907  1.00  0.00     0.157 HD
ATOM     16  H11 UNL     1      41.267   4.283  19.331  1.00  0.00     0.157 HD
ENDBRANCH   9  14
ENDBRANCH   1   6
BRANCH   5  17
HETATM   17  O4  UNL     1      36.464   3.025  24.964  1.00  0.00    -0.270 OA
BRANCH  17  18
HETATM   18  P1  UNL     1      35.872   4.310  24.115  1.00  0.00     0.422 P 
HETATM   19  O5  UNL     1      34.320   4.872  24.588  1.00  0.00    -0.617 OA
HETATM   20  O6  UNL     1      35.170   3.373  23.132  1.00  0.00    -0.617 OA
HETATM   21  O7  UNL     1      36.746   5.168  23.083  1.00  0.00    -0.617 OA
ENDBRANCH  17  18
ENDBRANCH   5  17
BRANCH   3  22
HETATM   22  C6  UNL     1      36.961  -1.136  23.142  1.00  0.00     0.198 C 
BRANCH  22  23
HETATM   23  O2  UNL     1      35.630  -1.473  23.391  1.00  0.00    -0.398 OA
ATOM     24  H2  UNL     1      35.103  -0.720  23.149  1.00  0.00     0.209 HD
ENDBRANCH  22  23
ENDBRANCH   3  22
BRANCH   4  25
HETATM   25  O3  UNL     1      36.423   0.773  26.163  1.00  0.00    -0.390 OA
ATOM     26  H3  UNL     1      35.580   1.029  26.517  1.00  0.00     0.210 HD
ENDBRANCH   4  25
TORSDOF 7
ENDMDL
