MODEL 1
REMARK VINA RESULT: -6.455015785      0.000      0.000
REMARK  7 active torsions:
REMARK  status: ('A' for Active; 'I' for Inactive)
REMARK    1  A    between atoms: N1_1  and  C1_4 
REMARK    2  A    between atoms: N2_7  and  C4_8 
REMARK    3  A    between atoms: C5_10  and  C6_11 
REMARK    4  A    between atoms: C6_11  and  O2_12 
REMARK    5  A    between atoms: C7_14  and  O3_15 
REMARK    6  A    between atoms: C8_17  and  O4_18 
REMARK    7  A    between atoms: O4_18  and  P1_19 
ROOT
HETATM    1  C4  UNL     1      38.410   0.928  24.405  1.00  0.00     0.264 C 
HETATM    2  O1  UNL     1      39.499   1.536  23.849  1.00  0.00    -0.353 OA
HETATM    3  C5  UNL     1      40.089   0.703  22.945  1.00  0.00     0.179 C 
HETATM    4  C7  UNL     1      39.424  -0.630  22.984  1.00  0.00     0.183 C 
HETATM    5  C8  UNL     1      38.055  -0.272  23.574  1.00  0.00     0.216 C 
ENDROOT
BRANCH   1   6
HETATM    6  N2  UNL     1      37.342   1.890  24.511  1.00  0.00    -0.280 N 
HETATM    7  C3  UNL     1      37.391   2.974  23.714  1.00  0.00     0.102 A 
HETATM    8  C2  UNL     1      36.398   3.954  23.754  1.00  0.00     0.065 A 
HETATM    9  C1  UNL     1      35.339   3.814  24.628  1.00  0.00     0.103 A 
HETATM   10  N3  UNL     1      35.335   2.709  25.406  1.00  0.00    -0.295 N 
HETATM   11  C9  UNL     1      36.310   1.784  25.342  1.00  0.00     0.330 A 
ATOM     12  H3  UNL     1      34.567   2.572  26.063  1.00  0.00     0.172 HD
HETATM   13  O8  UNL     1      36.231   0.786  26.101  1.00  0.00    -0.246 OA
BRANCH   9  14
HETATM   14  N1  UNL     1      34.404   4.707  24.685  1.00  0.00    -0.385 N 
ATOM     15  H12 UNL     1      34.598   5.707  24.636  1.00  0.00     0.157 HD
ATOM     16  H11 UNL     1      33.426   4.434  24.784  1.00  0.00     0.157 HD
ENDBRANCH   9  14
ENDBRANCH   1   6
BRANCH   5  17
HETATM   17  O4  UNL     1      37.625  -1.265  24.407  1.00  0.00    -0.270 OA
BRANCH  17  18
HETATM   18  P1  UNL     1      37.087  -2.553  23.527  1.00  0.00     0.422 P 
HETATM   19  O5  UNL     1      35.468  -2.452  22.964  1.00  0.00    -0.617 OA
HETATM   20  O6  UNL     1      36.545  -3.225  24.789  1.00  0.00    -0.617 OA
HETATM   21  O7  UNL     1      38.041  -3.722  22.994  1.00  0.00    -0.617 OA
ENDBRANCH  17  18
ENDBRANCH   5  17
BRANCH   3  22
HETATM   22  C6  UNL     1      40.096   1.321  21.564  1.00  0.00     0.198 C 
BRANCH  22  23
HETATM   23  O2  UNL     1      40.021   0.272  20.647  1.00  0.00    -0.398 OA
ATOM     24  H2  UNL     1      40.832  -0.218  20.719  1.00  0.00     0.209 HD
ENDBRANCH  22  23
ENDBRANCH   3  22
BRANCH   4  25
HETATM   25  O3  UNL     1      40.109  -1.472  23.857  1.00  0.00    -0.390 OA
ATOM     26  H3  UNL     1      39.914  -1.230  24.754  1.00  0.00     0.210 HD
ENDBRANCH   4  25
TORSDOF 7
ENDMDL
