MODEL 2
REMARK VINA RESULT: -6.437473922      6.629      8.322
REMARK  7 active torsions:
REMARK  status: ('A' for Active; 'I' for Inactive)
REMARK    1  A    between atoms: N1_1  and  C1_4 
REMARK    2  A    between atoms: N2_7  and  C4_8 
REMARK    3  A    between atoms: C5_10  and  C6_11 
REMARK    4  A    between atoms: C6_11  and  O2_12 
REMARK    5  A    between atoms: C7_14  and  O3_15 
REMARK    6  A    between atoms: C8_17  and  O4_18 
REMARK    7  A    between atoms: O4_18  and  P1_19 
ROOT
HETATM    1  C4  UNL     1      38.241  -5.883  21.092  1.00  0.00     0.264 C 
HETATM    2  O1  UNL     1      38.368  -7.243  21.104  1.00  0.00    -0.353 OA
HETATM    3  C5  UNL     1      37.583  -7.777  22.083  1.00  0.00     0.179 C 
HETATM    4  C7  UNL     1      36.973  -6.683  22.889  1.00  0.00     0.183 C 
HETATM    5  C8  UNL     1      37.035  -5.508  21.907  1.00  0.00     0.216 C 
ENDROOT
BRANCH   1   6
HETATM    6  N2  UNL     1      38.175  -5.433  19.725  1.00  0.00    -0.280 N 
HETATM    7  C3  UNL     1      37.581  -6.238  18.825  1.00  0.00     0.102 A 
HETATM    8  C2  UNL     1      37.474  -5.878  17.481  1.00  0.00     0.065 A 
HETATM    9  C1  UNL     1      37.989  -4.669  17.058  1.00  0.00     0.103 A 
HETATM   10  N3  UNL     1      38.574  -3.895  17.999  1.00  0.00    -0.295 N 
HETATM   11  C9  UNL     1      38.660  -4.274  19.287  1.00  0.00     0.330 A 
ATOM     12  H3  UNL     1      38.964  -2.994  17.723  1.00  0.00     0.172 HD
HETATM   13  O8  UNL     1      39.222  -3.496  20.098  1.00  0.00    -0.246 OA
BRANCH   9  14
HETATM   14  N1  UNL     1      37.903  -4.309  15.818  1.00  0.00    -0.385 N 
ATOM     15  H12 UNL     1      38.481  -3.568  15.422  1.00  0.00     0.157 HD
ATOM     16  H11 UNL     1      37.242  -4.763  15.186  1.00  0.00     0.157 HD
ENDBRANCH   9  14
ENDBRANCH   1   6
BRANCH   5  17
HETATM   17  O4  UNL     1      37.308  -4.347  22.574  1.00  0.00    -0.270 OA
BRANCH  17  18
HETATM   18  P1  UNL     1      35.913  -3.692  23.165  1.00  0.00     0.422 P 
HETATM   19  O5  UNL     1      35.768  -1.987  23.024  1.00  0.00    -0.617 OA
HETATM   20  O6  UNL     1      36.566  -3.465  24.529  1.00  0.00    -0.617 OA
HETATM   21  O7  UNL     1      34.649  -4.562  23.619  1.00  0.00    -0.617 OA
ENDBRANCH  17  18
ENDBRANCH   5  17
BRANCH   3  22
HETATM   22  C6  UNL     1      36.558  -8.724  21.497  1.00  0.00     0.198 C 
BRANCH  22  23
HETATM   23  O2  UNL     1      35.416  -8.633  22.295  1.00  0.00    -0.398 OA
ATOM     24  H2  UNL     1      35.343  -9.454  22.769  1.00  0.00     0.209 HD
ENDBRANCH  22  23
ENDBRANCH   3  22
BRANCH   4  25
HETATM   25  O3  UNL     1      37.771  -6.414  23.997  1.00  0.00    -0.390 OA
ATOM     26  H3  UNL     1      38.370  -5.706  23.797  1.00  0.00     0.210 HD
ENDBRANCH   4  25
TORSDOF 7
ENDMDL
