MODEL 15
REMARK VINA RESULT: -4.721986235      3.440      5.787
REMARK  0 active torsions:
REMARK  status: ('A' for Active; 'I' for Inactive)
ROOT
HETATM    1  N1  UNL     1     -10.748 -41.229  -1.946  1.00  0.00    -0.080 NA
HETATM    2  C1  UNL     1      -9.929 -40.608  -0.966  1.00  0.00     0.147 A 
HETATM    3  N2  UNL     1     -10.083 -40.843   0.353  1.00  0.00    -0.339 N 
ATOM      4  H2  UNL     1     -10.808 -41.487   0.668  1.00  0.00     0.167 HD
HETATM    5  C2  UNL     1      -9.289 -40.237   1.264  1.00  0.00     0.183 A 
HETATM    6  N3  UNL     1      -8.312 -39.375   0.921  1.00  0.00    -0.337 N 
ATOM      7  H3  UNL     1      -7.733 -38.935   1.636  1.00  0.00     0.168 HD
HETATM    8  C3  UNL     1      -8.116 -39.103  -0.385  1.00  0.00     0.137 A 
HETATM    9  N4  UNL     1      -7.263 -38.318  -1.082  1.00  0.00    -0.337 N 
ATOM     10  H4  UNL     1      -6.540 -37.731  -0.665  1.00  0.00     0.168 HD
HETATM   11  C4  UNL     1      -7.504 -38.419  -2.400  1.00  0.00     0.182 A 
HETATM   12  N5  UNL     1      -8.526 -39.282  -2.538  1.00  0.00    -0.347 N 
ATOM     13  H5  UNL     1      -8.938 -39.563  -3.427  1.00  0.00     0.167 HD
HETATM   14  C5  UNL     1      -8.926 -39.721  -1.327  1.00  0.00     0.119 A 
ENDROOT
TORSDOF 0
ENDMDL
