MODEL 20
REMARK VINA RESULT: -4.507948116      9.948     10.486
REMARK  0 active torsions:
REMARK  status: ('A' for Active; 'I' for Inactive)
ROOT
HETATM    1  N1  UNL     1       0.095 -30.067   5.421  1.00  0.00    -0.080 NA
HETATM    2  C1  UNL     1      -0.953 -30.836   5.991  1.00  0.00     0.147 A 
HETATM    3  N2  UNL     1      -0.759 -32.090   6.447  1.00  0.00    -0.339 N 
ATOM      4  H2  UNL     1       0.169 -32.509   6.386  1.00  0.00     0.167 HD
HETATM    5  C2  UNL     1      -1.776 -32.800   6.984  1.00  0.00     0.183 A 
HETATM    6  N3  UNL     1      -3.027 -32.312   7.096  1.00  0.00    -0.337 N 
ATOM      7  H3  UNL     1      -3.770 -32.877   7.506  1.00  0.00     0.168 HD
HETATM    8  C3  UNL     1      -3.277 -31.062   6.654  1.00  0.00     0.137 A 
HETATM    9  N4  UNL     1      -4.370 -30.267   6.602  1.00  0.00    -0.337 N 
ATOM     10  H4  UNL     1      -5.297 -30.529   6.936  1.00  0.00     0.168 HD
HETATM   11  C4  UNL     1      -4.060 -29.082   6.049  1.00  0.00     0.182 A 
HETATM   12  N5  UNL     1      -2.751 -29.131   5.746  1.00  0.00    -0.347 N 
ATOM     13  H5  UNL     1      -2.222 -28.375   5.311  1.00  0.00     0.167 HD
HETATM   14  C5  UNL     1      -2.239 -30.326   6.102  1.00  0.00     0.119 A 
ENDROOT
TORSDOF 0
ENDMDL
