MODEL 6
REMARK VINA RESULT: -4.992654731      1.017      2.406
REMARK  0 active torsions:
REMARK  status: ('A' for Active; 'I' for Inactive)
ROOT
HETATM    1  N1  UNL     1      -4.412 -34.115  -1.988  1.00  0.00    -0.080 NA
HETATM    2  C1  UNL     1      -4.499 -35.357  -1.305  1.00  0.00     0.147 A 
HETATM    3  N2  UNL     1      -3.730 -35.644  -0.235  1.00  0.00    -0.339 N 
ATOM      4  H2  UNL     1      -3.061 -34.953   0.103  1.00  0.00     0.167 HD
HETATM    5  C2  UNL     1      -3.835 -36.835   0.397  1.00  0.00     0.183 A 
HETATM    6  N3  UNL     1      -4.695 -37.795   0.005  1.00  0.00    -0.337 N 
ATOM      7  H3  UNL     1      -4.746 -38.682   0.505  1.00  0.00     0.168 HD
HETATM    8  C3  UNL     1      -5.487 -37.560  -1.060  1.00  0.00     0.137 A 
HETATM    9  N4  UNL     1      -6.438 -38.262  -1.719  1.00  0.00    -0.337 N 
ATOM     10  H4  UNL     1      -6.740 -39.205  -1.474  1.00  0.00     0.168 HD
HETATM   11  C4  UNL     1      -6.928 -37.540  -2.741  1.00  0.00     0.182 A 
HETATM   12  N5  UNL     1      -6.276 -36.364  -2.728  1.00  0.00    -0.347 N 
ATOM     13  H5  UNL     1      -6.430 -35.602  -3.388  1.00  0.00     0.167 HD
HETATM   14  C5  UNL     1      -5.388 -36.340  -1.714  1.00  0.00     0.119 A 
ENDROOT
TORSDOF 0
ENDMDL
