MODEL 16
REMARK VINA RESULT: -4.677812662      6.604      8.540
REMARK  0 active torsions:
REMARK  status: ('A' for Active; 'I' for Inactive)
ROOT
HETATM    1  N1  UNL     1     -12.192 -41.888  -3.581  1.00  0.00    -0.080 NA
HETATM    2  C1  UNL     1     -12.386 -41.444  -2.246  1.00  0.00     0.147 A 
HETATM    3  N2  UNL     1     -13.608 -41.152  -1.756  1.00  0.00    -0.339 N 
ATOM      4  H2  UNL     1     -14.427 -41.250  -2.356  1.00  0.00     0.167 HD
HETATM    5  C2  UNL     1     -13.764 -40.731  -0.481  1.00  0.00     0.183 A 
HETATM    6  N3  UNL     1     -12.729 -40.577   0.367  1.00  0.00    -0.337 N 
ATOM      7  H3  UNL     1     -12.883 -40.256   1.323  1.00  0.00     0.168 HD
HETATM    8  C3  UNL     1     -11.484 -40.855  -0.072  1.00  0.00     0.137 A 
HETATM    9  N4  UNL     1     -10.247 -40.819   0.474  1.00  0.00    -0.337 N 
ATOM     10  H4  UNL     1     -10.041 -40.537   1.433  1.00  0.00     0.168 HD
HETATM   11  C4  UNL     1      -9.327 -41.207  -0.426  1.00  0.00     0.182 A 
HETATM   12  N5  UNL     1      -9.994 -41.491  -1.558  1.00  0.00    -0.347 N 
ATOM     13  H5  UNL     1      -9.565 -41.813  -2.425  1.00  0.00     0.167 HD
HETATM   14  C5  UNL     1     -11.315 -41.288  -1.378  1.00  0.00     0.119 A 
ENDROOT
TORSDOF 0
ENDMDL
