MODEL 1
REMARK VINA RESULT: -5.797545498      0.000      0.000
REMARK  12 active torsions:
REMARK  status: ('A' for Active; 'I' for Inactive)
REMARK    1  A    between atoms: O1_1  and  C1_3 
REMARK    2  A    between atoms: C1_3  and  C2_4 
REMARK    3  A    between atoms: C3_6  and  O3_7 
REMARK    4  A    between atoms: O3_7  and  C4_8 
REMARK    5  A    between atoms: C5_9  and  C6_10 
REMARK    6  A    between atoms: C6_10  and  O4_11 
REMARK    7  A    between atoms: C7_14  and  O6_15 
REMARK    8  A    between atoms: C8_17  and  O7_18 
REMARK    9  A    between atoms: C9_20  and  O8_21 
REMARK   10  A    between atoms: C10_23  and  O9_24 
REMARK   11  A    between atoms: C11_26  and  O10_27 
REMARK   12  A    between atoms: C12_29  and  O11_30 
ROOT
HETATM    1  O3  UNL     1      39.144 -22.115 114.780  1.00  0.00    -0.348 OA
ENDROOT
BRANCH   1   2
HETATM    2  C3  UNL     1      38.821 -22.046 113.427  1.00  0.00     0.292 C 
HETATM    3  O2  UNL     1      39.160 -20.839 112.858  1.00  0.00    -0.348 OA
HETATM    4  C2  UNL     1      39.392 -21.062 111.503  1.00  0.00     0.179 C 
HETATM    5  C12 UNL     1      38.255 -21.816 110.852  1.00  0.00     0.180 C 
HETATM    6  C11 UNL     1      37.044 -21.895 111.758  1.00  0.00     0.183 C 
HETATM    7  C10 UNL     1      37.387 -22.346 113.152  1.00  0.00     0.204 C 
BRANCH   4   8
HETATM    8  C1  UNL     1      39.716 -19.782 110.769  1.00  0.00     0.198 C 
BRANCH   8   9
HETATM    9  O1  UNL     1      38.904 -18.724 111.152  1.00  0.00    -0.398 OA
ATOM     10  H1  UNL     1      39.100 -17.922 110.682  1.00  0.00     0.209 HD
ENDBRANCH   8   9
ENDBRANCH   4   8
BRANCH   5  11
HETATM   11  O11 UNL     1      37.861 -21.073 109.730  1.00  0.00    -0.390 OA
ATOM     12  H11 UNL     1      37.988 -21.630 108.970  1.00  0.00     0.210 HD
ENDBRANCH   5  11
BRANCH   6  13
HETATM   13  O10 UNL     1      36.184 -22.854 111.180  1.00  0.00    -0.390 OA
ATOM     14  H10 UNL     1      35.289 -22.626 111.404  1.00  0.00     0.210 HD
ENDBRANCH   6  13
BRANCH   7  15
HETATM   15  O9  UNL     1      36.525 -21.666 114.033  1.00  0.00    -0.388 OA
ATOM     16  H9  UNL     1      36.713 -21.866 114.942  1.00  0.00     0.210 HD
ENDBRANCH   7  15
ENDBRANCH   1   2
BRANCH   1  17
HETATM   17  C4  UNL     1      39.890 -21.042 115.220  1.00  0.00     0.187 C 
HETATM   18  C5  UNL     1      40.997 -21.547 116.111  1.00  0.00     0.180 C 
HETATM   19  O5  UNL     1      41.693 -20.529 116.743  1.00  0.00    -0.349 OA
HETATM   20  C7  UNL     1      40.881 -19.682 117.478  1.00  0.00     0.288 C 
HETATM   21  C8  UNL     1      39.780 -19.069 116.643  1.00  0.00     0.204 C 
HETATM   22  C9  UNL     1      38.956 -20.097 115.941  1.00  0.00     0.183 C 
BRANCH  18  23
HETATM   23  C6  UNL     1      40.482 -22.583 117.096  1.00  0.00     0.198 C 
BRANCH  23  24
HETATM   24  O4  UNL     1      40.602 -23.839 116.503  1.00  0.00    -0.398 OA
ATOM     25  H4  UNL     1      40.357 -24.493 117.148  1.00  0.00     0.209 HD
ENDBRANCH  23  24
ENDBRANCH  18  23
BRANCH  20  26
HETATM   26  O6  UNL     1      41.674 -18.637 117.949  1.00  0.00    -0.369 OA
ATOM     27  H6  UNL     1      41.096 -17.983 118.326  1.00  0.00     0.212 HD
ENDBRANCH  20  26
BRANCH  21  28
HETATM   28  O7  UNL     1      38.990 -18.300 117.493  1.00  0.00    -0.388 OA
ATOM     29  H7  UNL     1      38.195 -18.079 117.023  1.00  0.00     0.210 HD
ENDBRANCH  21  28
BRANCH  22  30
HETATM   30  O8  UNL     1      38.058 -20.751 116.756  1.00  0.00    -0.390 OA
ATOM     31  H8  UNL     1      37.254 -20.984 116.307  1.00  0.00     0.210 HD
ENDBRANCH  22  30
ENDBRANCH   1  17
TORSDOF 12
ENDMDL
