MODEL 5
REMARK VINA RESULT: -5.447124346      3.781      6.110
REMARK  12 active torsions:
REMARK  status: ('A' for Active; 'I' for Inactive)
REMARK    1  A    between atoms: O1_1  and  C1_3 
REMARK    2  A    between atoms: C1_3  and  C2_4 
REMARK    3  A    between atoms: C3_6  and  O3_7 
REMARK    4  A    between atoms: O3_7  and  C4_8 
REMARK    5  A    between atoms: C5_9  and  C6_10 
REMARK    6  A    between atoms: C6_10  and  O4_11 
REMARK    7  A    between atoms: C7_14  and  O6_15 
REMARK    8  A    between atoms: C8_17  and  O7_18 
REMARK    9  A    between atoms: C9_20  and  O8_21 
REMARK   10  A    between atoms: C10_23  and  O9_24 
REMARK   11  A    between atoms: C11_26  and  O10_27 
REMARK   12  A    between atoms: C12_29  and  O11_30 
ROOT
HETATM    1  O3  UNL     1      43.248 -18.488 117.469  1.00  0.00    -0.348 OA
ENDROOT
BRANCH   1   2
HETATM    2  C3  UNL     1      42.168 -19.155 116.896  1.00  0.00     0.292 C 
HETATM    3  O2  UNL     1      41.817 -18.644 115.667  1.00  0.00    -0.348 OA
HETATM    4  C2  UNL     1      41.225 -19.671 114.937  1.00  0.00     0.179 C 
HETATM    5  C12 UNL     1      40.127 -20.359 115.717  1.00  0.00     0.180 C 
HETATM    6  C11 UNL     1      39.766 -19.590 116.970  1.00  0.00     0.183 C 
HETATM    7  C10 UNL     1      40.970 -19.198 117.783  1.00  0.00     0.204 C 
BRANCH   4   8
HETATM    8  C1  UNL     1      40.746 -19.198 113.584  1.00  0.00     0.198 C 
BRANCH   8   9
HETATM    9  O1  UNL     1      40.089 -17.977 113.645  1.00  0.00    -0.398 OA
ATOM     10  H1  UNL     1      40.677 -17.238 113.543  1.00  0.00     0.209 HD
ENDBRANCH   8   9
ENDBRANCH   4   8
BRANCH   5  11
HETATM   11  O11 UNL     1      38.984 -20.353 114.907  1.00  0.00    -0.390 OA
ATOM     12  H11 UNL     1      38.700 -21.256 114.821  1.00  0.00     0.210 HD
ENDBRANCH   5  11
BRANCH   6  13
HETATM   13  O10 UNL     1      38.970 -20.460 117.749  1.00  0.00    -0.390 OA
ATOM     14  H10 UNL     1      39.544 -21.078 118.187  1.00  0.00     0.210 HD
ENDBRANCH   6  13
BRANCH   7  15
HETATM   15  O9  UNL     1      40.693 -17.945 118.361  1.00  0.00    -0.388 OA
ATOM     16  H9  UNL     1      40.140 -18.020 119.129  1.00  0.00     0.210 HD
ENDBRANCH   7  15
ENDBRANCH   1   2
BRANCH   1  17
HETATM   17  C4  UNL     1      44.472 -18.960 117.043  1.00  0.00     0.187 C 
HETATM   18  C5  UNL     1      45.123 -19.724 118.170  1.00  0.00     0.180 C 
HETATM   19  O5  UNL     1      46.431 -20.086 117.896  1.00  0.00    -0.349 OA
HETATM   20  C7  UNL     1      47.239 -19.014 117.560  1.00  0.00     0.288 C 
HETATM   21  C8  UNL     1      46.700 -18.229 116.386  1.00  0.00     0.204 C 
HETATM   22  C9  UNL     1      45.295 -17.771 116.602  1.00  0.00     0.183 C 
BRANCH  18  23
HETATM   23  C6  UNL     1      45.002 -18.973 119.485  1.00  0.00     0.198 C 
BRANCH  23  24
HETATM   24  O4  UNL     1      43.765 -19.285 120.049  1.00  0.00    -0.398 OA
ATOM     25  H4  UNL     1      43.647 -18.742 120.819  1.00  0.00     0.209 HD
ENDBRANCH  23  24
ENDBRANCH  18  23
BRANCH  20  26
HETATM   26  O6  UNL     1      48.482 -19.520 117.182  1.00  0.00    -0.369 OA
ATOM     27  H6  UNL     1      49.095 -18.795 117.156  1.00  0.00     0.212 HD
ENDBRANCH  20  26
BRANCH  21  28
HETATM   28  O7  UNL     1      47.547 -17.143 116.184  1.00  0.00    -0.388 OA
ATOM     29  H7  UNL     1      47.140 -16.580 115.536  1.00  0.00     0.210 HD
ENDBRANCH  21  28
BRANCH  22  30
HETATM   30  O8  UNL     1      45.179 -16.695 117.455  1.00  0.00    -0.390 OA
ATOM     31  H8  UNL     1      44.716 -15.963 117.063  1.00  0.00     0.210 HD
ENDBRANCH  22  30
ENDBRANCH   1  17
TORSDOF 12
ENDMDL
