MODEL 4
REMARK VINA RESULT: -5.486197307      4.188      7.161
REMARK  12 active torsions:
REMARK  status: ('A' for Active; 'I' for Inactive)
REMARK    1  A    between atoms: O1_1  and  C1_3 
REMARK    2  A    between atoms: C1_3  and  C2_4 
REMARK    3  A    between atoms: C3_6  and  O3_7 
REMARK    4  A    between atoms: O3_7  and  C4_8 
REMARK    5  A    between atoms: C5_9  and  C6_10 
REMARK    6  A    between atoms: C6_10  and  O4_11 
REMARK    7  A    between atoms: C7_14  and  O6_15 
REMARK    8  A    between atoms: C8_17  and  O7_18 
REMARK    9  A    between atoms: C9_20  and  O8_21 
REMARK   10  A    between atoms: C10_23  and  O9_24 
REMARK   11  A    between atoms: C11_26  and  O10_27 
REMARK   12  A    between atoms: C12_29  and  O11_30 
ROOT
HETATM    1  O3  UNL     1      43.830 -18.380 117.374  1.00  0.00    -0.348 OA
ENDROOT
BRANCH   1   2
HETATM    2  C3  UNL     1      42.820 -19.338 117.355  1.00  0.00     0.292 C 
HETATM    3  O2  UNL     1      41.571 -18.792 117.164  1.00  0.00    -0.348 OA
HETATM    4  C2  UNL     1      40.776 -19.760 116.557  1.00  0.00     0.179 C 
HETATM    5  C12 UNL     1      40.827 -21.078 117.296  1.00  0.00     0.180 C 
HETATM    6  C11 UNL     1      41.500 -20.937 118.645  1.00  0.00     0.183 C 
HETATM    7  C10 UNL     1      42.810 -20.202 118.570  1.00  0.00     0.204 C 
BRANCH   4   8
HETATM    8  C1  UNL     1      39.357 -19.280 116.355  1.00  0.00     0.198 C 
BRANCH   8   9
HETATM    9  O1  UNL     1      38.938 -18.412 117.353  1.00  0.00    -0.398 OA
ATOM     10  H1  UNL     1      38.055 -18.093 117.215  1.00  0.00     0.209 HD
ENDBRANCH   8   9
ENDBRANCH   4   8
BRANCH   5  11
HETATM   11  O11 UNL     1      39.502 -21.455 117.553  1.00  0.00    -0.390 OA
ATOM     12  H11 UNL     1      39.348 -22.267 117.082  1.00  0.00     0.210 HD
ENDBRANCH   5  11
BRANCH   6  13
HETATM   13  O10 UNL     1      41.754 -22.252 119.096  1.00  0.00    -0.390 OA
ATOM     14  H10 UNL     1      41.260 -22.854 118.552  1.00  0.00     0.210 HD
ENDBRANCH   6  13
BRANCH   7  15
HETATM   15  O9  UNL     1      42.935 -19.452 119.754  1.00  0.00    -0.388 OA
ATOM     16  H9  UNL     1      42.152 -18.947 119.942  1.00  0.00     0.210 HD
ENDBRANCH   7  15
ENDBRANCH   1   2
BRANCH   1  17
HETATM   17  C4  UNL     1      44.826 -18.616 116.448  1.00  0.00     0.187 C 
HETATM   18  C5  UNL     1      46.151 -18.701 117.163  1.00  0.00     0.180 C 
HETATM   19  O5  UNL     1      47.232 -18.760 116.299  1.00  0.00    -0.349 OA
HETATM   20  C7  UNL     1      47.277 -17.707 115.403  1.00  0.00     0.288 C 
HETATM   21  C8  UNL     1      46.011 -17.589 114.585  1.00  0.00     0.204 C 
HETATM   22  C9  UNL     1      44.788 -17.492 115.437  1.00  0.00     0.183 C 
BRANCH  18  23
HETATM   23  C6  UNL     1      46.297 -17.587 118.186  1.00  0.00     0.198 C 
BRANCH  23  24
HETATM   24  O4  UNL     1      45.660 -17.990 119.358  1.00  0.00    -0.398 OA
ATOM     25  H4  UNL     1      44.825 -17.540 119.409  1.00  0.00     0.209 HD
ENDBRANCH  23  24
ENDBRANCH  18  23
BRANCH  20  26
HETATM   26  O6  UNL     1      48.322 -17.950 114.513  1.00  0.00    -0.369 OA
ATOM     27  H6  UNL     1      47.975 -17.878 113.632  1.00  0.00     0.212 HD
ENDBRANCH  20  26
BRANCH  21  28
HETATM   28  O7  UNL     1      46.138 -16.462 113.777  1.00  0.00    -0.388 OA
ATOM     29  H7  UNL     1      45.368 -16.420 113.223  1.00  0.00     0.210 HD
ENDBRANCH  21  28
BRANCH  22  30
HETATM   30  O8  UNL     1      44.602 -16.257 116.018  1.00  0.00    -0.390 OA
ATOM     31  H8  UNL     1      44.645 -15.545 115.390  1.00  0.00     0.210 HD
ENDBRANCH  22  30
ENDBRANCH   1  17
TORSDOF 12
ENDMDL
