MODEL 5
REMARK VINA RESULT: -7.738105835      1.303      1.417
REMARK  8 active torsions:
REMARK  status: ('A' for Active; 'I' for Inactive)
REMARK    1  A    between atoms: C1_2  and  C2_6 
REMARK    2  A    between atoms: C6_10  and  C7_11 
REMARK    3  A    between atoms: C7_11  and  C8_12 
REMARK    4  A    between atoms: C8_12  and  N3_13 
REMARK    5  A    between atoms: C8_12  and  C19_28 
REMARK    6  A    between atoms: N3_13  and  S1_15 
REMARK    7  A    between atoms: S1_15  and  C9_18 
REMARK       I    between atoms: C19_28  and  N4_30 
REMARK    8  A    between atoms: C24_35  and  C25_36 
ROOT
HETATM    1  C8  UNL     1      -0.999  18.751  18.774  1.00  0.00     0.189 C 
ENDROOT
BRANCH   1   2
HETATM    2  C7  UNL     1      -2.175  17.801  18.627  1.00  0.00     0.074 C 
BRANCH   2   3
HETATM    3  C6  UNL     1      -1.853  16.420  18.359  1.00  0.00    -0.055 A 
HETATM    4  C5  UNL     1      -1.312  15.595  19.307  1.00  0.00     0.007 A 
HETATM    5  C4  UNL     1      -1.023  14.256  19.049  1.00  0.00     0.002 A 
HETATM    6  C3  UNL     1      -1.289  13.750  17.804  1.00  0.00     0.015 A 
HETATM    7  C2  UNL     1      -1.841  14.568  16.812  1.00  0.00     0.005 A 
HETATM    8  C26 UNL     1      -2.118  15.886  17.091  1.00  0.00     0.022 A 
BRANCH   7   9
HETATM    9  C1  UNL     1      -2.077  13.915  15.533  1.00  0.00     0.120 C 
HETATM   10  N1  UNL     1      -1.314  12.808  15.086  1.00  0.00    -0.082 NA
HETATM   11  N2  UNL     1      -3.008  14.344  14.764  1.00  0.00    -0.387 N 
ATOM     12  H22 UNL     1      -3.174  13.886  13.868  1.00  0.00     0.157 HD
ATOM     13  H21 UNL     1      -3.558  15.141  15.086  1.00  0.00     0.157 HD
ENDBRANCH   7   9
ENDBRANCH   2   3
ENDBRANCH   1   2
BRANCH   1  14
HETATM   14  N3  UNL     1      -0.898  19.198  20.137  1.00  0.00    -0.301 N 
ATOM     15  H3  UNL     1      -1.560  19.864  20.536  1.00  0.00     0.173 HD
BRANCH  14  16
HETATM   16  S1  UNL     1       0.377  18.558  21.039  1.00  0.00     0.259 S 
HETATM   17  O1  UNL     1       0.932  17.363  20.281  1.00  0.00    -0.201 OA
HETATM   18  O2  UNL     1      -0.033  18.136  22.420  1.00  0.00    -0.201 OA
BRANCH  16  19
HETATM   19  C9  UNL     1       1.689  19.700  21.170  1.00  0.00     0.080 A 
HETATM   20  C10 UNL     1       2.793  19.633  20.324  1.00  0.00     0.026 A 
HETATM   21  C11 UNL     1       3.845  20.503  20.393  1.00  0.00     0.014 A 
HETATM   22  C12 UNL     1       3.824  21.503  21.344  1.00  0.00    -0.026 A 
HETATM   23  C13 UNL     1       4.888  22.403  21.437  1.00  0.00     0.012 A 
HETATM   24  C17 UNL     1       2.769  21.604  22.186  1.00  0.00    -0.025 A 
HETATM   25  C14 UNL     1       4.878  23.409  22.388  1.00  0.00     0.001 A 
HETATM   26  C15 UNL     1       3.782  23.473  23.223  1.00  0.00     0.001 A 
HETATM   27  C16 UNL     1       2.726  22.593  23.143  1.00  0.00     0.012 A 
HETATM   28  C18 UNL     1       1.699  20.705  22.102  1.00  0.00     0.037 A 
ENDBRANCH  16  19
ENDBRANCH  14  16
ENDBRANCH   1  14
BRANCH   1  29
HETATM   29  C19 UNL     1      -1.067  19.874  17.825  1.00  0.00     0.244 C 
HETATM   30  O3  UNL     1      -2.094  20.642  17.856  1.00  0.00    -0.271 OA
HETATM   31  N4  UNL     1      -0.093  20.206  16.856  1.00  0.00    -0.336 N 
HETATM   32  C20 UNL     1       1.196  19.501  16.829  1.00  0.00     0.127 C 
HETATM   33  C24 UNL     1      -0.203  21.206  15.835  1.00  0.00     0.188 C 
HETATM   34  C21 UNL     1       2.336  20.483  16.798  1.00  0.00     0.020 C 
HETATM   35  C22 UNL     1       2.118  21.797  16.183  1.00  0.00     0.004 C 
HETATM   36  C23 UNL     1       0.712  22.331  16.291  1.00  0.00     0.036 C 
BRANCH  33  37
HETATM   37  C25 UNL     1      -1.501  21.592  15.354  1.00  0.00     0.196 C 
HETATM   38  O4  UNL     1      -1.787  22.844  15.475  1.00  0.00    -0.646 OA
HETATM   39  O5  UNL     1      -2.484  20.835  14.781  1.00  0.00    -0.646 OA
ENDBRANCH  33  37
ENDBRANCH   1  29
TORSDOF 8
ENDMDL
