MODEL 6
REMARK VINA RESULT: -7.602083078      2.920      4.174
REMARK  8 active torsions:
REMARK  status: ('A' for Active; 'I' for Inactive)
REMARK    1  A    between atoms: C1_2  and  C2_6 
REMARK    2  A    between atoms: C6_10  and  C7_11 
REMARK    3  A    between atoms: C7_11  and  C8_12 
REMARK    4  A    between atoms: C8_12  and  N3_13 
REMARK    5  A    between atoms: C8_12  and  C19_28 
REMARK    6  A    between atoms: N3_13  and  S1_15 
REMARK    7  A    between atoms: S1_15  and  C9_18 
REMARK       I    between atoms: C19_28  and  N4_30 
REMARK    8  A    between atoms: C24_35  and  C25_36 
ROOT
HETATM    1  C8  UNL     1      -1.363  18.792  18.924  1.00  0.00     0.189 C 
ENDROOT
BRANCH   1   2
HETATM    2  C7  UNL     1      -2.429  17.764  18.588  1.00  0.00     0.074 C 
BRANCH   2   3
HETATM    3  C6  UNL     1      -1.964  16.427  18.304  1.00  0.00    -0.055 A 
HETATM    4  C5  UNL     1      -1.270  15.682  19.218  1.00  0.00     0.007 A 
HETATM    5  C4  UNL     1      -0.841  14.384  18.947  1.00  0.00     0.002 A 
HETATM    6  C3  UNL     1      -1.123  13.837  17.722  1.00  0.00     0.015 A 
HETATM    7  C2  UNL     1      -1.829  14.573  16.765  1.00  0.00     0.005 A 
HETATM    8  C26 UNL     1      -2.243  15.853  17.057  1.00  0.00     0.022 A 
BRANCH   7   9
HETATM    9  C1  UNL     1      -2.067  13.884  15.506  1.00  0.00     0.120 C 
HETATM   10  N1  UNL     1      -1.356  12.718  15.126  1.00  0.00    -0.082 NA
HETATM   11  N2  UNL     1      -2.950  14.333  14.693  1.00  0.00    -0.387 N 
ATOM     12  H22 UNL     1      -3.116  13.849  13.811  1.00  0.00     0.157 HD
ATOM     13  H21 UNL     1      -3.461  15.172  14.967  1.00  0.00     0.157 HD
ENDBRANCH   7   9
ENDBRANCH   2   3
ENDBRANCH   1   2
BRANCH   1  14
HETATM   14  N3  UNL     1      -1.538  19.255  20.274  1.00  0.00    -0.301 N 
ATOM     15  H3  UNL     1      -2.431  19.617  20.607  1.00  0.00     0.173 HD
BRANCH  14  16
HETATM   16  S1  UNL     1      -0.182  19.165  21.275  1.00  0.00     0.259 S 
HETATM   17  O1  UNL     1       0.825  20.195  20.791  1.00  0.00    -0.201 OA
HETATM   18  O2  UNL     1       0.452  17.804  21.285  1.00  0.00    -0.201 OA
BRANCH  16  19
HETATM   19  C9  UNL     1      -0.581  19.608  22.914  1.00  0.00     0.080 A 
HETATM   20  C10 UNL     1      -1.330  20.749  23.192  1.00  0.00     0.026 A 
HETATM   21  C11 UNL     1      -1.662  21.137  24.460  1.00  0.00     0.014 A 
HETATM   22  C12 UNL     1      -1.241  20.370  25.526  1.00  0.00    -0.026 A 
HETATM   23  C13 UNL     1      -1.565  20.746  26.831  1.00  0.00     0.012 A 
HETATM   24  C17 UNL     1      -0.511  19.253  25.299  1.00  0.00    -0.025 A 
HETATM   25  C14 UNL     1      -1.146  19.985  27.908  1.00  0.00     0.001 A 
HETATM   26  C15 UNL     1      -0.406  18.855  27.629  1.00  0.00     0.001 A 
HETATM   27  C16 UNL     1      -0.078  18.471  26.348  1.00  0.00     0.012 A 
HETATM   28  C18 UNL     1      -0.179  18.868  23.995  1.00  0.00     0.037 A 
ENDBRANCH  16  19
ENDBRANCH  14  16
ENDBRANCH   1  14
BRANCH   1  29
HETATM   29  C19 UNL     1      -1.332  19.901  17.955  1.00  0.00     0.244 C 
HETATM   30  O3  UNL     1      -2.334  20.701  17.907  1.00  0.00    -0.271 OA
HETATM   31  N4  UNL     1      -0.286  20.186  17.049  1.00  0.00    -0.336 N 
HETATM   32  C20 UNL     1       0.979  19.441  17.118  1.00  0.00     0.127 C 
HETATM   33  C24 UNL     1      -0.296  21.171  16.009  1.00  0.00     0.188 C 
HETATM   34  C21 UNL     1       2.149  20.387  17.149  1.00  0.00     0.020 C 
HETATM   35  C22 UNL     1       2.015  21.696  16.502  1.00  0.00     0.004 C 
HETATM   36  C23 UNL     1       0.622  22.275  16.509  1.00  0.00     0.036 C 
BRANCH  33  37
HETATM   37  C25 UNL     1      -1.546  21.589  15.437  1.00  0.00     0.196 C 
HETATM   38  O4  UNL     1      -1.859  22.826  15.630  1.00  0.00    -0.646 OA
HETATM   39  O5  UNL     1      -2.460  20.877  14.712  1.00  0.00    -0.646 OA
ENDBRANCH  33  37
ENDBRANCH   1  29
TORSDOF 8
ENDMDL
