MODEL 7
REMARK VINA RESULT: -7.587477589      2.089      2.818
REMARK  8 active torsions:
REMARK  status: ('A' for Active; 'I' for Inactive)
REMARK    1  A    between atoms: C1_2  and  C2_6 
REMARK    2  A    between atoms: C6_10  and  C7_11 
REMARK    3  A    between atoms: C7_11  and  C8_12 
REMARK    4  A    between atoms: C8_12  and  N3_13 
REMARK    5  A    between atoms: C8_12  and  C19_28 
REMARK    6  A    between atoms: N3_13  and  S1_15 
REMARK    7  A    between atoms: S1_15  and  C9_18 
REMARK       I    between atoms: C19_28  and  N4_30 
REMARK    8  A    between atoms: C24_35  and  C25_36 
ROOT
HETATM    1  C8  UNL     1      -0.591  18.824  19.233  1.00  0.00     0.189 C 
ENDROOT
BRANCH   1   2
HETATM    2  C7  UNL     1      -1.577  18.074  18.355  1.00  0.00     0.074 C 
BRANCH   2   3
HETATM    3  C6  UNL     1      -1.298  16.677  18.125  1.00  0.00    -0.055 A 
HETATM    4  C5  UNL     1      -0.575  15.919  19.004  1.00  0.00     0.007 A 
HETATM    5  C4  UNL     1      -0.326  14.564  18.787  1.00  0.00     0.002 A 
HETATM    6  C3  UNL     1      -0.822  13.974  17.654  1.00  0.00     0.015 A 
HETATM    7  C2  UNL     1      -1.564  14.723  16.734  1.00  0.00     0.005 A 
HETATM    8  C26 UNL     1      -1.797  16.058  16.971  1.00  0.00     0.022 A 
BRANCH   7   9
HETATM    9  C1  UNL     1      -2.036  13.984  15.573  1.00  0.00     0.120 C 
HETATM   10  N1  UNL     1      -1.371  12.836  15.074  1.00  0.00    -0.082 NA
HETATM   11  N2  UNL     1      -3.093  14.371  14.961  1.00  0.00    -0.387 N 
ATOM     12  H22 UNL     1      -3.424  13.852  14.147  1.00  0.00     0.157 HD
ATOM     13  H21 UNL     1      -3.571  15.197  15.320  1.00  0.00     0.157 HD
ENDBRANCH   7   9
ENDBRANCH   2   3
ENDBRANCH   1   2
BRANCH   1  14
HETATM   14  N3  UNL     1      -1.289  19.470  20.311  1.00  0.00    -0.301 N 
ATOM     15  H3  UNL     1      -2.175  19.954  20.166  1.00  0.00     0.173 HD
BRANCH  14  16
HETATM   16  S1  UNL     1      -0.559  19.384  21.831  1.00  0.00     0.259 S 
HETATM   17  O1  UNL     1       0.288  18.122  21.871  1.00  0.00    -0.201 OA
HETATM   18  O2  UNL     1      -1.549  19.365  22.959  1.00  0.00    -0.201 OA
BRANCH  16  19
HETATM   19  C9  UNL     1       0.542  20.715  22.075  1.00  0.00     0.080 A 
HETATM   20  C10 UNL     1       0.404  21.906  21.367  1.00  0.00     0.026 A 
HETATM   21  C11 UNL     1       1.245  22.973  21.523  1.00  0.00     0.014 A 
HETATM   22  C12 UNL     1       2.286  22.878  22.423  1.00  0.00    -0.026 A 
HETATM   23  C13 UNL     1       3.159  23.953  22.599  1.00  0.00     0.012 A 
HETATM   24  C17 UNL     1       2.454  21.737  23.133  1.00  0.00    -0.025 A 
HETATM   25  C14 UNL     1       4.208  23.867  23.498  1.00  0.00     0.001 A 
HETATM   26  C15 UNL     1       4.341  22.688  24.199  1.00  0.00     0.001 A 
HETATM   27  C16 UNL     1       3.487  21.619  24.037  1.00  0.00     0.012 A 
HETATM   28  C18 UNL     1       1.585  20.654  22.962  1.00  0.00     0.037 A 
ENDBRANCH  16  19
ENDBRANCH  14  16
ENDBRANCH   1  14
BRANCH   1  29
HETATM   29  C19 UNL     1       0.239  19.766  18.464  1.00  0.00     0.244 C 
HETATM   30  O3  UNL     1      -0.346  20.615  17.700  1.00  0.00    -0.271 OA
HETATM   31  N4  UNL     1       1.650  19.836  18.479  1.00  0.00    -0.336 N 
HETATM   32  C20 UNL     1       2.423  19.027  19.430  1.00  0.00     0.127 C 
HETATM   33  C24 UNL     1       2.478  20.648  17.637  1.00  0.00     0.188 C 
HETATM   34  C21 UNL     1       3.411  19.884  20.174  1.00  0.00     0.020 C 
HETATM   35  C22 UNL     1       3.939  21.085  19.516  1.00  0.00     0.004 C 
HETATM   36  C23 UNL     1       2.996  21.751  18.546  1.00  0.00     0.036 C 
BRANCH  33  37
HETATM   37  C25 UNL     1       1.996  21.058  16.346  1.00  0.00     0.196 C 
HETATM   38  O4  UNL     1       1.932  20.126  15.456  1.00  0.00    -0.646 OA
HETATM   39  O5  UNL     1       1.588  22.288  15.913  1.00  0.00    -0.646 OA
ENDBRANCH  33  37
ENDBRANCH   1  29
TORSDOF 8
ENDMDL
