MODEL 4
REMARK VINA RESULT: -8.992364747      3.277      4.291
REMARK  9 active torsions:
REMARK  status: ('A' for Active; 'I' for Inactive)
REMARK    1  A    between atoms: O1_2  and  C2_3 
REMARK    2  A    between atoms: C2_3  and  C3_5 
REMARK       I    between atoms: N1_8  and  C6_9 
REMARK    3  A    between atoms: C6_9  and  C7_11 
REMARK    4  A    between atoms: C7_11  and  C8_12 
REMARK    5  A    between atoms: C7_11  and  N4_24 
REMARK    6  A    between atoms: C8_12  and  C9_13 
REMARK    7  A    between atoms: C13_17  and  C14_18 
REMARK    8  A    between atoms: N4_24  and  S1_26 
REMARK    9  A    between atoms: S1_26  and  C16_29 
ROOT
HETATM    1  C7  UNL     1      -2.180   3.341  21.487  1.00  0.00     0.189 C 
ENDROOT
BRANCH   1   2
HETATM    2  C6  UNL     1      -2.391   2.011  20.869  1.00  0.00     0.243 C 
HETATM    3  N1  UNL     1      -1.406   1.327  20.098  1.00  0.00    -0.350 N 
HETATM    4  C5  UNL     1      -1.740   0.010  19.526  1.00  0.00     0.127 C 
HETATM    5  C26 UNL     1      -0.076   1.775  19.814  1.00  0.00     0.127 C 
HETATM    6  C4  UNL     1      -0.999  -0.221  18.246  1.00  0.00     0.034 C 
HETATM    7  C3  UNL     1       0.483  -0.070  18.332  1.00  0.00     0.088 C 
HETATM    8  C27 UNL     1       0.852   0.551  19.654  1.00  0.00     0.034 C 
HETATM    9  O3  UNL     1      -3.527   1.463  21.052  1.00  0.00    -0.271 OA
BRANCH   7  10
HETATM   10  C2  UNL     1       1.119  -1.383  18.124  1.00  0.00     0.262 C 
HETATM   11  O2  UNL     1       0.855  -2.074  17.126  1.00  0.00    -0.265 OA
BRANCH  10  12
HETATM   12  O1  UNL     1       2.039  -1.906  19.031  1.00  0.00    -0.326 OA
HETATM   13  C1  UNL     1       3.144  -2.670  18.581  1.00  0.00     0.213 C 
ENDBRANCH  10  12
ENDBRANCH   7  10
ENDBRANCH   1   2
BRANCH   1  14
HETATM   14  C8  UNL     1      -3.256   4.267  20.894  1.00  0.00     0.074 C 
BRANCH  14  15
HETATM   15  C9  UNL     1      -2.633   5.464  20.272  1.00  0.00    -0.055 A 
HETATM   16  C10 UNL     1      -1.378   5.363  19.725  1.00  0.00     0.007 A 
HETATM   17  C11 UNL     1      -0.764   6.446  19.139  1.00  0.00     0.002 A 
HETATM   18  C12 UNL     1      -1.446   7.651  19.115  1.00  0.00     0.015 A 
HETATM   19  C13 UNL     1      -2.706   7.826  19.646  1.00  0.00     0.005 A 
HETATM   20  C15 UNL     1      -3.266   6.678  20.224  1.00  0.00     0.022 A 
BRANCH  19  21
HETATM   21  C14 UNL     1      -3.439   9.079  19.631  1.00  0.00     0.120 C 
HETATM   22  N2  UNL     1      -2.716  10.290  19.585  1.00  0.00    -0.082 NA
HETATM   23  N3  UNL     1      -4.704   9.097  19.659  1.00  0.00    -0.387 N 
ATOM     24  H32 UNL     1      -5.227   8.222  19.692  1.00  0.00     0.157 HD
ATOM     25  H31 UNL     1      -5.220   9.978  19.649  1.00  0.00     0.157 HD
ENDBRANCH  19  21
ENDBRANCH  14  15
ENDBRANCH   1  14
BRANCH   1  26
HETATM   26  N4  UNL     1      -2.380   3.204  22.910  1.00  0.00    -0.301 N 
ATOM     27  H4  UNL     1      -3.263   2.899  23.319  1.00  0.00     0.173 HD
BRANCH  26  28
HETATM   28  S1  UNL     1      -1.011   3.596  23.846  1.00  0.00     0.259 S 
HETATM   29  O4  UNL     1      -0.162   4.657  23.251  1.00  0.00    -0.201 OA
HETATM   30  O5  UNL     1      -1.527   4.146  25.171  1.00  0.00    -0.201 OA
BRANCH  28  31
HETATM   31  C16 UNL     1      -0.006   2.205  24.207  1.00  0.00     0.080 A 
HETATM   32  C17 UNL     1       0.048   1.126  23.346  1.00  0.00     0.026 A 
HETATM   33  C18 UNL     1       0.829   0.014  23.601  1.00  0.00     0.014 A 
HETATM   34  C19 UNL     1       1.594  -0.064  24.738  1.00  0.00    -0.026 A 
HETATM   35  C20 UNL     1       2.371  -1.188  24.976  1.00  0.00     0.012 A 
HETATM   36  C24 UNL     1       1.554   1.003  25.610  1.00  0.00    -0.025 A 
HETATM   37  C21 UNL     1       3.135  -1.267  26.112  1.00  0.00     0.001 A 
HETATM   38  C22 UNL     1       3.109  -0.199  27.006  1.00  0.00     0.001 A 
HETATM   39  C23 UNL     1       2.323   0.922  26.751  1.00  0.00     0.012 A 
HETATM   40  C25 UNL     1       0.768   2.121  25.352  1.00  0.00     0.037 A 
ENDBRANCH  28  31
ENDBRANCH  26  28
ENDBRANCH   1  26
TORSDOF 9
ENDMDL
