MODEL 5
REMARK VINA RESULT: -8.952484708      3.151      5.546
REMARK  9 active torsions:
REMARK  status: ('A' for Active; 'I' for Inactive)
REMARK    1  A    between atoms: O1_2  and  C2_3 
REMARK    2  A    between atoms: C2_3  and  C3_5 
REMARK       I    between atoms: N1_8  and  C6_9 
REMARK    3  A    between atoms: C6_9  and  C7_11 
REMARK    4  A    between atoms: C7_11  and  C8_12 
REMARK    5  A    between atoms: C7_11  and  N4_24 
REMARK    6  A    between atoms: C8_12  and  C9_13 
REMARK    7  A    between atoms: C13_17  and  C14_18 
REMARK    8  A    between atoms: N4_24  and  S1_26 
REMARK    9  A    between atoms: S1_26  and  C16_29 
ROOT
HETATM    1  C7  UNL     1      -1.067   3.352  23.474  1.00  0.00     0.189 C 
ENDROOT
BRANCH   1   2
HETATM    2  C6  UNL     1      -0.820   3.369  22.012  1.00  0.00     0.243 C 
HETATM    3  N1  UNL     1      -0.910   2.216  21.177  1.00  0.00    -0.350 N 
HETATM    4  C5  UNL     1      -0.631   2.359  19.737  1.00  0.00     0.127 C 
HETATM    5  C26 UNL     1      -1.267   0.891  21.582  1.00  0.00     0.127 C 
HETATM    6  C4  UNL     1      -0.060   1.094  19.175  1.00  0.00     0.034 C 
HETATM    7  C3  UNL     1      -0.876  -0.132  19.411  1.00  0.00     0.088 C 
HETATM    8  C27 UNL     1      -1.965   0.168  20.408  1.00  0.00     0.034 C 
HETATM    9  O3  UNL     1      -0.511   4.490  21.492  1.00  0.00    -0.271 OA
BRANCH   7  10
HETATM   10  C2  UNL     1      -1.403  -0.621  18.125  1.00  0.00     0.262 C 
HETATM   11  O2  UNL     1      -2.446  -1.295  18.073  1.00  0.00    -0.265 OA
BRANCH  10  12
HETATM   12  O1  UNL     1      -0.762  -0.353  16.917  1.00  0.00    -0.326 OA
HETATM   13  C1  UNL     1      -0.187  -1.400  16.155  1.00  0.00     0.213 C 
ENDBRANCH  10  12
ENDBRANCH   7  10
ENDBRANCH   1   2
BRANCH   1  14
HETATM   14  C8  UNL     1       0.309   3.507  24.145  1.00  0.00     0.074 C 
BRANCH  14  15
HETATM   15  C9  UNL     1       0.478   2.508  25.231  1.00  0.00    -0.055 A 
HETATM   16  C10 UNL     1       1.176   1.352  24.982  1.00  0.00     0.007 A 
HETATM   17  C11 UNL     1       1.357   0.400  25.958  1.00  0.00     0.002 A 
HETATM   18  C12 UNL     1       0.811   0.635  27.209  1.00  0.00     0.015 A 
HETATM   19  C13 UNL     1       0.097   1.770  27.530  1.00  0.00     0.005 A 
HETATM   20  C15 UNL     1      -0.043   2.693  26.484  1.00  0.00     0.022 A 
BRANCH  19  21
HETATM   21  C14 UNL     1      -0.483   2.037  28.834  1.00  0.00     0.120 C 
HETATM   22  N2  UNL     1      -1.400   1.110  29.373  1.00  0.00    -0.082 NA
HETATM   23  N3  UNL     1      -0.177   3.078  29.486  1.00  0.00    -0.387 N 
ATOM     24  H32 UNL     1       0.486   3.748  29.096  1.00  0.00     0.157 HD
ATOM     25  H31 UNL     1      -0.585   3.266  30.402  1.00  0.00     0.157 HD
ENDBRANCH  19  21
ENDBRANCH  14  15
ENDBRANCH   1  14
BRANCH   1  26
HETATM   26  N4  UNL     1      -1.899   4.488  23.793  1.00  0.00    -0.301 N 
ATOM     27  H4  UNL     1      -1.675   5.439  23.503  1.00  0.00     0.173 HD
BRANCH  26  28
HETATM   28  S1  UNL     1      -3.289   4.098  24.697  1.00  0.00     0.259 S 
HETATM   29  O4  UNL     1      -4.557   4.242  23.941  1.00  0.00    -0.201 OA
HETATM   30  O5  UNL     1      -3.172   2.623  25.070  1.00  0.00    -0.201 OA
BRANCH  28  31
HETATM   31  C16 UNL     1      -3.416   5.010  26.189  1.00  0.00     0.080 A 
HETATM   32  C17 UNL     1      -4.648   5.386  26.688  1.00  0.00     0.026 A 
HETATM   33  C18 UNL     1      -4.783   6.107  27.860  1.00  0.00     0.014 A 
HETATM   34  C19 UNL     1      -3.681   6.483  28.587  1.00  0.00    -0.026 A 
HETATM   35  C20 UNL     1      -3.838   7.206  29.760  1.00  0.00     0.012 A 
HETATM   36  C24 UNL     1      -2.443   6.118  28.106  1.00  0.00    -0.025 A 
HETATM   37  C21 UNL     1      -2.738   7.583  30.487  1.00  0.00     0.001 A 
HETATM   38  C22 UNL     1      -1.476   7.223  30.018  1.00  0.00     0.001 A 
HETATM   39  C23 UNL     1      -1.338   6.498  28.837  1.00  0.00     0.012 A 
HETATM   40  C25 UNL     1      -2.309   5.393  26.927  1.00  0.00     0.037 A 
ENDBRANCH  28  31
ENDBRANCH  26  28
ENDBRANCH   1  26
TORSDOF 9
ENDMDL
