MODEL 6
REMARK VINA RESULT: -8.893767544      4.295     10.141
REMARK  9 active torsions:
REMARK  status: ('A' for Active; 'I' for Inactive)
REMARK    1  A    between atoms: O1_2  and  C2_3 
REMARK    2  A    between atoms: C2_3  and  C3_5 
REMARK       I    between atoms: N1_8  and  C6_9 
REMARK    3  A    between atoms: C6_9  and  C7_11 
REMARK    4  A    between atoms: C7_11  and  C8_12 
REMARK    5  A    between atoms: C7_11  and  N4_24 
REMARK    6  A    between atoms: C8_12  and  C9_13 
REMARK    7  A    between atoms: C13_17  and  C14_18 
REMARK    8  A    between atoms: N4_24  and  S1_26 
REMARK    9  A    between atoms: S1_26  and  C16_29 
ROOT
HETATM    1  C7  UNL     1      -1.464  -0.306  20.199  1.00  0.00     0.189 C 
ENDROOT
BRANCH   1   2
HETATM    2  C6  UNL     1      -2.423   0.669  20.771  1.00  0.00     0.243 C 
HETATM    3  N1  UNL     1      -2.197   2.076  20.812  1.00  0.00    -0.350 N 
HETATM    4  C5  UNL     1      -3.224   2.943  21.418  1.00  0.00     0.127 C 
HETATM    5  C26 UNL     1      -1.057   2.776  20.303  1.00  0.00     0.127 C 
HETATM    6  C4  UNL     1      -2.602   4.158  22.033  1.00  0.00     0.034 C 
HETATM    7  C3  UNL     1      -1.739   4.962  21.121  1.00  0.00     0.088 C 
HETATM    8  C27 UNL     1      -1.486   4.191  19.853  1.00  0.00     0.034 C 
HETATM    9  O3  UNL     1      -3.507   0.200  21.250  1.00  0.00    -0.271 OA
BRANCH   7  10
HETATM   10  C2  UNL     1      -2.374   6.269  20.874  1.00  0.00     0.262 C 
HETATM   11  O2  UNL     1      -3.494   6.537  21.339  1.00  0.00    -0.265 OA
BRANCH  10  12
HETATM   12  O1  UNL     1      -1.751   7.256  20.113  1.00  0.00    -0.326 OA
HETATM   13  C1  UNL     1      -2.517   8.217  19.408  1.00  0.00     0.213 C 
ENDBRANCH  10  12
ENDBRANCH   7  10
ENDBRANCH   1   2
BRANCH   1  14
HETATM   14  C8  UNL     1      -1.711  -1.635  20.933  1.00  0.00     0.074 C 
BRANCH  14  15
HETATM   15  C9  UNL     1      -0.477  -2.091  21.623  1.00  0.00    -0.055 A 
HETATM   16  C10 UNL     1      -0.012  -3.364  21.401  1.00  0.00     0.007 A 
HETATM   17  C11 UNL     1       1.127  -3.827  22.018  1.00  0.00     0.002 A 
HETATM   18  C12 UNL     1       1.799  -2.974  22.877  1.00  0.00     0.015 A 
HETATM   19  C13 UNL     1       1.390  -1.685  23.148  1.00  0.00     0.005 A 
HETATM   20  C15 UNL     1       0.223  -1.285  22.481  1.00  0.00     0.022 A 
BRANCH  19  21
HETATM   21  C14 UNL     1       2.079  -0.774  24.044  1.00  0.00     0.120 C 
HETATM   22  N2  UNL     1       1.397   0.373  24.505  1.00  0.00    -0.082 NA
HETATM   23  N3  UNL     1       3.269  -0.993  24.412  1.00  0.00    -0.387 N 
ATOM     24  H32 UNL     1       3.763  -1.822  24.079  1.00  0.00     0.157 HD
ATOM     25  H31 UNL     1       3.754  -0.353  25.042  1.00  0.00     0.157 HD
ENDBRANCH  19  21
ENDBRANCH  14  15
ENDBRANCH   1  14
BRANCH   1  26
HETATM   26  N4  UNL     1      -1.771  -0.456  18.796  1.00  0.00    -0.301 N 
ATOM     27  H4  UNL     1      -2.720  -0.587  18.448  1.00  0.00     0.173 HD
BRANCH  26  28
HETATM   28  S1  UNL     1      -0.409  -0.392  17.776  1.00  0.00     0.259 S 
HETATM   29  O4  UNL     1      -0.729  -0.559  16.336  1.00  0.00    -0.201 OA
HETATM   30  O5  UNL     1       0.189   1.003  17.927  1.00  0.00    -0.201 OA
BRANCH  28  31
HETATM   31  C16 UNL     1       0.832  -1.549  18.216  1.00  0.00     0.080 A 
HETATM   32  C17 UNL     1       0.741  -2.871  17.825  1.00  0.00     0.026 A 
HETATM   33  C18 UNL     1       1.701  -3.809  18.156  1.00  0.00     0.014 A 
HETATM   34  C19 UNL     1       2.802  -3.459  18.897  1.00  0.00    -0.026 A 
HETATM   35  C20 UNL     1       3.755  -4.415  19.218  1.00  0.00     0.012 A 
HETATM   36  C24 UNL     1       2.912  -2.145  19.296  1.00  0.00    -0.025 A 
HETATM   37  C21 UNL     1       4.855  -4.066  19.959  1.00  0.00     0.001 A 
HETATM   38  C22 UNL     1       4.985  -2.742  20.373  1.00  0.00     0.001 A 
HETATM   39  C23 UNL     1       4.018  -1.796  20.041  1.00  0.00     0.012 A 
HETATM   40  C25 UNL     1       1.946  -1.203  18.963  1.00  0.00     0.037 A 
ENDBRANCH  28  31
ENDBRANCH  26  28
ENDBRANCH   1  26
TORSDOF 9
ENDMDL
