MODEL 3
REMARK VINA RESULT: -8.668060416      2.486      7.930
REMARK  7 active torsions:
REMARK  status: ('A' for Active; 'I' for Inactive)
REMARK    1  A    between atoms: C1_2  and  C2_6 
REMARK    2  A    between atoms: C6_10  and  C7_11 
REMARK    3  A    between atoms: C7_11  and  C8_12 
REMARK    4  A    between atoms: C8_12  and  N3_13 
REMARK    5  A    between atoms: C8_12  and  C19_28 
REMARK    6  A    between atoms: N3_13  and  S1_15 
REMARK    7  A    between atoms: S1_15  and  C9_18 
REMARK       I    between atoms: C19_28  and  N4_30 
ROOT
HETATM    1  C8  UNL     1      -2.741   3.909  22.108  1.00  0.00     0.189 C 
ENDROOT
BRANCH   1   2
HETATM    2  C7  UNL     1      -3.395   4.496  20.887  1.00  0.00     0.074 C 
BRANCH   2   3
HETATM    3  C6  UNL     1      -2.723   5.646  20.291  1.00  0.00    -0.055 A 
HETATM    4  C5  UNL     1      -1.470   5.492  19.745  1.00  0.00     0.007 A 
HETATM    5  C4  UNL     1      -0.877   6.597  19.185  1.00  0.00     0.002 A 
HETATM    6  C3  UNL     1      -1.527   7.837  19.170  1.00  0.00     0.015 A 
HETATM    7  C2  UNL     1      -2.776   8.010  19.710  1.00  0.00     0.005 A 
HETATM    8  C24 UNL     1      -3.357   6.866  20.275  1.00  0.00     0.022 A 
BRANCH   7   9
HETATM    9  C1  UNL     1      -3.475   9.283  19.710  1.00  0.00     0.120 C 
HETATM   10  N1  UNL     1      -2.735  10.486  19.520  1.00  0.00    -0.082 NA
HETATM   11  N2  UNL     1      -4.732   9.337  19.878  1.00  0.00    -0.387 N 
ATOM     12  H22 UNL     1      -5.223  10.231  19.878  1.00  0.00     0.157 HD
ATOM     13  H21 UNL     1      -5.262   8.476  20.013  1.00  0.00     0.157 HD
ENDBRANCH   7   9
ENDBRANCH   2   3
ENDBRANCH   1   2
BRANCH   1  14
HETATM   14  N3  UNL     1      -2.417   2.541  21.795  1.00  0.00    -0.301 N 
ATOM     15  H3  UNL     1      -3.134   1.856  21.554  1.00  0.00     0.173 HD
BRANCH  14  16
HETATM   16  S1  UNL     1      -0.780   2.137  21.851  1.00  0.00     0.259 S 
HETATM   17  O1  UNL     1       0.024   3.420  21.684  1.00  0.00    -0.201 OA
HETATM   18  O2  UNL     1      -0.400   1.618  23.229  1.00  0.00    -0.201 OA
BRANCH  16  19
HETATM   19  C9  UNL     1      -0.259   1.032  20.629  1.00  0.00     0.080 A 
HETATM   20  C10 UNL     1      -0.759   0.996  19.350  1.00  0.00     0.026 A 
HETATM   21  C11 UNL     1      -0.276   0.068  18.432  1.00  0.00     0.014 A 
HETATM   22  C12 UNL     1       0.699  -0.837  18.749  1.00  0.00    -0.026 A 
HETATM   23  C13 UNL     1       1.182  -1.764  17.831  1.00  0.00     0.012 A 
HETATM   24  C17 UNL     1       1.207  -0.807  20.030  1.00  0.00    -0.025 A 
HETATM   25  C14 UNL     1       2.158  -2.653  18.180  1.00  0.00     0.001 A 
HETATM   26  C15 UNL     1       2.675  -2.631  19.468  1.00  0.00     0.001 A 
HETATM   27  C16 UNL     1       2.184  -1.703  20.369  1.00  0.00     0.012 A 
HETATM   28  C18 UNL     1       0.726   0.118  20.944  1.00  0.00     0.037 A 
ENDBRANCH  16  19
ENDBRANCH  14  16
ENDBRANCH   1  14
BRANCH   1  29
HETATM   29  C19 UNL     1      -3.535   4.044  23.329  1.00  0.00     0.243 C 
HETATM   30  O3  UNL     1      -4.792   3.998  23.194  1.00  0.00    -0.271 OA
HETATM   31  N4  UNL     1      -3.032   4.215  24.615  1.00  0.00    -0.347 N 
HETATM   32  C20 UNL     1      -3.910   4.364  25.745  1.00  0.00     0.153 C 
HETATM   33  C23 UNL     1      -1.616   4.230  24.860  1.00  0.00     0.153 C 
HETATM   34  C21 UNL     1      -3.192   5.150  26.839  1.00  0.00     0.252 C 
HETATM   35  N5  UNL     1      -1.941   4.571  27.210  1.00  0.00    -0.072 N 
HETATM   36  C22 UNL     1      -1.455   3.603  26.260  1.00  0.00     0.252 C 
ATOM     37  H52 UNL     1      -1.242   5.295  27.377  1.00  0.00     0.277 HD
ATOM     38  H51 UNL     1      -1.992   4.166  28.145  1.00  0.00     0.277 HD
ENDBRANCH   1  29
TORSDOF 7
ENDMDL
