MODEL 5
REMARK VINA RESULT: -8.574415998      2.792      6.333
REMARK  7 active torsions:
REMARK  status: ('A' for Active; 'I' for Inactive)
REMARK    1  A    between atoms: C1_2  and  C2_6 
REMARK    2  A    between atoms: C6_10  and  C7_11 
REMARK    3  A    between atoms: C7_11  and  C8_12 
REMARK    4  A    between atoms: C8_12  and  N3_13 
REMARK    5  A    between atoms: C8_12  and  C19_28 
REMARK    6  A    between atoms: N3_13  and  S1_15 
REMARK    7  A    between atoms: S1_15  and  C9_18 
REMARK       I    between atoms: C19_28  and  N4_30 
ROOT
HETATM    1  C8  UNL     1      -1.936   3.555  22.761  1.00  0.00     0.189 C 
ENDROOT
BRANCH   1   2
HETATM    2  C7  UNL     1      -0.981   3.276  23.890  1.00  0.00     0.074 C 
BRANCH   2   3
HETATM    3  C6  UNL     1      -1.391   3.754  25.207  1.00  0.00    -0.055 A 
HETATM    4  C5  UNL     1      -2.119   4.917  25.310  1.00  0.00     0.007 A 
HETATM    5  C4  UNL     1      -2.494   5.325  26.567  1.00  0.00     0.002 A 
HETATM    6  C3  UNL     1      -2.148   4.583  27.702  1.00  0.00     0.015 A 
HETATM    7  C2  UNL     1      -1.424   3.420  27.619  1.00  0.00     0.005 A 
HETATM    8  C24 UNL     1      -1.054   3.027  26.324  1.00  0.00     0.022 A 
BRANCH   7   9
HETATM    9  C1  UNL     1      -1.050   2.629  28.777  1.00  0.00     0.120 C 
HETATM   10  N1  UNL     1      -1.878   1.540  29.176  1.00  0.00    -0.082 NA
HETATM   11  N2  UNL     1       0.001   2.896  29.438  1.00  0.00    -0.387 N 
ATOM     12  H22 UNL     1       0.264   2.340  30.252  1.00  0.00     0.157 HD
ATOM     13  H21 UNL     1       0.594   3.675  29.153  1.00  0.00     0.157 HD
ENDBRANCH   7   9
ENDBRANCH   2   3
ENDBRANCH   1   2
BRANCH   1  14
HETATM   14  N3  UNL     1      -2.505   2.291  22.369  1.00  0.00    -0.301 N 
ATOM     15  H3  UNL     1      -1.949   1.565  21.915  1.00  0.00     0.173 HD
BRANCH  14  16
HETATM   16  S1  UNL     1      -4.144   2.081  22.704  1.00  0.00     0.259 S 
HETATM   17  O1  UNL     1      -4.930   3.024  21.803  1.00  0.00    -0.201 OA
HETATM   18  O2  UNL     1      -4.602   0.688  22.302  1.00  0.00    -0.201 OA
BRANCH  16  19
HETATM   19  C9  UNL     1      -4.604   2.416  24.336  1.00  0.00     0.080 A 
HETATM   20  C10 UNL     1      -4.337   1.591  25.402  1.00  0.00     0.026 A 
HETATM   21  C11 UNL     1      -4.748   1.945  26.684  1.00  0.00     0.014 A 
HETATM   22  C12 UNL     1      -5.425   3.105  26.943  1.00  0.00    -0.026 A 
HETATM   23  C13 UNL     1      -5.834   3.457  28.224  1.00  0.00     0.012 A 
HETATM   24  C17 UNL     1      -5.696   3.937  25.879  1.00  0.00    -0.025 A 
HETATM   25  C14 UNL     1      -6.508   4.624  28.449  1.00  0.00     0.001 A 
HETATM   26  C15 UNL     1      -6.787   5.468  27.384  1.00  0.00     0.001 A 
HETATM   27  C16 UNL     1      -6.373   5.104  26.115  1.00  0.00     0.012 A 
HETATM   28  C18 UNL     1      -5.287   3.585  24.602  1.00  0.00     0.037 A 
ENDBRANCH  16  19
ENDBRANCH  14  16
ENDBRANCH   1  14
BRANCH   1  29
HETATM   29  C19 UNL     1      -1.336   4.284  21.644  1.00  0.00     0.243 C 
HETATM   30  O3  UNL     1      -0.209   3.873  21.240  1.00  0.00    -0.271 OA
HETATM   31  N4  UNL     1      -1.892   5.379  20.991  1.00  0.00    -0.347 N 
HETATM   32  C20 UNL     1      -1.199   6.038  19.916  1.00  0.00     0.153 C 
HETATM   33  C23 UNL     1      -3.189   5.878  21.357  1.00  0.00     0.153 C 
HETATM   34  C21 UNL     1      -1.662   7.490  19.834  1.00  0.00     0.252 C 
HETATM   35  N5  UNL     1      -3.079   7.615  19.708  1.00  0.00    -0.072 N 
HETATM   36  C22 UNL     1      -3.791   6.406  20.038  1.00  0.00     0.252 C 
ATOM     37  H52 UNL     1      -3.423   8.400  20.261  1.00  0.00     0.277 HD
ATOM     38  H51 UNL     1      -3.333   7.941  18.776  1.00  0.00     0.277 HD
ENDBRANCH   1  29
TORSDOF 7
ENDMDL
