MODEL 4
REMARK VINA RESULT: -8.617666054      2.860      6.352
REMARK  7 active torsions:
REMARK  status: ('A' for Active; 'I' for Inactive)
REMARK    1  A    between atoms: C1_2  and  C2_6 
REMARK    2  A    between atoms: C6_10  and  C7_11 
REMARK    3  A    between atoms: C7_11  and  C8_12 
REMARK    4  A    between atoms: C8_12  and  N3_13 
REMARK    5  A    between atoms: C8_12  and  C19_28 
REMARK    6  A    between atoms: N3_13  and  S1_15 
REMARK    7  A    between atoms: S1_15  and  C9_18 
REMARK       I    between atoms: C19_28  and  N4_30 
ROOT
HETATM    1  C8  UNL     1      -1.988   3.495  22.637  1.00  0.00     0.189 C 
ENDROOT
BRANCH   1   2
HETATM    2  C7  UNL     1      -1.014   3.041  23.691  1.00  0.00     0.074 C 
BRANCH   2   3
HETATM    3  C6  UNL     1      -1.279   3.506  25.049  1.00  0.00    -0.055 A 
HETATM    4  C5  UNL     1      -1.971   4.679  25.242  1.00  0.00     0.007 A 
HETATM    5  C4  UNL     1      -2.208   5.075  26.536  1.00  0.00     0.002 A 
HETATM    6  C3  UNL     1      -1.761   4.310  27.620  1.00  0.00     0.015 A 
HETATM    7  C2  UNL     1      -1.070   3.138  27.447  1.00  0.00     0.005 A 
HETATM    8  C24 UNL     1      -0.842   2.758  26.116  1.00  0.00     0.022 A 
BRANCH   7   9
HETATM    9  C1  UNL     1      -0.593   2.324  28.551  1.00  0.00     0.120 C 
HETATM   10  N1  UNL     1      -0.849   0.922  28.546  1.00  0.00    -0.082 NA
HETATM   11  N2  UNL     1       0.045   2.844  29.517  1.00  0.00    -0.387 N 
ATOM     12  H22 UNL     1       0.380   2.273  30.293  1.00  0.00     0.157 HD
ATOM     13  H21 UNL     1       0.228   3.847  29.521  1.00  0.00     0.157 HD
ENDBRANCH   7   9
ENDBRANCH   2   3
ENDBRANCH   1   2
BRANCH   1  14
HETATM   14  N3  UNL     1      -2.696   2.324  22.187  1.00  0.00    -0.301 N 
ATOM     15  H3  UNL     1      -2.231   1.575  21.673  1.00  0.00     0.173 HD
BRANCH  14  16
HETATM   16  S1  UNL     1      -4.340   2.265  22.559  1.00  0.00     0.259 S 
HETATM   17  O1  UNL     1      -5.066   3.221  21.622  1.00  0.00    -0.201 OA
HETATM   18  O2  UNL     1      -4.916   0.894  22.236  1.00  0.00    -0.201 OA
BRANCH  16  19
HETATM   19  C9  UNL     1      -4.739   2.716  24.178  1.00  0.00     0.080 A 
HETATM   20  C10 UNL     1      -5.404   3.868  24.520  1.00  0.00     0.026 A 
HETATM   21  C11 UNL     1      -5.682   4.149  25.855  1.00  0.00     0.014 A 
HETATM   22  C12 UNL     1      -5.315   3.311  26.872  1.00  0.00    -0.026 A 
HETATM   23  C13 UNL     1      -5.594   3.592  28.205  1.00  0.00     0.012 A 
HETATM   24  C17 UNL     1      -4.648   2.153  26.536  1.00  0.00    -0.025 A 
HETATM   25  C14 UNL     1      -5.214   2.733  29.197  1.00  0.00     0.001 A 
HETATM   26  C15 UNL     1      -4.541   1.565  28.869  1.00  0.00     0.001 A 
HETATM   27  C16 UNL     1      -4.271   1.300  27.538  1.00  0.00     0.012 A 
HETATM   28  C18 UNL     1      -4.371   1.874  25.207  1.00  0.00     0.037 A 
ENDBRANCH  16  19
ENDBRANCH  14  16
ENDBRANCH   1  14
BRANCH   1  29
HETATM   29  C19 UNL     1      -1.372   4.247  21.545  1.00  0.00     0.243 C 
HETATM   30  O3  UNL     1      -0.254   3.825  21.128  1.00  0.00    -0.271 OA
HETATM   31  N4  UNL     1      -1.903   5.375  20.929  1.00  0.00    -0.347 N 
HETATM   32  C20 UNL     1      -1.196   6.053  19.876  1.00  0.00     0.153 C 
HETATM   33  C23 UNL     1      -3.190   5.889  21.311  1.00  0.00     0.153 C 
HETATM   34  C21 UNL     1      -1.628   7.517  19.841  1.00  0.00     0.252 C 
HETATM   35  N5  UNL     1      -3.042   7.676  19.720  1.00  0.00    -0.072 N 
HETATM   36  C22 UNL     1      -3.779   6.473  20.010  1.00  0.00     0.252 C 
ATOM     37  H52 UNL     1      -3.369   8.450  20.299  1.00  0.00     0.277 HD
ATOM     38  H51 UNL     1      -3.287   8.039  18.799  1.00  0.00     0.277 HD
ENDBRANCH   1  29
TORSDOF 7
ENDMDL
