MODEL 4
REMARK VINA RESULT: -9.060912770      1.623      1.886
REMARK  7 active torsions:
REMARK  status: ('A' for Active; 'I' for Inactive)
REMARK       I    between atoms: C2_2  and  N1_4 
REMARK       I    between atoms: N2_7  and  C5_8 
REMARK    1  A    between atoms: C5_8  and  C6_10 
REMARK    2  A    between atoms: C6_10  and  C7_11 
REMARK    3  A    between atoms: C6_10  and  N5_23 
REMARK    4  A    between atoms: C7_11  and  C8_12 
REMARK    5  A    between atoms: C12_16  and  C13_17 
REMARK    6  A    between atoms: N5_23  and  S1_25 
REMARK    7  A    between atoms: S1_25  and  C15_28 
ROOT
HETATM    1  C6  UNL     1      -1.429   2.377  22.184  1.00  0.00     0.189 C 
ENDROOT
BRANCH   1   2
HETATM    2  C5  UNL     1      -2.502   3.372  22.206  1.00  0.00     0.243 C 
HETATM    3  N2  UNL     1      -2.656   4.380  21.217  1.00  0.00    -0.347 N 
HETATM    4  C4  UNL     1      -3.790   5.309  21.276  1.00  0.00     0.145 C 
HETATM    5  C25 UNL     1      -1.716   4.575  20.134  1.00  0.00     0.145 C 
HETATM    6  C3  UNL     1      -3.788   6.177  20.041  1.00  0.00     0.145 C 
HETATM    7  N1  UNL     1      -2.509   6.844  19.936  1.00  0.00    -0.349 N 
HETATM    8  C2  UNL     1      -2.418   8.243  19.785  1.00  0.00     0.215 C 
HETATM    9  C26 UNL     1      -1.325   6.037  19.994  1.00  0.00     0.145 C 
HETATM   10  C1  UNL     1      -3.629   9.087  19.733  1.00  0.00     0.117 C 
HETATM   11  O1  UNL     1      -1.280   8.799  19.693  1.00  0.00    -0.274 OA
HETATM   12  O2  UNL     1      -3.370   3.376  23.148  1.00  0.00    -0.271 OA
ENDBRANCH   1   2
BRANCH   1  13
HETATM   13  C7  UNL     1      -1.654   1.353  21.103  1.00  0.00     0.074 C 
BRANCH  13  14
HETATM   14  C8  UNL     1      -0.477   0.950  20.340  1.00  0.00    -0.055 A 
HETATM   15  C9  UNL     1      -0.209   1.399  19.064  1.00  0.00     0.007 A 
HETATM   16  C10 UNL     1       0.946   0.952  18.459  1.00  0.00     0.002 A 
HETATM   17  C11 UNL     1       1.818   0.089  19.078  1.00  0.00     0.015 A 
HETATM   18  C12 UNL     1       1.567  -0.384  20.378  1.00  0.00     0.005 A 
HETATM   19  C14 UNL     1       0.416   0.071  20.964  1.00  0.00     0.022 A 
BRANCH  18  20
HETATM   20  C13 UNL     1       2.526  -1.292  20.974  1.00  0.00     0.120 C 
HETATM   21  N3  UNL     1       2.116  -2.157  22.016  1.00  0.00    -0.082 NA
HETATM   22  N4  UNL     1       3.741  -1.332  20.580  1.00  0.00    -0.387 N 
ATOM     23  H42 UNL     1       4.037  -0.709  19.829  1.00  0.00     0.157 HD
ATOM     24  H41 UNL     1       4.415  -1.972  21.000  1.00  0.00     0.157 HD
ENDBRANCH  18  20
ENDBRANCH  13  14
ENDBRANCH   1  13
BRANCH   1  25
HETATM   25  N5  UNL     1      -1.304   1.703  23.467  1.00  0.00    -0.301 N 
ATOM     26  H5  UNL     1      -1.915   0.935  23.740  1.00  0.00     0.173 HD
BRANCH  25  27
HETATM   27  S1  UNL     1      -0.078   2.277  24.470  1.00  0.00     0.259 S 
HETATM   28  O3  UNL     1       1.019   1.283  24.715  1.00  0.00    -0.201 OA
HETATM   29  O4  UNL     1       0.587   3.444  23.746  1.00  0.00    -0.201 OA
BRANCH  27  30
HETATM   30  C15 UNL     1      -0.637   2.917  25.997  1.00  0.00     0.080 A 
HETATM   31  C16 UNL     1      -0.187   2.414  27.202  1.00  0.00     0.026 A 
HETATM   32  C17 UNL     1      -0.645   2.946  28.414  1.00  0.00     0.014 A 
HETATM   33  C18 UNL     1      -1.551   3.980  28.421  1.00  0.00    -0.026 A 
HETATM   34  C19 UNL     1      -2.015   4.520  29.601  1.00  0.00     0.012 A 
HETATM   35  C23 UNL     1      -2.012   4.495  27.211  1.00  0.00    -0.025 A 
HETATM   36  C20 UNL     1      -2.926   5.561  29.649  1.00  0.00     0.001 A 
HETATM   37  C21 UNL     1      -3.385   6.076  28.442  1.00  0.00     0.001 A 
HETATM   38  C22 UNL     1      -2.919   5.531  27.256  1.00  0.00     0.012 A 
HETATM   39  C24 UNL     1      -1.544   3.952  26.046  1.00  0.00     0.037 A 
ENDBRANCH  27  30
ENDBRANCH  25  27
ENDBRANCH   1  25
TORSDOF 7
ENDMDL
