MODEL 2
REMARK VINA RESULT: -9.093232914      3.798      6.654
REMARK  7 active torsions:
REMARK  status: ('A' for Active; 'I' for Inactive)
REMARK       I    between atoms: C2_2  and  N1_4 
REMARK       I    between atoms: N2_7  and  C5_8 
REMARK    1  A    between atoms: C5_8  and  C6_10 
REMARK    2  A    between atoms: C6_10  and  C7_11 
REMARK    3  A    between atoms: C6_10  and  N5_23 
REMARK    4  A    between atoms: C7_11  and  C8_12 
REMARK    5  A    between atoms: C12_16  and  C13_17 
REMARK    6  A    between atoms: N5_23  and  S1_25 
REMARK    7  A    between atoms: S1_25  and  C15_28 
ROOT
HETATM    1  C6  UNL     1      -4.325   4.081  22.659  1.00  0.00     0.189 C 
ENDROOT
BRANCH   1   2
HETATM    2  C5  UNL     1      -3.005   4.390  23.212  1.00  0.00     0.243 C 
HETATM    3  N2  UNL     1      -2.004   3.410  23.446  1.00  0.00    -0.347 N 
HETATM    4  C4  UNL     1      -0.684   3.804  23.951  1.00  0.00     0.145 C 
HETATM    5  C25 UNL     1      -2.221   1.993  23.239  1.00  0.00     0.145 C 
HETATM    6  C3  UNL     1       0.221   2.597  23.976  1.00  0.00     0.145 C 
HETATM    7  N1  UNL     1      -0.402   1.555  24.763  1.00  0.00    -0.349 N 
HETATM    8  C2  UNL     1       0.278   0.928  25.826  1.00  0.00     0.215 C 
HETATM    9  C26 UNL     1      -1.746   1.179  24.431  1.00  0.00     0.145 C 
HETATM   10  C1  UNL     1       1.658   1.312  26.184  1.00  0.00     0.117 C 
HETATM   11  O1  UNL     1      -0.297   0.015  26.496  1.00  0.00    -0.274 OA
HETATM   12  O2  UNL     1      -2.692   5.593  23.519  1.00  0.00    -0.271 OA
ENDBRANCH   1   2
BRANCH   1  13
HETATM   13  C7  UNL     1      -4.331   4.203  21.159  1.00  0.00     0.074 C 
BRANCH  13  14
HETATM   14  C8  UNL     1      -3.393   5.164  20.584  1.00  0.00    -0.055 A 
HETATM   15  C9  UNL     1      -2.131   4.822  20.146  1.00  0.00     0.007 A 
HETATM   16  C10 UNL     1      -1.349   5.822  19.609  1.00  0.00     0.002 A 
HETATM   17  C11 UNL     1      -1.783   7.121  19.502  1.00  0.00     0.015 A 
HETATM   18  C12 UNL     1      -3.064   7.495  19.942  1.00  0.00     0.005 A 
HETATM   19  C14 UNL     1      -3.828   6.489  20.472  1.00  0.00     0.022 A 
BRANCH  18  20
HETATM   20  C13 UNL     1      -3.461   8.882  19.801  1.00  0.00     0.120 C 
HETATM   21  N3  UNL     1      -2.472   9.877  19.627  1.00  0.00    -0.082 NA
HETATM   22  N4  UNL     1      -4.690   9.229  19.831  1.00  0.00    -0.387 N 
ATOM     23  H42 UNL     1      -5.404   8.511  19.957  1.00  0.00     0.157 HD
ATOM     24  H41 UNL     1      -4.969  10.206  19.732  1.00  0.00     0.157 HD
ENDBRANCH  18  20
ENDBRANCH  13  14
ENDBRANCH   1  13
BRANCH   1  25
HETATM   25  N5  UNL     1      -5.351   4.946  23.218  1.00  0.00    -0.301 N 
ATOM     26  H5  UNL     1      -5.621   5.824  22.777  1.00  0.00     0.173 HD
BRANCH  25  27
HETATM   27  S1  UNL     1      -6.063   4.399  24.643  1.00  0.00     0.259 S 
HETATM   28  O3  UNL     1      -7.563   4.436  24.623  1.00  0.00    -0.201 OA
HETATM   29  O4  UNL     1      -5.695   2.925  24.794  1.00  0.00    -0.201 OA
BRANCH  27  30
HETATM   30  C15 UNL     1      -5.480   5.188  26.090  1.00  0.00     0.080 A 
HETATM   31  C16 UNL     1      -6.329   5.881  26.930  1.00  0.00     0.026 A 
HETATM   32  C17 UNL     1      -5.840   6.501  28.086  1.00  0.00     0.014 A 
HETATM   33  C18 UNL     1      -4.505   6.428  28.403  1.00  0.00    -0.026 A 
HETATM   34  C19 UNL     1      -4.000   7.030  29.536  1.00  0.00     0.012 A 
HETATM   35  C23 UNL     1      -3.639   5.732  27.562  1.00  0.00    -0.025 A 
HETATM   36  C20 UNL     1      -2.664   6.978  29.888  1.00  0.00     0.001 A 
HETATM   37  C21 UNL     1      -1.800   6.282  29.050  1.00  0.00     0.001 A 
HETATM   38  C22 UNL     1      -2.307   5.679  27.911  1.00  0.00     0.012 A 
HETATM   39  C24 UNL     1      -4.149   5.138  26.440  1.00  0.00     0.037 A 
ENDBRANCH  27  30
ENDBRANCH  25  27
ENDBRANCH   1  25
TORSDOF 7
ENDMDL
