MODEL 3
REMARK VINA RESULT: -9.062912598      2.490      8.677
REMARK  7 active torsions:
REMARK  status: ('A' for Active; 'I' for Inactive)
REMARK       I    between atoms: C2_2  and  N1_4 
REMARK       I    between atoms: N2_7  and  C5_8 
REMARK    1  A    between atoms: C5_8  and  C6_10 
REMARK    2  A    between atoms: C6_10  and  C7_11 
REMARK    3  A    between atoms: C6_10  and  N5_23 
REMARK    4  A    between atoms: C7_11  and  C8_12 
REMARK    5  A    between atoms: C12_16  and  C13_17 
REMARK    6  A    between atoms: N5_23  and  S1_25 
REMARK    7  A    between atoms: S1_25  and  C15_28 
ROOT
HETATM    1  C6  UNL     1      -2.569   3.606  22.022  1.00  0.00     0.189 C 
ENDROOT
BRANCH   1   2
HETATM    2  C5  UNL     1      -3.121   3.470  23.371  1.00  0.00     0.243 C 
HETATM    3  N2  UNL     1      -2.349   3.623  24.553  1.00  0.00    -0.347 N 
HETATM    4  C4  UNL     1      -2.985   3.526  25.872  1.00  0.00     0.145 C 
HETATM    5  C25 UNL     1      -0.918   3.845  24.539  1.00  0.00     0.145 C 
HETATM    6  C3  UNL     1      -1.973   3.863  26.939  1.00  0.00     0.145 C 
HETATM    7  N1  UNL     1      -0.827   2.992  26.794  1.00  0.00    -0.349 N 
HETATM    8  C2  UNL     1      -0.335   2.235  27.876  1.00  0.00     0.215 C 
HETATM    9  C26 UNL     1      -0.203   2.915  25.505  1.00  0.00     0.145 C 
HETATM   10  C1  UNL     1      -0.973   2.298  29.207  1.00  0.00     0.117 C 
HETATM   11  O1  UNL     1       0.675   1.482  27.717  1.00  0.00    -0.274 OA
HETATM   12  O2  UNL     1      -4.360   3.196  23.543  1.00  0.00    -0.271 OA
ENDBRANCH   1   2
BRANCH   1  13
HETATM   13  C7  UNL     1      -3.436   4.487  21.162  1.00  0.00     0.074 C 
BRANCH  13  14
HETATM   14  C8  UNL     1      -2.760   5.579  20.466  1.00  0.00    -0.055 A 
HETATM   15  C9  UNL     1      -1.556   5.430  19.811  1.00  0.00     0.007 A 
HETATM   16  C10 UNL     1      -1.031   6.538  19.180  1.00  0.00     0.002 A 
HETATM   17  C11 UNL     1      -1.661   7.759  19.188  1.00  0.00     0.015 A 
HETATM   18  C12 UNL     1      -2.888   7.936  19.849  1.00  0.00     0.005 A 
HETATM   19  C14 UNL     1      -3.395   6.826  20.470  1.00  0.00     0.022 A 
BRANCH  18  20
HETATM   20  C13 UNL     1      -3.500   9.250  19.820  1.00  0.00     0.120 C 
HETATM   21  N3  UNL     1      -2.693  10.392  19.612  1.00  0.00    -0.082 NA
HETATM   22  N4  UNL     1      -4.759   9.402  19.978  1.00  0.00    -0.387 N 
ATOM     23  H42 UNL     1      -5.341   8.578  20.127  1.00  0.00     0.157 HD
ATOM     24  H41 UNL     1      -5.189  10.327  19.956  1.00  0.00     0.157 HD
ENDBRANCH  18  20
ENDBRANCH  13  14
ENDBRANCH   1  13
BRANCH   1  25
HETATM   25  N5  UNL     1      -2.411   2.312  21.379  1.00  0.00    -0.301 N 
ATOM     26  H5  UNL     1      -3.207   1.770  21.044  1.00  0.00     0.173 HD
BRANCH  25  27
HETATM   27  S1  UNL     1      -0.824   1.768  21.225  1.00  0.00     0.259 S 
HETATM   28  O3  UNL     1       0.203   2.854  21.360  1.00  0.00    -0.201 OA
HETATM   29  O4  UNL     1      -0.560   0.814  22.386  1.00  0.00    -0.201 OA
BRANCH  27  30
HETATM   30  C15 UNL     1      -0.514   0.850  19.770  1.00  0.00     0.080 A 
HETATM   31  C16 UNL     1       0.600   1.087  18.988  1.00  0.00     0.026 A 
HETATM   32  C17 UNL     1       0.830   0.334  17.829  1.00  0.00     0.014 A 
HETATM   33  C18 UNL     1      -0.050  -0.651  17.453  1.00  0.00    -0.026 A 
HETATM   34  C19 UNL     1       0.156  -1.405  16.317  1.00  0.00     0.012 A 
HETATM   35  C23 UNL     1      -1.177  -0.898  18.235  1.00  0.00    -0.025 A 
HETATM   36  C20 UNL     1      -0.706  -2.405  15.907  1.00  0.00     0.001 A 
HETATM   37  C21 UNL     1      -1.830  -2.652  16.687  1.00  0.00     0.001 A 
HETATM   38  C22 UNL     1      -2.038  -1.894  17.828  1.00  0.00     0.012 A 
HETATM   39  C24 UNL     1      -1.373  -0.145  19.361  1.00  0.00     0.037 A 
ENDBRANCH  27  30
ENDBRANCH  25  27
ENDBRANCH   1  25
TORSDOF 7
ENDMDL
