MODEL 1
REMARK VINA RESULT: -9.262212792      0.000      0.000
REMARK  7 active torsions:
REMARK  status: ('A' for Active; 'I' for Inactive)
REMARK       I    between atoms: C2_2  and  N1_4 
REMARK       I    between atoms: N2_7  and  C5_8 
REMARK    1  A    between atoms: C5_8  and  C6_10 
REMARK    2  A    between atoms: C6_10  and  C7_11 
REMARK    3  A    between atoms: C6_10  and  N5_23 
REMARK    4  A    between atoms: C7_11  and  C8_12 
REMARK    5  A    between atoms: C12_16  and  C13_17 
REMARK    6  A    between atoms: N5_23  and  S1_25 
REMARK    7  A    between atoms: S1_25  and  C15_28 
ROOT
HETATM    1  C6  UNL     1      -1.513   2.223  21.996  1.00  0.00     0.189 C 
ENDROOT
BRANCH   1   2
HETATM    2  C5  UNL     1      -2.559   3.246  22.035  1.00  0.00     0.243 C 
HETATM    3  N2  UNL     1      -2.671   4.289  21.077  1.00  0.00    -0.347 N 
HETATM    4  C4  UNL     1      -3.780   5.247  21.151  1.00  0.00     0.145 C 
HETATM    5  C25 UNL     1      -1.710   4.493  20.014  1.00  0.00     0.145 C 
HETATM    6  C3  UNL     1      -3.736   6.154  19.945  1.00  0.00     0.145 C 
HETATM    7  N1  UNL     1      -2.439   6.789  19.879  1.00  0.00    -0.349 N 
HETATM    8  C2  UNL     1      -2.307   8.188  19.776  1.00  0.00     0.215 C 
HETATM    9  C26 UNL     1      -1.278   5.947  19.928  1.00  0.00     0.145 C 
HETATM   10  C1  UNL     1      -3.494   9.067  19.734  1.00  0.00     0.117 C 
HETATM   11  O1  UNL     1      -1.153   8.715  19.717  1.00  0.00    -0.274 OA
HETATM   12  O2  UNL     1      -3.440   3.243  22.965  1.00  0.00    -0.271 OA
ENDBRANCH   1   2
BRANCH   1  13
HETATM   13  C7  UNL     1      -1.808   1.180  20.951  1.00  0.00     0.074 C 
BRANCH  13  14
HETATM   14  C8  UNL     1      -0.684   0.767  20.115  1.00  0.00    -0.055 A 
HETATM   15  C9  UNL     1       0.636   0.925  20.485  1.00  0.00     0.007 A 
HETATM   16  C10 UNL     1       1.602   0.479  19.609  1.00  0.00     0.002 A 
HETATM   17  C11 UNL     1       1.293  -0.105  18.404  1.00  0.00     0.015 A 
HETATM   18  C12 UNL     1      -0.043  -0.277  18.004  1.00  0.00     0.005 A 
HETATM   19  C14 UNL     1      -0.990   0.171  18.886  1.00  0.00     0.022 A 
BRANCH  18  20
HETATM   20  C13 UNL     1      -0.301  -0.899  16.721  1.00  0.00     0.120 C 
HETATM   21  N3  UNL     1      -1.572  -0.758  16.118  1.00  0.00    -0.082 NA
HETATM   22  N4  UNL     1       0.598  -1.578  16.117  1.00  0.00    -0.387 N 
ATOM     23  H42 UNL     1       1.516  -1.680  16.551  1.00  0.00     0.157 HD
ATOM     24  H41 UNL     1       0.417  -2.015  15.213  1.00  0.00     0.157 HD
ENDBRANCH  18  20
ENDBRANCH  13  14
ENDBRANCH   1  13
BRANCH   1  25
HETATM   25  N5  UNL     1      -1.353   1.577  23.289  1.00  0.00    -0.301 N 
ATOM     26  H5  UNL     1      -1.935   0.793  23.582  1.00  0.00     0.173 HD
BRANCH  25  27
HETATM   27  S1  UNL     1      -0.141   2.213  24.271  1.00  0.00     0.259 S 
HETATM   28  O3  UNL     1       0.988   1.258  24.534  1.00  0.00    -0.201 OA
HETATM   29  O4  UNL     1       0.485   3.382  23.515  1.00  0.00    -0.201 OA
BRANCH  27  30
HETATM   30  C15 UNL     1      -0.711   2.873  25.786  1.00  0.00     0.080 A 
HETATM   31  C16 UNL     1      -0.283   2.374  27.000  1.00  0.00     0.026 A 
HETATM   32  C17 UNL     1      -0.749   2.922  28.201  1.00  0.00     0.014 A 
HETATM   33  C18 UNL     1      -1.642   3.967  28.188  1.00  0.00    -0.026 A 
HETATM   34  C19 UNL     1      -2.115   4.523  29.358  1.00  0.00     0.012 A 
HETATM   35  C23 UNL     1      -2.081   4.478  26.968  1.00  0.00    -0.025 A 
HETATM   36  C20 UNL     1      -3.013   5.575  29.385  1.00  0.00     0.001 A 
HETATM   37  C21 UNL     1      -3.450   6.086  28.168  1.00  0.00     0.001 A 
HETATM   38  C22 UNL     1      -2.975   5.526  26.993  1.00  0.00     0.012 A 
HETATM   39  C24 UNL     1      -1.605   3.919  25.814  1.00  0.00     0.037 A 
ENDBRANCH  27  30
ENDBRANCH  25  27
ENDBRANCH   1  25
TORSDOF 7
ENDMDL
