MODEL 7
REMARK VINA RESULT: -8.024988058      3.159      5.890
REMARK  12 active torsions:
REMARK  status: ('A' for Active; 'I' for Inactive)
REMARK    1  A    between atoms: O1_2  and  C2_3 
REMARK    2  A    between atoms: C6_7  and  S1_8 
REMARK    3  A    between atoms: S1_8  and  N1_11 
REMARK    4  A    between atoms: N1_11  and  C7_13 
REMARK    5  A    between atoms: C7_13  and  C8_14 
REMARK    6  A    between atoms: C7_13  and  C10_18 
REMARK    7  A    between atoms: C8_14  and  C9_15 
REMARK       I    between atoms: C10_18  and  N2_20 
REMARK    8  A    between atoms: N2_20  and  C11_22 
REMARK    9  A    between atoms: C11_22  and  C12_23 
REMARK   10  A    between atoms: C11_22  and  C20_35 
REMARK   11  A    between atoms: C12_23  and  C13_24 
REMARK   12  A    between atoms: C16_27  and  C17_28 
REMARK       I    between atoms: C20_35  and  N5_37 
ROOT
HETATM    1  C10 UNL     1       0.877  18.536  20.184  1.00  0.00     0.242 C 
HETATM    2  O6  UNL     1       1.090  17.404  20.743  1.00  0.00    -0.271 OA
HETATM    3  N2  UNL     1      -0.456  18.921  20.085  1.00  0.00    -0.346 N 
ATOM      4  H2  UNL     1      -0.681  19.807  19.633  1.00  0.00     0.163 HD
ENDROOT
BRANCH   1   5
HETATM    5  C7  UNL     1       2.078  19.326  19.686  1.00  0.00     0.195 C 
BRANCH   5   6
HETATM    6  N1  UNL     1       1.671  20.662  19.451  1.00  0.00    -0.301 N 
ATOM      7  H1  UNL     1       1.419  21.247  20.248  1.00  0.00     0.173 HD
BRANCH   6   8
HETATM    8  S1  UNL     1       1.589  21.308  17.928  1.00  0.00     0.260 S 
HETATM    9  O2  UNL     1       2.492  20.699  16.902  1.00  0.00    -0.200 OA
HETATM   10  O3  UNL     1       2.004  22.786  18.036  1.00  0.00    -0.200 OA
BRANCH   8  11
HETATM   11  C6  UNL     1      -0.027  21.361  17.249  1.00  0.00     0.092 A 
HETATM   12  C4  UNL     1      -0.593  20.200  16.728  1.00  0.00    -0.035 A 
HETATM   13  C3  UNL     1      -1.864  20.171  16.203  1.00  0.00     0.045 A 
HETATM   14  C5  UNL     1       0.172  18.940  16.727  1.00  0.00     0.050 C 
HETATM   15  C2  UNL     1      -2.633  21.312  16.177  1.00  0.00     0.075 A 
HETATM   16  C28 UNL     1      -2.096  22.468  16.686  1.00  0.00    -0.021 A 
HETATM   17  C26 UNL     1      -0.800  22.500  17.222  1.00  0.00    -0.029 A 
HETATM   18  C29 UNL     1      -2.890  23.737  16.680  1.00  0.00     0.052 C 
HETATM   19  C27 UNL     1      -0.358  23.790  17.772  1.00  0.00     0.050 C 
BRANCH  15  20
HETATM   20  O1  UNL     1      -3.928  21.330  15.654  1.00  0.00    -0.355 OA
HETATM   21  C1  UNL     1      -4.967  20.676  16.333  1.00  0.00     0.210 C 
ENDBRANCH  15  20
ENDBRANCH   8  11
ENDBRANCH   6   8
ENDBRANCH   5   6
BRANCH   5  22
HETATM   22  C8  UNL     1       3.289  19.128  20.525  1.00  0.00     0.148 C 
BRANCH  22  23
HETATM   23  C9  UNL     1       3.647  20.353  21.282  1.00  0.00     0.175 C 
HETATM   24  O4  UNL     1       4.522  21.148  20.788  1.00  0.00    -0.648 OA
HETATM   25  O5  UNL     1       3.098  20.697  22.491  1.00  0.00    -0.648 OA
ENDBRANCH  22  23
ENDBRANCH   5  22
ENDBRANCH   1   5
BRANCH   3  26
HETATM   26  C11 UNL     1      -1.557  18.088  20.615  1.00  0.00     0.181 C 
BRANCH  26  27
HETATM   27  C12 UNL     1      -2.389  17.822  19.356  1.00  0.00     0.073 C 
BRANCH  27  28
HETATM   28  C13 UNL     1      -2.069  16.610  18.625  1.00  0.00    -0.056 A 
HETATM   29  C14 UNL     1      -1.285  15.585  19.112  1.00  0.00     0.008 A 
HETATM   30  C15 UNL     1      -1.001  14.472  18.330  1.00  0.00     0.015 A 
HETATM   31  C16 UNL     1      -1.481  14.349  17.066  1.00  0.00     0.004 A 
HETATM   32  C18 UNL     1      -2.281  15.380  16.553  1.00  0.00     0.015 A 
HETATM   33  C19 UNL     1      -2.543  16.453  17.333  1.00  0.00     0.008 A 
BRANCH  31  34
HETATM   34  C17 UNL     1      -1.214  13.209  16.216  1.00  0.00     0.120 C 
HETATM   35  N3  UNL     1      -0.043  12.407  16.431  1.00  0.00    -0.082 NA
HETATM   36  N4  UNL     1      -1.993  12.882  15.272  1.00  0.00    -0.387 N 
ATOM     37  H42 UNL     1      -2.825  13.451  15.118  1.00  0.00     0.157 HD
ATOM     38  H41 UNL     1      -1.806  12.078  14.672  1.00  0.00     0.157 HD
ENDBRANCH  31  34
ENDBRANCH  27  28
ENDBRANCH  26  27
BRANCH  26  39
HETATM   39  C20 UNL     1      -2.395  18.859  21.551  1.00  0.00     0.242 C 
HETATM   40  O7  UNL     1      -2.924  19.921  21.066  1.00  0.00    -0.271 OA
HETATM   41  N5  UNL     1      -2.618  18.493  22.881  1.00  0.00    -0.350 N 
HETATM   42  C21 UNL     1      -2.029  17.351  23.537  1.00  0.00     0.126 C 
HETATM   43  C25 UNL     1      -3.509  19.308  23.700  1.00  0.00     0.126 C 
HETATM   44  C22 UNL     1      -1.490  17.886  24.874  1.00  0.00     0.020 C 
HETATM   45  C23 UNL     1      -2.717  18.088  25.758  1.00  0.00     0.003 C 
HETATM   46  C24 UNL     1      -3.899  18.590  24.974  1.00  0.00     0.020 C 
ENDBRANCH  26  39
ENDBRANCH   3  26
TORSDOF 12
ENDMDL
