MODEL 2
REMARK VINA RESULT: -8.355622621      2.772      4.932
REMARK  12 active torsions:
REMARK  status: ('A' for Active; 'I' for Inactive)
REMARK    1  A    between atoms: O1_2  and  C2_3 
REMARK    2  A    between atoms: C6_7  and  S1_8 
REMARK    3  A    between atoms: S1_8  and  N1_11 
REMARK    4  A    between atoms: N1_11  and  C7_13 
REMARK    5  A    between atoms: C7_13  and  C8_14 
REMARK    6  A    between atoms: C7_13  and  C10_18 
REMARK    7  A    between atoms: C8_14  and  C9_15 
REMARK       I    between atoms: C10_18  and  N2_20 
REMARK    8  A    between atoms: N2_20  and  C11_22 
REMARK    9  A    between atoms: C11_22  and  C12_23 
REMARK   10  A    between atoms: C11_22  and  C20_35 
REMARK   11  A    between atoms: C12_23  and  C13_24 
REMARK   12  A    between atoms: C16_27  and  C17_28 
REMARK       I    between atoms: C20_35  and  N5_37 
ROOT
HETATM    1  C10 UNL     1       0.881  18.893  20.135  1.00  0.00     0.242 C 
HETATM    2  O6  UNL     1       1.157  17.904  20.900  1.00  0.00    -0.271 OA
HETATM    3  N2  UNL     1      -0.467  19.074  19.840  1.00  0.00    -0.346 N 
ATOM      4  H2  UNL     1      -0.739  19.838  19.222  1.00  0.00     0.163 HD
ENDROOT
BRANCH   1   5
HETATM    5  C7  UNL     1       2.031  19.751  19.629  1.00  0.00     0.195 C 
BRANCH   5   6
HETATM    6  N1  UNL     1       1.668  21.114  19.762  1.00  0.00    -0.301 N 
ATOM      7  H1  UNL     1       1.684  21.540  20.688  1.00  0.00     0.173 HD
BRANCH   6   8
HETATM    8  S1  UNL     1       1.217  22.040  18.465  1.00  0.00     0.260 S 
HETATM    9  O2  UNL     1       1.139  23.516  18.702  1.00  0.00    -0.200 OA
HETATM   10  O3  UNL     1      -0.200  21.599  18.059  1.00  0.00    -0.200 OA
BRANCH   8  11
HETATM   11  C6  UNL     1       2.181  21.785  17.022  1.00  0.00     0.092 A 
HETATM   12  C4  UNL     1       3.555  22.012  17.062  1.00  0.00    -0.035 A 
HETATM   13  C3  UNL     1       4.367  21.807  15.972  1.00  0.00     0.045 A 
HETATM   14  C5  UNL     1       4.189  22.486  18.305  1.00  0.00     0.050 C 
HETATM   15  C2  UNL     1       3.838  21.362  14.782  1.00  0.00     0.075 A 
HETATM   16  C28 UNL     1       2.487  21.131  14.719  1.00  0.00    -0.021 A 
HETATM   17  C26 UNL     1       1.656  21.338  15.830  1.00  0.00    -0.029 A 
HETATM   18  C29 UNL     1       1.861  20.647  13.449  1.00  0.00     0.052 C 
HETATM   19  C27 UNL     1       0.234  21.014  15.645  1.00  0.00     0.050 C 
BRANCH  15  20
HETATM   20  O1  UNL     1       4.625  21.140  13.649  1.00  0.00    -0.355 OA
HETATM   21  C1  UNL     1       5.906  20.583  13.784  1.00  0.00     0.210 C 
ENDBRANCH  15  20
ENDBRANCH   8  11
ENDBRANCH   6   8
ENDBRANCH   5   6
BRANCH   5  22
HETATM   22  C8  UNL     1       3.345  19.346  20.192  1.00  0.00     0.148 C 
BRANCH  22  23
HETATM   23  C9  UNL     1       3.777  20.241  21.295  1.00  0.00     0.175 C 
HETATM   24  O4  UNL     1       3.006  20.385  22.307  1.00  0.00    -0.648 OA
HETATM   25  O5  UNL     1       4.961  20.934  21.303  1.00  0.00    -0.648 OA
ENDBRANCH  22  23
ENDBRANCH   5  22
ENDBRANCH   1   5
BRANCH   3  26
HETATM   26  C11 UNL     1      -1.519  18.192  20.396  1.00  0.00     0.181 C 
BRANCH  26  27
HETATM   27  C12 UNL     1      -2.346  17.860  19.149  1.00  0.00     0.073 C 
BRANCH  27  28
HETATM   28  C13 UNL     1      -2.002  16.628  18.466  1.00  0.00    -0.056 A 
HETATM   29  C14 UNL     1      -1.114  15.688  18.945  1.00  0.00     0.008 A 
HETATM   30  C15 UNL     1      -0.817  14.547  18.208  1.00  0.00     0.015 A 
HETATM   31  C16 UNL     1      -1.385  14.315  16.997  1.00  0.00     0.004 A 
HETATM   32  C18 UNL     1      -2.291  15.259  16.493  1.00  0.00     0.015 A 
HETATM   33  C19 UNL     1      -2.563  16.359  17.228  1.00  0.00     0.008 A 
BRANCH  31  34
HETATM   34  C17 UNL     1      -1.108  13.142  16.195  1.00  0.00     0.120 C 
HETATM   35  N3  UNL     1       0.075  12.365  16.438  1.00  0.00    -0.082 NA
HETATM   36  N4  UNL     1      -1.888  12.765  15.271  1.00  0.00    -0.387 N 
ATOM     37  H42 UNL     1      -2.728  13.316  15.098  1.00  0.00     0.157 HD
ATOM     38  H41 UNL     1      -1.694  11.938  14.706  1.00  0.00     0.157 HD
ENDBRANCH  31  34
ENDBRANCH  27  28
ENDBRANCH  26  27
BRANCH  26  39
HETATM   39  C20 UNL     1      -2.387  18.935  21.325  1.00  0.00     0.242 C 
HETATM   40  O7  UNL     1      -2.915  20.001  20.851  1.00  0.00    -0.271 OA
HETATM   41  N5  UNL     1      -2.641  18.538  22.642  1.00  0.00    -0.350 N 
HETATM   42  C21 UNL     1      -2.058  17.387  23.288  1.00  0.00     0.126 C 
HETATM   43  C25 UNL     1      -3.562  19.325  23.454  1.00  0.00     0.126 C 
HETATM   44  C22 UNL     1      -1.558  17.899  24.649  1.00  0.00     0.020 C 
HETATM   45  C23 UNL     1      -2.810  18.069  25.505  1.00  0.00     0.003 C 
HETATM   46  C24 UNL     1      -3.976  18.576  24.702  1.00  0.00     0.020 C 
ENDBRANCH  26  39
ENDBRANCH   3  26
TORSDOF 12
ENDMDL
