MODEL 13
REMARK VINA RESULT: -7.779598464      2.023      2.728
REMARK  12 active torsions:
REMARK  status: ('A' for Active; 'I' for Inactive)
REMARK    1  A    between atoms: O1_2  and  C2_3 
REMARK    2  A    between atoms: C6_7  and  S1_8 
REMARK    3  A    between atoms: S1_8  and  N1_11 
REMARK    4  A    between atoms: N1_11  and  C7_13 
REMARK    5  A    between atoms: C7_13  and  C8_14 
REMARK    6  A    between atoms: C7_13  and  C10_18 
REMARK    7  A    between atoms: C8_14  and  C9_15 
REMARK       I    between atoms: C10_18  and  N2_20 
REMARK    8  A    between atoms: N2_20  and  C11_22 
REMARK    9  A    between atoms: C11_22  and  C12_23 
REMARK   10  A    between atoms: C11_22  and  C20_35 
REMARK   11  A    between atoms: C12_23  and  C13_24 
REMARK   12  A    between atoms: C16_27  and  C17_28 
REMARK       I    between atoms: C20_35  and  N5_37 
ROOT
HETATM    1  C10 UNL     1      -0.836  19.582  18.104  1.00  0.00     0.242 C 
HETATM    2  O6  UNL     1       0.147  18.945  17.588  1.00  0.00    -0.271 OA
HETATM    3  N2  UNL     1      -1.187  19.210  19.398  1.00  0.00    -0.346 N 
ATOM      4  H2  UNL     1      -1.974  19.676  19.849  1.00  0.00     0.163 HD
ENDROOT
BRANCH   1   5
HETATM    5  C7  UNL     1      -1.513  20.655  17.265  1.00  0.00     0.195 C 
BRANCH   5   6
HETATM    6  N1  UNL     1      -0.934  20.648  15.972  1.00  0.00    -0.301 N 
ATOM      7  H1  UNL     1      -1.137  19.869  15.346  1.00  0.00     0.173 HD
BRANCH   6   8
HETATM    8  S1  UNL     1       0.064  21.859  15.442  1.00  0.00     0.260 S 
HETATM    9  O2  UNL     1      -0.600  23.148  15.070  1.00  0.00    -0.200 OA
HETATM   10  O3  UNL     1       0.757  21.354  14.165  1.00  0.00    -0.200 OA
BRANCH   8  11
HETATM   11  C6  UNL     1       1.385  22.239  16.531  1.00  0.00     0.092 A 
HETATM   12  C4  UNL     1       2.557  21.488  16.480  1.00  0.00    -0.035 A 
HETATM   13  C3  UNL     1       3.636  21.751  17.291  1.00  0.00     0.045 A 
HETATM   14  C5  UNL     1       2.675  20.366  15.533  1.00  0.00     0.050 C 
HETATM   15  C2  UNL     1       3.592  22.787  18.196  1.00  0.00     0.075 A 
HETATM   16  C28 UNL     1       2.447  23.542  18.263  1.00  0.00    -0.021 A 
HETATM   17  C26 UNL     1       1.345  23.275  17.437  1.00  0.00    -0.029 A 
HETATM   18  C29 UNL     1       2.347  24.679  19.230  1.00  0.00     0.052 C 
HETATM   19  C27 UNL     1       0.196  24.182  17.577  1.00  0.00     0.050 C 
BRANCH  15  20
HETATM   20  O1  UNL     1       4.664  23.092  19.039  1.00  0.00    -0.355 OA
HETATM   21  C1  UNL     1       5.045  22.187  20.041  1.00  0.00     0.210 C 
ENDBRANCH  15  20
ENDBRANCH   8  11
ENDBRANCH   6   8
ENDBRANCH   5   6
BRANCH   5  22
HETATM   22  C8  UNL     1      -2.996  20.598  17.339  1.00  0.00     0.148 C 
BRANCH  22  23
HETATM   23  C9  UNL     1      -3.542  19.413  16.631  1.00  0.00     0.175 C 
HETATM   24  O4  UNL     1      -4.796  19.166  16.719  1.00  0.00    -0.648 OA
HETATM   25  O5  UNL     1      -2.784  18.551  15.879  1.00  0.00    -0.648 OA
ENDBRANCH  22  23
ENDBRANCH   5  22
ENDBRANCH   1   5
BRANCH   3  26
HETATM   26  C11 UNL     1      -0.455  18.161  20.141  1.00  0.00     0.181 C 
BRANCH  26  27
HETATM   27  C12 UNL     1      -1.490  17.032  20.199  1.00  0.00     0.073 C 
BRANCH  27  28
HETATM   28  C13 UNL     1      -1.454  16.077  19.108  1.00  0.00    -0.056 A 
HETATM   29  C14 UNL     1      -2.363  16.036  18.071  1.00  0.00     0.008 A 
HETATM   30  C15 UNL     1      -2.273  15.065  17.081  1.00  0.00     0.015 A 
HETATM   31  C16 UNL     1      -1.293  14.125  17.095  1.00  0.00     0.004 A 
HETATM   32  C18 UNL     1      -0.359  14.149  18.140  1.00  0.00     0.015 A 
HETATM   33  C19 UNL     1      -0.468  15.104  19.091  1.00  0.00     0.008 A 
BRANCH  31  34
HETATM   34  C17 UNL     1      -1.158  13.096  16.087  1.00  0.00     0.120 C 
HETATM   35  N3  UNL     1      -0.041  12.194  16.121  1.00  0.00    -0.082 NA
HETATM   36  N4  UNL     1      -2.008  12.954  15.158  1.00  0.00    -0.387 N 
ATOM     37  H42 UNL     1      -2.802  13.594  15.133  1.00  0.00     0.157 HD
ATOM     38  H41 UNL     1      -1.914  12.229  14.447  1.00  0.00     0.157 HD
ENDBRANCH  31  34
ENDBRANCH  27  28
ENDBRANCH  26  27
BRANCH  26  39
HETATM   39  C20 UNL     1      -0.182  18.591  21.523  1.00  0.00     0.242 C 
HETATM   40  O7  UNL     1      -0.879  18.008  22.427  1.00  0.00    -0.271 OA
HETATM   41  N5  UNL     1       0.760  19.565  21.866  1.00  0.00    -0.350 N 
HETATM   42  C21 UNL     1       1.556  20.316  20.926  1.00  0.00     0.126 C 
HETATM   43  C25 UNL     1       0.981  19.872  23.275  1.00  0.00     0.126 C 
HETATM   44  C22 UNL     1       1.429  21.783  21.371  1.00  0.00     0.020 C 
HETATM   45  C23 UNL     1       2.308  21.909  22.612  1.00  0.00     0.003 C 
HETATM   46  C24 UNL     1       2.247  20.676  23.473  1.00  0.00     0.020 C 
ENDBRANCH  26  39
ENDBRANCH   3  26
TORSDOF 12
ENDMDL
