MODEL 6
REMARK VINA RESULT: -8.093179618      2.847      5.035
REMARK  12 active torsions:
REMARK  status: ('A' for Active; 'I' for Inactive)
REMARK    1  A    between atoms: O1_2  and  C2_3 
REMARK    2  A    between atoms: C6_7  and  S1_8 
REMARK    3  A    between atoms: S1_8  and  N1_11 
REMARK    4  A    between atoms: N1_11  and  C7_13 
REMARK    5  A    between atoms: C7_13  and  C8_14 
REMARK    6  A    between atoms: C7_13  and  C10_18 
REMARK    7  A    between atoms: C8_14  and  C9_15 
REMARK       I    between atoms: C10_18  and  N2_20 
REMARK    8  A    between atoms: N2_20  and  C11_22 
REMARK    9  A    between atoms: C11_22  and  C12_23 
REMARK   10  A    between atoms: C11_22  and  C20_35 
REMARK   11  A    between atoms: C12_23  and  C13_24 
REMARK   12  A    between atoms: C16_27  and  C17_28 
REMARK       I    between atoms: C20_35  and  N5_37 
ROOT
HETATM    1  C10 UNL     1       0.882  18.879  20.080  1.00  0.00     0.242 C 
HETATM    2  O6  UNL     1       1.171  17.837  20.767  1.00  0.00    -0.271 OA
HETATM    3  N2  UNL     1      -0.474  19.107  19.866  1.00  0.00    -0.346 N 
ATOM      4  H2  UNL     1      -0.756  19.914  19.312  1.00  0.00     0.163 HD
ENDROOT
BRANCH   1   5
HETATM    5  C7  UNL     1       2.028  19.741  19.571  1.00  0.00     0.195 C 
BRANCH   5   6
HETATM    6  N1  UNL     1       1.633  21.100  19.642  1.00  0.00    -0.301 N 
ATOM      7  H1  UNL     1       0.985  21.387  20.375  1.00  0.00     0.173 HD
BRANCH   6   8
HETATM    8  S1  UNL     1       2.188  22.239  18.576  1.00  0.00     0.260 S 
HETATM    9  O2  UNL     1       3.549  22.799  18.854  1.00  0.00    -0.200 OA
HETATM   10  O3  UNL     1       1.218  23.432  18.636  1.00  0.00    -0.200 OA
BRANCH   8  11
HETATM   11  C6  UNL     1       2.155  21.737  16.896  1.00  0.00     0.092 A 
HETATM   12  C4  UNL     1       0.944  21.382  16.307  1.00  0.00    -0.035 A 
HETATM   13  C3  UNL     1       0.849  21.003  14.989  1.00  0.00     0.045 A 
HETATM   14  C5  UNL     1      -0.298  21.406  17.100  1.00  0.00     0.050 C 
HETATM   15  C2  UNL     1       1.970  20.963  14.193  1.00  0.00     0.075 A 
HETATM   16  C28 UNL     1       3.175  21.310  14.751  1.00  0.00    -0.021 A 
HETATM   17  C26 UNL     1       3.275  21.697  16.096  1.00  0.00    -0.029 A 
HETATM   18  C29 UNL     1       4.426  21.282  13.929  1.00  0.00     0.052 C 
HETATM   19  C27 UNL     1       4.615  22.084  16.561  1.00  0.00     0.050 C 
BRANCH  15  20
HETATM   20  O1  UNL     1       1.921  20.585  12.848  1.00  0.00    -0.355 OA
HETATM   21  C1  UNL     1       1.178  21.345  11.933  1.00  0.00     0.210 C 
ENDBRANCH  15  20
ENDBRANCH   8  11
ENDBRANCH   6   8
ENDBRANCH   5   6
BRANCH   5  22
HETATM   22  C8  UNL     1       3.335  19.386  20.182  1.00  0.00     0.148 C 
BRANCH  22  23
HETATM   23  C9  UNL     1       3.667  20.262  21.333  1.00  0.00     0.175 C 
HETATM   24  O4  UNL     1       4.787  20.882  21.331  1.00  0.00    -0.648 OA
HETATM   25  O5  UNL     1       2.844  20.455  22.414  1.00  0.00    -0.648 OA
ENDBRANCH  22  23
ENDBRANCH   5  22
ENDBRANCH   1   5
BRANCH   3  26
HETATM   26  C11 UNL     1      -1.518  18.216  20.418  1.00  0.00     0.181 C 
BRANCH  26  27
HETATM   27  C12 UNL     1      -2.349  17.891  19.172  1.00  0.00     0.073 C 
BRANCH  27  28
HETATM   28  C13 UNL     1      -2.009  16.660  18.484  1.00  0.00    -0.056 A 
HETATM   29  C14 UNL     1      -1.128  15.712  18.961  1.00  0.00     0.008 A 
HETATM   30  C15 UNL     1      -0.835  14.574  18.219  1.00  0.00     0.015 A 
HETATM   31  C16 UNL     1      -1.399  14.352  17.004  1.00  0.00     0.004 A 
HETATM   32  C18 UNL     1      -2.298  15.303  16.502  1.00  0.00     0.015 A 
HETATM   33  C19 UNL     1      -2.567  16.402  17.242  1.00  0.00     0.008 A 
BRANCH  31  34
HETATM   34  C17 UNL     1      -1.126  13.182  16.197  1.00  0.00     0.120 C 
HETATM   35  N3  UNL     1       0.044  12.388  16.451  1.00  0.00    -0.082 NA
HETATM   36  N4  UNL     1      -1.897  12.822  15.259  1.00  0.00    -0.387 N 
ATOM     37  H42 UNL     1      -2.728  13.385  15.079  1.00  0.00     0.157 HD
ATOM     38  H41 UNL     1      -1.705  11.997  14.690  1.00  0.00     0.157 HD
ENDBRANCH  31  34
ENDBRANCH  27  28
ENDBRANCH  26  27
BRANCH  26  39
HETATM   39  C20 UNL     1      -2.387  18.946  21.358  1.00  0.00     0.242 C 
HETATM   40  O7  UNL     1      -2.907  20.024  20.900  1.00  0.00    -0.271 OA
HETATM   41  N5  UNL     1      -2.648  18.527  22.666  1.00  0.00    -0.350 N 
HETATM   42  C21 UNL     1      -2.073  17.361  23.293  1.00  0.00     0.126 C 
HETATM   43  C25 UNL     1      -3.568  19.304  23.489  1.00  0.00     0.126 C 
HETATM   44  C22 UNL     1      -1.576  17.846  24.666  1.00  0.00     0.020 C 
HETATM   45  C23 UNL     1      -2.831  18.007  25.520  1.00  0.00     0.003 C 
HETATM   46  C24 UNL     1      -3.991  18.535  24.721  1.00  0.00     0.020 C 
ENDBRANCH  26  39
ENDBRANCH   3  26
TORSDOF 12
ENDMDL
