MODEL 7
REMARK VINA RESULT: -6.435030281      2.057      4.080
REMARK  12 active torsions:
REMARK  status: ('A' for Active; 'I' for Inactive)
REMARK    1  A    between atoms: N3_4  and  C2_6 
REMARK    2  A    between atoms: C2_6  and  C3_7 
REMARK    3  A    between atoms: C3_7  and  C4_8 
REMARK    4  A    between atoms: C4_8  and  N4_9 
REMARK       I    between atoms: N4_9  and  C5_11 
REMARK    5  A    between atoms: C5_11  and  C6_13 
REMARK    6  A    between atoms: C11_19  and  O2_20 
REMARK    7  A    between atoms: C11_19  and  C12_22 
REMARK    8  A    between atoms: C12_22  and  C13_23 
REMARK    9  A    between atoms: C12_22  and  N6_30 
REMARK   10  A    between atoms: C13_23  and  C14_24 
REMARK   11  A    between atoms: N6_30  and  C20_32 
REMARK   12  A    between atoms: C20_32  and  C21_33 
ROOT
HETATM    1  C6  UNL     1      44.744  24.689  53.849  1.00  0.00     0.178 C 
HETATM    2  C7  UNL     1      45.631  24.572  55.051  1.00  0.00     0.035 C 
HETATM    3  C8  UNL     1      45.749  25.923  55.755  1.00  0.00     0.004 C 
HETATM    4  C9  UNL     1      45.386  26.993  54.765  1.00  0.00     0.020 C 
HETATM    5  C10 UNL     1      43.892  26.876  54.359  1.00  0.00     0.126 C 
HETATM    6  N5  UNL     1      43.576  25.475  54.307  1.00  0.00    -0.347 N 
HETATM    7  C11 UNL     1      42.389  24.871  54.590  1.00  0.00     0.166 C 
ENDROOT
BRANCH   1   8
HETATM    8  C5  UNL     1      44.488  23.441  53.194  1.00  0.00     0.240 C 
HETATM    9  N4  UNL     1      43.954  23.441  51.852  1.00  0.00    -0.359 N 
ATOM     10  H4  UNL     1      43.766  24.330  51.389  1.00  0.00     0.162 HD
HETATM   11  O1  UNL     1      44.706  22.312  53.726  1.00  0.00    -0.271 OA
BRANCH   9  12
HETATM   12  C4  UNL     1      43.681  22.202  51.152  1.00  0.00     0.124 C 
BRANCH  12  13
HETATM   13  C3  UNL     1      44.886  21.850  50.330  1.00  0.00     0.039 C 
BRANCH  13  14
HETATM   14  C2  UNL     1      45.339  20.426  50.535  1.00  0.00     0.123 C 
BRANCH  14  15
HETATM   15  N3  UNL     1      45.865  20.198  51.851  1.00  0.00    -0.367 N 
HETATM   16  C1  UNL     1      45.474  19.158  52.504  1.00  0.00     0.196 C 
HETATM   17  N1  UNL     1      45.951  18.864  53.814  1.00  0.00    -0.067 NA
HETATM   18  N2  UNL     1      44.544  18.236  51.964  1.00  0.00    -0.067 NA
ATOM     19  H3  UNL     1      46.536  20.847  52.262  1.00  0.00     0.161 HD
ENDBRANCH  14  15
ENDBRANCH  13  14
ENDBRANCH  12  13
ENDBRANCH   9  12
ENDBRANCH   1   8
BRANCH   7  20
HETATM   20  O2  UNL     1      42.396  23.543  54.590  1.00  0.00    -0.344 OA
ATOM     21  H2  UNL     1      41.564  23.122  54.409  1.00  0.00     0.219 HD
ENDBRANCH   7  20
BRANCH   7  22
HETATM   22  C12 UNL     1      41.008  25.339  54.908  1.00  0.00     0.080 C 
BRANCH  22  23
HETATM   23  C13 UNL     1      40.234  25.489  53.677  1.00  0.00     0.012 C 
BRANCH  23  24
HETATM   24  C14 UNL     1      40.536  26.296  52.524  1.00  0.00     0.010 C 
HETATM   25  C15 UNL     1      41.085  25.662  51.293  1.00  0.00     0.008 C 
HETATM   26  C16 UNL     1      40.239  25.764  50.067  1.00  0.00     0.001 C 
HETATM   27  C17 UNL     1      40.179  27.232  49.690  1.00  0.00     0.000 C 
HETATM   28  C18 UNL     1      39.933  28.033  50.932  1.00  0.00     0.001 C 
HETATM   29  C19 UNL     1      39.376  27.206  52.073  1.00  0.00     0.008 C 
ENDBRANCH  23  24
ENDBRANCH  22  23
BRANCH  22  30
HETATM   30  N6  UNL     1      40.469  25.045  56.152  1.00  0.00    -0.357 N 
ATOM     31  H6  UNL     1      41.065  24.542  56.810  1.00  0.00     0.165 HD
BRANCH  30  32
HETATM   32  C20 UNL     1      39.184  25.377  56.582  1.00  0.00     0.173 C 
BRANCH  32  33
HETATM   33  C21 UNL     1      38.127  24.381  56.567  1.00  0.00     0.214 C 
HETATM   34  O3  UNL     1      37.702  24.006  55.426  1.00  0.00    -0.643 OA
HETATM   35  O4  UNL     1      37.537  23.803  57.663  1.00  0.00    -0.643 OA
ENDBRANCH  32  33
ENDBRANCH  30  32
ENDBRANCH  22  30
ENDBRANCH   7  22
TORSDOF 12
ENDMDL
