MODEL 6
REMARK VINA RESULT: -6.494586474      1.409      1.845
REMARK  12 active torsions:
REMARK  status: ('A' for Active; 'I' for Inactive)
REMARK    1  A    between atoms: N3_4  and  C2_6 
REMARK    2  A    between atoms: C2_6  and  C3_7 
REMARK    3  A    between atoms: C3_7  and  C4_8 
REMARK    4  A    between atoms: C4_8  and  N4_9 
REMARK       I    between atoms: N4_9  and  C5_11 
REMARK    5  A    between atoms: C5_11  and  C6_13 
REMARK    6  A    between atoms: C11_19  and  O2_20 
REMARK    7  A    between atoms: C11_19  and  C12_22 
REMARK    8  A    between atoms: C12_22  and  C13_23 
REMARK    9  A    between atoms: C12_22  and  N6_30 
REMARK   10  A    between atoms: C13_23  and  C14_24 
REMARK   11  A    between atoms: N6_30  and  C20_32 
REMARK   12  A    between atoms: C20_32  and  C21_33 
ROOT
HETATM    1  C6  UNL     1      43.935  25.209  53.278  1.00  0.00     0.178 C 
HETATM    2  C7  UNL     1      44.233  25.033  54.736  1.00  0.00     0.035 C 
HETATM    3  C8  UNL     1      44.216  26.386  55.446  1.00  0.00     0.004 C 
HETATM    4  C9  UNL     1      44.422  27.454  54.410  1.00  0.00     0.020 C 
HETATM    5  C10 UNL     1      43.223  27.498  53.426  1.00  0.00     0.126 C 
HETATM    6  N5  UNL     1      42.788  26.142  53.228  1.00  0.00    -0.347 N 
HETATM    7  C11 UNL     1      41.525  25.692  52.991  1.00  0.00     0.166 C 
ENDROOT
BRANCH   1   8
HETATM    8  C5  UNL     1      43.820  23.976  52.557  1.00  0.00     0.240 C 
HETATM    9  N4  UNL     1      43.817  23.996  51.114  1.00  0.00    -0.359 N 
ATOM     10  H4  UNL     1      43.898  24.888  50.626  1.00  0.00     0.162 HD
HETATM   11  O1  UNL     1      43.719  22.843  53.117  1.00  0.00    -0.271 OA
BRANCH   9  12
HETATM   12  C4  UNL     1      43.702  22.772  50.346  1.00  0.00     0.124 C 
BRANCH  12  13
HETATM   13  C3  UNL     1      45.082  22.339  49.943  1.00  0.00     0.039 C 
BRANCH  13  14
HETATM   14  C2  UNL     1      45.393  20.921  50.354  1.00  0.00     0.123 C 
BRANCH  14  15
HETATM   15  N3  UNL     1      45.406  20.750  51.780  1.00  0.00    -0.367 N 
HETATM   16  C1  UNL     1      45.497  19.559  52.262  1.00  0.00     0.196 C 
HETATM   17  N1  UNL     1      45.516  19.309  53.664  1.00  0.00    -0.067 NA
HETATM   18  N2  UNL     1      45.584  18.415  51.429  1.00  0.00    -0.067 NA
ATOM     19  H3  UNL     1      45.344  21.558  52.400  1.00  0.00     0.161 HD
ENDBRANCH  14  15
ENDBRANCH  13  14
ENDBRANCH  12  13
ENDBRANCH   9  12
ENDBRANCH   1   8
BRANCH   7  20
HETATM   20  O2  UNL     1      41.370  24.373  52.975  1.00  0.00    -0.344 OA
ATOM     21  H2  UNL     1      40.596  24.039  53.414  1.00  0.00     0.219 HD
ENDBRANCH   7  20
BRANCH   7  22
HETATM   22  C12 UNL     1      40.203  26.330  52.721  1.00  0.00     0.080 C 
BRANCH  22  23
HETATM   23  C13 UNL     1      39.429  26.424  53.958  1.00  0.00     0.012 C 
BRANCH  23  24
HETATM   24  C14 UNL     1      39.073  25.369  54.871  1.00  0.00     0.010 C 
HETATM   25  C15 UNL     1      39.779  25.241  56.175  1.00  0.00     0.008 C 
HETATM   26  C16 UNL     1      38.938  25.407  57.398  1.00  0.00     0.001 C 
HETATM   27  C17 UNL     1      37.964  24.244  57.428  1.00  0.00     0.000 C 
HETATM   28  C18 UNL     1      37.397  24.063  56.054  1.00  0.00     0.001 C 
HETATM   29  C19 UNL     1      37.564  25.286  55.174  1.00  0.00     0.008 C 
ENDBRANCH  23  24
ENDBRANCH  22  23
BRANCH  22  30
HETATM   30  N6  UNL     1      40.084  27.198  51.645  1.00  0.00    -0.357 N 
ATOM     31  H6  UNL     1      40.599  28.076  51.697  1.00  0.00     0.165 HD
BRANCH  30  32
HETATM   32  C20 UNL     1      39.322  26.973  50.498  1.00  0.00     0.173 C 
BRANCH  32  33
HETATM   33  C21 UNL     1      38.261  27.893  50.131  1.00  0.00     0.214 C 
HETATM   34  O3  UNL     1      38.198  28.990  50.776  1.00  0.00    -0.643 OA
HETATM   35  O4  UNL     1      37.315  27.698  49.156  1.00  0.00    -0.643 OA
ENDBRANCH  32  33
ENDBRANCH  30  32
ENDBRANCH  22  30
ENDBRANCH   7  22
TORSDOF 12
ENDMDL
