MODEL 2
REMARK VINA RESULT: -6.740740948      1.805      3.994
REMARK  12 active torsions:
REMARK  status: ('A' for Active; 'I' for Inactive)
REMARK    1  A    between atoms: N3_4  and  C2_6 
REMARK    2  A    between atoms: C2_6  and  C3_7 
REMARK    3  A    between atoms: C3_7  and  C4_8 
REMARK    4  A    between atoms: C4_8  and  N4_9 
REMARK       I    between atoms: N4_9  and  C5_11 
REMARK    5  A    between atoms: C5_11  and  C6_13 
REMARK    6  A    between atoms: C11_19  and  O2_20 
REMARK    7  A    between atoms: C11_19  and  C12_22 
REMARK    8  A    between atoms: C12_22  and  C13_23 
REMARK    9  A    between atoms: C12_22  and  N6_30 
REMARK   10  A    between atoms: C13_23  and  C14_24 
REMARK   11  A    between atoms: N6_30  and  C20_32 
REMARK   12  A    between atoms: C20_32  and  C21_33 
ROOT
HETATM    1  C6  UNL     1      42.507  24.488  49.894  1.00  0.00     0.178 C 
HETATM    2  C7  UNL     1      42.642  25.656  48.964  1.00  0.00     0.035 C 
HETATM    3  C8  UNL     1      41.449  26.597  49.122  1.00  0.00     0.004 C 
HETATM    4  C9  UNL     1      40.324  25.818  49.741  1.00  0.00     0.020 C 
HETATM    5  C10 UNL     1      40.690  25.384  51.185  1.00  0.00     0.126 C 
HETATM    6  N5  UNL     1      42.094  25.072  51.190  1.00  0.00    -0.347 N 
HETATM    7  C11 UNL     1      42.985  25.228  52.207  1.00  0.00     0.166 C 
ENDROOT
BRANCH   1   8
HETATM    8  C5  UNL     1      43.640  23.612  49.892  1.00  0.00     0.240 C 
HETATM    9  N4  UNL     1      43.500  22.269  50.402  1.00  0.00    -0.359 N 
ATOM     10  H4  UNL     1      42.595  21.961  50.758  1.00  0.00     0.162 HD
HETATM   11  O1  UNL     1      44.785  23.946  49.461  1.00  0.00    -0.271 OA
BRANCH   9  12
HETATM   12  C4  UNL     1      44.620  21.350  50.419  1.00  0.00     0.124 C 
BRANCH  12  13
HETATM   13  C3  UNL     1      44.099  19.979  50.736  1.00  0.00     0.039 C 
BRANCH  13  14
HETATM   14  C2  UNL     1      45.199  18.977  50.985  1.00  0.00     0.123 C 
BRANCH  14  15
HETATM   15  N3  UNL     1      45.010  18.240  52.202  1.00  0.00    -0.367 N 
HETATM   16  C1  UNL     1      45.677  18.586  53.248  1.00  0.00     0.196 C 
HETATM   17  N1  UNL     1      45.544  17.904  54.491  1.00  0.00    -0.067 NA
HETATM   18  N2  UNL     1      46.590  19.670  53.233  1.00  0.00    -0.067 NA
ATOM     19  H3  UNL     1      44.359  17.455  52.238  1.00  0.00     0.161 HD
ENDBRANCH  14  15
ENDBRANCH  13  14
ENDBRANCH  12  13
ENDBRANCH   9  12
ENDBRANCH   1   8
BRANCH   7  20
HETATM   20  O2  UNL     1      44.256  24.984  51.911  1.00  0.00    -0.344 OA
ATOM     21  H2  UNL     1      44.525  24.074  51.950  1.00  0.00     0.219 HD
ENDBRANCH   7  20
BRANCH   7  22
HETATM   22  C12 UNL     1      42.897  25.613  53.646  1.00  0.00     0.080 C 
BRANCH  22  23
HETATM   23  C13 UNL     1      41.933  24.759  54.336  1.00  0.00     0.012 C 
BRANCH  23  24
HETATM   24  C14 UNL     1      40.911  25.143  55.276  1.00  0.00     0.010 C 
HETATM   25  C15 UNL     1      39.493  25.244  54.835  1.00  0.00     0.008 C 
HETATM   26  C16 UNL     1      38.530  24.310  55.491  1.00  0.00     0.001 C 
HETATM   27  C17 UNL     1      38.457  24.705  56.954  1.00  0.00     0.000 C 
HETATM   28  C18 UNL     1      39.848  24.942  57.454  1.00  0.00     0.001 C 
HETATM   29  C19 UNL     1      40.912  24.314  56.576  1.00  0.00     0.008 C 
ENDBRANCH  23  24
ENDBRANCH  22  23
BRANCH  22  30
HETATM   30  N6  UNL     1      43.992  26.218  54.247  1.00  0.00    -0.357 N 
ATOM     31  H6  UNL     1      44.358  27.061  53.805  1.00  0.00     0.165 HD
BRANCH  30  32
HETATM   32  C20 UNL     1      44.635  25.773  55.402  1.00  0.00     0.173 C 
BRANCH  32  33
HETATM   33  C21 UNL     1      45.616  24.705  55.330  1.00  0.00     0.214 C 
HETATM   34  O3  UNL     1      46.506  24.675  56.241  1.00  0.00    -0.643 OA
HETATM   35  O4  UNL     1      45.680  23.721  54.376  1.00  0.00    -0.643 OA
ENDBRANCH  32  33
ENDBRANCH  30  32
ENDBRANCH  22  30
ENDBRANCH   7  22
TORSDOF 12
ENDMDL
