MODEL 3
REMARK VINA RESULT: -6.695074710      2.915      4.301
REMARK  12 active torsions:
REMARK  status: ('A' for Active; 'I' for Inactive)
REMARK    1  A    between atoms: N3_4  and  C2_6 
REMARK    2  A    between atoms: C2_6  and  C3_7 
REMARK    3  A    between atoms: C3_7  and  C4_8 
REMARK    4  A    between atoms: C4_8  and  N4_9 
REMARK       I    between atoms: N4_9  and  C5_11 
REMARK    5  A    between atoms: C5_11  and  C6_13 
REMARK    6  A    between atoms: C11_19  and  O2_20 
REMARK    7  A    between atoms: C11_19  and  C12_22 
REMARK    8  A    between atoms: C12_22  and  C13_23 
REMARK    9  A    between atoms: C12_22  and  N6_30 
REMARK   10  A    between atoms: C13_23  and  C14_24 
REMARK   11  A    between atoms: N6_30  and  C20_32 
REMARK   12  A    between atoms: C20_32  and  C21_33 
ROOT
HETATM    1  C6  UNL     1      44.092  24.096  51.786  1.00  0.00     0.178 C 
HETATM    2  C7  UNL     1      43.455  23.288  52.875  1.00  0.00     0.035 C 
HETATM    3  C8  UNL     1      42.687  24.200  53.829  1.00  0.00     0.004 C 
HETATM    4  C9  UNL     1      43.231  25.591  53.679  1.00  0.00     0.020 C 
HETATM    5  C10 UNL     1      42.930  26.144  52.259  1.00  0.00     0.126 C 
HETATM    6  N5  UNL     1      43.043  25.042  51.343  1.00  0.00    -0.347 N 
HETATM    7  C11 UNL     1      42.348  24.833  50.192  1.00  0.00     0.166 C 
ENDROOT
BRANCH   1   8
HETATM    8  C5  UNL     1      44.740  23.307  50.781  1.00  0.00     0.240 C 
HETATM    9  N4  UNL     1      44.723  21.867  50.889  1.00  0.00    -0.359 N 
ATOM     10  H4  UNL     1      44.249  21.431  51.680  1.00  0.00     0.162 HD
HETATM   11  O1  UNL     1      45.340  23.801  49.780  1.00  0.00    -0.271 OA
BRANCH   9  12
HETATM   12  C4  UNL     1      45.365  21.031  49.896  1.00  0.00     0.124 C 
BRANCH  12  13
HETATM   13  C3  UNL     1      44.963  19.607  50.149  1.00  0.00     0.039 C 
BRANCH  13  14
HETATM   14  C2  UNL     1      44.136  19.446  51.400  1.00  0.00     0.123 C 
BRANCH  14  15
HETATM   15  N3  UNL     1      44.691  18.483  52.309  1.00  0.00    -0.367 N 
HETATM   16  C1  UNL     1      45.351  18.902  53.333  1.00  0.00     0.196 C 
HETATM   17  N1  UNL     1      45.930  18.007  54.277  1.00  0.00    -0.067 NA
HETATM   18  N2  UNL     1      45.546  20.282  53.588  1.00  0.00    -0.067 NA
ATOM     19  H3  UNL     1      44.564  17.483  52.146  1.00  0.00     0.161 HD
ENDBRANCH  14  15
ENDBRANCH  13  14
ENDBRANCH  12  13
ENDBRANCH   9  12
ENDBRANCH   1   8
BRANCH   7  20
HETATM   20  O2  UNL     1      42.551  23.666  49.592  1.00  0.00    -0.344 OA
ATOM     21  H2  UNL     1      43.452  23.464  49.368  1.00  0.00     0.219 HD
ENDBRANCH   7  20
BRANCH   7  22
HETATM   22  C12 UNL     1      41.374  25.621  49.381  1.00  0.00     0.080 C 
BRANCH  22  23
HETATM   23  C13 UNL     1      40.094  25.709  50.081  1.00  0.00     0.012 C 
BRANCH  23  24
HETATM   24  C14 UNL     1      39.348  26.888  50.435  1.00  0.00     0.010 C 
HETATM   25  C15 UNL     1      40.037  28.041  51.078  1.00  0.00     0.008 C 
HETATM   26  C16 UNL     1      40.035  29.322  50.311  1.00  0.00     0.001 C 
HETATM   27  C17 UNL     1      38.594  29.791  50.235  1.00  0.00     0.000 C 
HETATM   28  C18 UNL     1      37.729  28.618  49.889  1.00  0.00     0.001 C 
HETATM   29  C19 UNL     1      38.503  27.466  49.282  1.00  0.00     0.008 C 
ENDBRANCH  23  24
ENDBRANCH  22  23
BRANCH  22  30
HETATM   30  N6  UNL     1      41.855  26.569  48.489  1.00  0.00    -0.357 N 
ATOM     31  H6  UNL     1      41.232  27.339  48.248  1.00  0.00     0.165 HD
BRANCH  30  32
HETATM   32  C20 UNL     1      43.117  26.560  47.894  1.00  0.00     0.173 C 
BRANCH  32  33
HETATM   33  C21 UNL     1      43.401  25.658  46.791  1.00  0.00     0.214 C 
HETATM   34  O3  UNL     1      43.347  26.148  45.616  1.00  0.00    -0.643 OA
HETATM   35  O4  UNL     1      43.721  24.327  46.888  1.00  0.00    -0.643 OA
ENDBRANCH  32  33
ENDBRANCH  30  32
ENDBRANCH  22  30
ENDBRANCH   7  22
TORSDOF 12
ENDMDL
