MODEL 14
REMARK VINA RESULT: -6.283843272      1.918      3.563
REMARK  12 active torsions:
REMARK  status: ('A' for Active; 'I' for Inactive)
REMARK    1  A    between atoms: N3_4  and  C2_6 
REMARK    2  A    between atoms: C2_6  and  C3_7 
REMARK    3  A    between atoms: C3_7  and  C4_8 
REMARK    4  A    between atoms: C4_8  and  N4_9 
REMARK       I    between atoms: N4_9  and  C5_11 
REMARK    5  A    between atoms: C5_11  and  C6_13 
REMARK    6  A    between atoms: C11_19  and  O2_20 
REMARK    7  A    between atoms: C11_19  and  C12_22 
REMARK    8  A    between atoms: C12_22  and  C13_23 
REMARK    9  A    between atoms: C12_22  and  N6_30 
REMARK   10  A    between atoms: C13_23  and  C14_24 
REMARK   11  A    between atoms: N6_30  and  C20_32 
REMARK   12  A    between atoms: C20_32  and  C21_33 
ROOT
HETATM    1  C6  UNL     1      42.564  24.747  50.324  1.00  0.00     0.178 C 
HETATM    2  C7  UNL     1      43.067  25.895  49.502  1.00  0.00     0.035 C 
HETATM    3  C8  UNL     1      41.945  26.902  49.259  1.00  0.00     0.004 C 
HETATM    4  C9  UNL     1      40.636  26.194  49.459  1.00  0.00     0.020 C 
HETATM    5  C10 UNL     1      40.474  25.757  50.940  1.00  0.00     0.126 C 
HETATM    6  N5  UNL     1      41.775  25.368  51.411  1.00  0.00    -0.347 N 
HETATM    7  C11 UNL     1      42.282  25.486  52.669  1.00  0.00     0.166 C 
ENDROOT
BRANCH   1   8
HETATM    8  C5  UNL     1      43.582  23.810  50.695  1.00  0.00     0.240 C 
HETATM    9  N4  UNL     1      43.203  22.538  51.261  1.00  0.00    -0.359 N 
ATOM     10  H4  UNL     1      42.214  22.323  51.390  1.00  0.00     0.162 HD
HETATM   11  O1  UNL     1      44.823  24.029  50.553  1.00  0.00    -0.271 OA
BRANCH   9  12
HETATM   12  C4  UNL     1      44.200  21.560  51.650  1.00  0.00     0.124 C 
BRANCH  12  13
HETATM   13  C3  UNL     1      44.119  20.402  50.699  1.00  0.00     0.039 C 
BRANCH  13  14
HETATM   14  C2  UNL     1      45.250  19.421  50.875  1.00  0.00     0.123 C 
BRANCH  14  15
HETATM   15  N3  UNL     1      44.981  18.443  51.891  1.00  0.00    -0.367 N 
HETATM   16  C1  UNL     1      45.649  18.489  52.991  1.00  0.00     0.196 C 
HETATM   17  N1  UNL     1      45.439  17.553  54.044  1.00  0.00    -0.067 NA
HETATM   18  N2  UNL     1      46.641  19.473  53.228  1.00  0.00    -0.067 NA
ATOM     19  H3  UNL     1      44.272  17.723  51.744  1.00  0.00     0.161 HD
ENDBRANCH  14  15
ENDBRANCH  13  14
ENDBRANCH  12  13
ENDBRANCH   9  12
ENDBRANCH   1   8
BRANCH   7  20
HETATM   20  O2  UNL     1      43.563  25.169  52.813  1.00  0.00    -0.344 OA
ATOM     21  H2  UNL     1      44.166  25.586  52.209  1.00  0.00     0.219 HD
ENDBRANCH   7  20
BRANCH   7  22
HETATM   22  C12 UNL     1      41.740  25.893  53.999  1.00  0.00     0.080 C 
BRANCH  22  23
HETATM   23  C13 UNL     1      41.546  24.715  54.842  1.00  0.00     0.012 C 
BRANCH  23  24
HETATM   24  C14 UNL     1      40.416  24.389  55.674  1.00  0.00     0.010 C 
HETATM   25  C15 UNL     1      40.378  24.843  57.091  1.00  0.00     0.008 C 
HETATM   26  C16 UNL     1      39.274  25.782  57.453  1.00  0.00     0.001 C 
HETATM   27  C17 UNL     1      37.975  25.012  57.312  1.00  0.00     0.000 C 
HETATM   28  C18 UNL     1      38.015  24.240  56.029  1.00  0.00     0.001 C 
HETATM   29  C19 UNL     1      39.054  24.757  55.055  1.00  0.00     0.008 C 
ENDBRANCH  23  24
ENDBRANCH  22  23
BRANCH  22  30
HETATM   30  N6  UNL     1      42.007  27.170  54.471  1.00  0.00    -0.357 N 
ATOM     31  H6  UNL     1      41.597  27.950  53.959  1.00  0.00     0.165 HD
BRANCH  30  32
HETATM   32  C20 UNL     1      42.789  27.479  55.584  1.00  0.00     0.173 C 
BRANCH  32  33
HETATM   33  C21 UNL     1      44.232  27.322  55.533  1.00  0.00     0.214 C 
HETATM   34  O3  UNL     1      44.933  28.377  55.665  1.00  0.00    -0.643 OA
HETATM   35  O4  UNL     1      44.918  26.146  55.355  1.00  0.00    -0.643 OA
ENDBRANCH  32  33
ENDBRANCH  30  32
ENDBRANCH  22  30
ENDBRANCH   7  22
TORSDOF 12
ENDMDL
