MODEL 10
REMARK VINA RESULT: -7.397371278      2.149      3.108
REMARK  12 active torsions:
REMARK  status: ('A' for Active; 'I' for Inactive)
REMARK    1  A    between atoms: N3_4  and  C2_6 
REMARK    2  A    between atoms: C2_6  and  C3_7 
REMARK    3  A    between atoms: C3_7  and  C4_8 
REMARK    4  A    between atoms: C4_8  and  N4_9 
REMARK       I    between atoms: N4_9  and  C5_11 
REMARK    5  A    between atoms: C5_11  and  C6_13 
REMARK    6  A    between atoms: C11_19  and  O2_20 
REMARK    7  A    between atoms: C11_19  and  C12_22 
REMARK    8  A    between atoms: C12_22  and  C13_23 
REMARK    9  A    between atoms: C12_22  and  N6_30 
REMARK   10  A    between atoms: C13_23  and  C14_24 
REMARK   11  A    between atoms: N6_30  and  C20_32 
REMARK   12  A    between atoms: C20_32  and  C21_33 
ROOT
HETATM    1  C6  UNL     1      15.907 -16.001  21.285  1.00  0.00     0.178 C 
HETATM    2  C7  UNL     1      15.626 -16.793  22.526  1.00  0.00     0.035 C 
HETATM    3  C8  UNL     1      16.897 -17.491  23.007  1.00  0.00     0.004 C 
HETATM    4  C9  UNL     1      17.842 -17.583  21.844  1.00  0.00     0.020 C 
HETATM    5  C10 UNL     1      18.300 -16.167  21.400  1.00  0.00     0.126 C 
HETATM    6  N5  UNL     1      17.174 -15.288  21.562  1.00  0.00    -0.347 N 
HETATM    7  C11 UNL     1      17.181 -13.967  21.889  1.00  0.00     0.166 C 
ENDROOT
BRANCH   1   8
HETATM    8  C5  UNL     1      14.794 -15.222  20.830  1.00  0.00     0.240 C 
HETATM    9  N4  UNL     1      13.691 -14.970  21.726  1.00  0.00    -0.359 N 
ATOM     10  H4  UNL     1      13.718 -15.350  22.673  1.00  0.00     0.162 HD
HETATM   11  O1  UNL     1      14.713 -14.728  19.666  1.00  0.00    -0.271 OA
BRANCH   9  12
HETATM   12  C4  UNL     1      12.545 -14.188  21.307  1.00  0.00     0.124 C 
BRANCH  12  13
HETATM   13  C3  UNL     1      12.508 -12.932  22.128  1.00  0.00     0.039 C 
BRANCH  13  14
HETATM   14  C2  UNL     1      12.576 -11.681  21.288  1.00  0.00     0.123 C 
BRANCH  14  15
HETATM   15  N3  UNL     1      13.247 -11.893  20.036  1.00  0.00    -0.367 N 
HETATM   16  C1  UNL     1      14.423 -11.394  19.869  1.00  0.00     0.196 C 
HETATM   17  N1  UNL     1      15.150 -11.561  18.656  1.00  0.00    -0.067 NA
HETATM   18  N2  UNL     1      15.072 -10.643  20.880  1.00  0.00    -0.067 NA
ATOM     19  H3  UNL     1      12.801 -12.430  19.292  1.00  0.00     0.161 HD
ENDBRANCH  14  15
ENDBRANCH  13  14
ENDBRANCH  12  13
ENDBRANCH   9  12
ENDBRANCH   1   8
BRANCH   7  20
HETATM   20  O2  UNL     1      15.994 -13.414  22.104  1.00  0.00    -0.344 OA
ATOM     21  H2  UNL     1      15.734 -13.324  23.013  1.00  0.00     0.219 HD
ENDBRANCH   7  20
BRANCH   7  22
HETATM   22  C12 UNL     1      18.233 -12.923  22.069  1.00  0.00     0.080 C 
BRANCH  22  23
HETATM   23  C13 UNL     1      19.495 -13.546  22.463  1.00  0.00     0.012 C 
BRANCH  23  24
HETATM   24  C14 UNL     1      19.979 -13.821  23.791  1.00  0.00     0.010 C 
HETATM   25  C15 UNL     1      21.142 -13.065  24.333  1.00  0.00     0.008 C 
HETATM   26  C16 UNL     1      20.878 -12.224  25.538  1.00  0.00     0.001 C 
HETATM   27  C17 UNL     1      20.534 -13.171  26.673  1.00  0.00     0.000 C 
HETATM   28  C18 UNL     1      19.578 -14.203  26.159  1.00  0.00     0.001 C 
HETATM   29  C19 UNL     1      18.885 -13.787  24.877  1.00  0.00     0.008 C 
ENDBRANCH  23  24
ENDBRANCH  22  23
BRANCH  22  30
HETATM   30  N6  UNL     1      18.122 -11.732  21.368  1.00  0.00    -0.357 N 
ATOM     31  H6  UNL     1      17.715 -10.938  21.861  1.00  0.00     0.165 HD
BRANCH  30  32
HETATM   32  C20 UNL     1      18.519 -11.525  20.046  1.00  0.00     0.173 C 
BRANCH  32  33
HETATM   33  C21 UNL     1      19.825 -11.973  19.595  1.00  0.00     0.214 C 
HETATM   34  O3  UNL     1      19.865 -13.058  18.929  1.00  0.00    -0.643 OA
HETATM   35  O4  UNL     1      21.024 -11.342  19.815  1.00  0.00    -0.643 OA
ENDBRANCH  32  33
ENDBRANCH  30  32
ENDBRANCH  22  30
ENDBRANCH   7  22
TORSDOF 12
ENDMDL
