MODEL 2
REMARK VINA RESULT: -7.815394576      1.760      3.809
REMARK  12 active torsions:
REMARK  status: ('A' for Active; 'I' for Inactive)
REMARK    1  A    between atoms: N3_4  and  C2_6 
REMARK    2  A    between atoms: C2_6  and  C3_7 
REMARK    3  A    between atoms: C3_7  and  C4_8 
REMARK    4  A    between atoms: C4_8  and  N4_9 
REMARK       I    between atoms: N4_9  and  C5_11 
REMARK    5  A    between atoms: C5_11  and  C6_13 
REMARK    6  A    between atoms: C11_19  and  O2_20 
REMARK    7  A    between atoms: C11_19  and  C12_22 
REMARK    8  A    between atoms: C12_22  and  C13_23 
REMARK    9  A    between atoms: C12_22  and  N6_30 
REMARK   10  A    between atoms: C13_23  and  C14_24 
REMARK   11  A    between atoms: N6_30  and  C20_32 
REMARK   12  A    between atoms: C20_32  and  C21_33 
ROOT
HETATM    1  C6  UNL     1      17.899 -11.599  19.594  1.00  0.00     0.178 C 
HETATM    2  C7  UNL     1      18.520 -11.862  18.256  1.00  0.00     0.035 C 
HETATM    3  C8  UNL     1      19.967 -12.320  18.426  1.00  0.00     0.004 C 
HETATM    4  C9  UNL     1      20.439 -11.870  19.779  1.00  0.00     0.020 C 
HETATM    5  C10 UNL     1      19.650 -12.597  20.901  1.00  0.00     0.126 C 
HETATM    6  N5  UNL     1      18.298 -12.749  20.437  1.00  0.00    -0.347 N 
HETATM    7  C11 UNL     1      17.425 -13.757  20.710  1.00  0.00     0.166 C 
ENDROOT
BRANCH   1   8
HETATM    8  C5  UNL     1      16.505 -11.274  19.533  1.00  0.00     0.240 C 
HETATM    9  N4  UNL     1      15.855 -10.716  20.694  1.00  0.00    -0.359 N 
ATOM     10  H4  UNL     1      16.397 -10.560  21.544  1.00  0.00     0.162 HD
HETATM   11  O1  UNL     1      15.789 -11.448  18.501  1.00  0.00    -0.271 OA
BRANCH   9  12
HETATM   12  C4  UNL     1      14.447 -10.372  20.676  1.00  0.00     0.124 C 
BRANCH  12  13
HETATM   13  C3  UNL     1      13.714 -11.346  21.552  1.00  0.00     0.039 C 
BRANCH  13  14
HETATM   14  C2  UNL     1      12.305 -10.907  21.864  1.00  0.00     0.123 C 
BRANCH  14  15
HETATM   15  N3  UNL     1      12.254  -9.600  22.457  1.00  0.00    -0.367 N 
HETATM   16  C1  UNL     1      11.735  -9.469  23.629  1.00  0.00     0.196 C 
HETATM   17  N1  UNL     1      11.648  -8.207  24.282  1.00  0.00    -0.067 NA
HETATM   18  N2  UNL     1      11.215 -10.574  24.349  1.00  0.00    -0.067 NA
ATOM     19  H3  UNL     1      12.621  -8.789  21.959  1.00  0.00     0.161 HD
ENDBRANCH  14  15
ENDBRANCH  13  14
ENDBRANCH  12  13
ENDBRANCH   9  12
ENDBRANCH   1   8
BRANCH   7  20
HETATM   20  O2  UNL     1      16.274 -13.727  20.050  1.00  0.00    -0.344 OA
ATOM     21  H2  UNL     1      15.630 -14.378  20.304  1.00  0.00     0.219 HD
ENDBRANCH   7  20
BRANCH   7  22
HETATM   22  C12 UNL     1      17.424 -14.944  21.615  1.00  0.00     0.080 C 
BRANCH  22  23
HETATM   23  C13 UNL     1      17.399 -14.511  23.011  1.00  0.00     0.012 C 
BRANCH  23  24
HETATM   24  C14 UNL     1      18.404 -14.704  24.024  1.00  0.00     0.010 C 
HETATM   25  C15 UNL     1      19.719 -14.015  23.909  1.00  0.00     0.008 C 
HETATM   26  C16 UNL     1      20.049 -13.041  24.992  1.00  0.00     0.001 C 
HETATM   27  C17 UNL     1      20.197 -13.837  26.274  1.00  0.00     0.000 C 
HETATM   28  C18 UNL     1      19.067 -14.816  26.361  1.00  0.00     0.001 C 
HETATM   29  C19 UNL     1      17.901 -14.461  25.461  1.00  0.00     0.008 C 
ENDBRANCH  23  24
ENDBRANCH  22  23
BRANCH  22  30
HETATM   30  N6  UNL     1      16.904 -16.143  21.148  1.00  0.00    -0.357 N 
ATOM     31  H6  UNL     1      17.321 -16.534  20.304  1.00  0.00     0.165 HD
BRANCH  30  32
HETATM   32  C20 UNL     1      15.859 -16.860  21.732  1.00  0.00     0.173 C 
BRANCH  32  33
HETATM   33  C21 UNL     1      14.493 -16.378  21.631  1.00  0.00     0.214 C 
HETATM   34  O3  UNL     1      13.647 -16.865  22.449  1.00  0.00    -0.643 OA
HETATM   35  O4  UNL     1      14.021 -15.449  20.738  1.00  0.00    -0.643 OA
ENDBRANCH  32  33
ENDBRANCH  30  32
ENDBRANCH  22  30
ENDBRANCH   7  22
TORSDOF 12
ENDMDL
