MODEL 11
REMARK VINA RESULT: -7.382982140      2.499      7.250
REMARK  12 active torsions:
REMARK  status: ('A' for Active; 'I' for Inactive)
REMARK    1  A    between atoms: N3_4  and  C2_6 
REMARK    2  A    between atoms: C2_6  and  C3_7 
REMARK    3  A    between atoms: C3_7  and  C4_8 
REMARK    4  A    between atoms: C4_8  and  N4_9 
REMARK       I    between atoms: N4_9  and  C5_11 
REMARK    5  A    between atoms: C5_11  and  C6_13 
REMARK    6  A    between atoms: C11_19  and  O2_20 
REMARK    7  A    between atoms: C11_19  and  C12_22 
REMARK    8  A    between atoms: C12_22  and  C13_23 
REMARK    9  A    between atoms: C12_22  and  N6_30 
REMARK   10  A    between atoms: C13_23  and  C14_24 
REMARK   11  A    between atoms: N6_30  and  C20_32 
REMARK   12  A    between atoms: C20_32  and  C21_33 
ROOT
HETATM    1  C6  UNL     1      17.485 -13.462  20.926  1.00  0.00     0.178 C 
HETATM    2  C7  UNL     1      18.174 -12.157  21.191  1.00  0.00     0.035 C 
HETATM    3  C8  UNL     1      18.137 -11.277  19.944  1.00  0.00     0.004 C 
HETATM    4  C9  UNL     1      17.903 -12.166  18.756  1.00  0.00     0.020 C 
HETATM    5  C10 UNL     1      16.497 -12.819  18.833  1.00  0.00     0.126 C 
HETATM    6  N5  UNL     1      16.236 -13.101  20.218  1.00  0.00    -0.347 N 
HETATM    7  C11 UNL     1      15.039 -13.093  20.865  1.00  0.00     0.166 C 
ENDROOT
BRANCH   1   8
HETATM    8  C5  UNL     1      17.375 -14.305  22.079  1.00  0.00     0.240 C 
HETATM    9  N4  UNL     1      17.923 -13.860  23.338  1.00  0.00    -0.359 N 
ATOM     10  H4  UNL     1      18.382 -12.950  23.390  1.00  0.00     0.162 HD
HETATM   11  O1  UNL     1      16.813 -15.441  22.066  1.00  0.00    -0.271 OA
BRANCH   9  12
HETATM   12  C4  UNL     1      17.833 -14.680  24.529  1.00  0.00     0.124 C 
BRANCH  12  13
HETATM   13  C3  UNL     1      19.018 -14.376  25.399  1.00  0.00     0.039 C 
BRANCH  13  14
HETATM   14  C2  UNL     1      19.873 -13.259  24.854  1.00  0.00     0.123 C 
BRANCH  14  15
HETATM   15  N3  UNL     1      21.265 -13.606  24.800  1.00  0.00    -0.367 N 
HETATM   16  C1  UNL     1      21.807 -13.821  23.651  1.00  0.00     0.196 C 
HETATM   17  N1  UNL     1      23.181 -14.169  23.516  1.00  0.00    -0.067 NA
HETATM   18  N2  UNL     1      21.072 -13.727  22.443  1.00  0.00    -0.067 NA
ATOM     19  H3  UNL     1      21.816 -13.680  25.656  1.00  0.00     0.161 HD
ENDBRANCH  14  15
ENDBRANCH  13  14
ENDBRANCH  12  13
ENDBRANCH   9  12
ENDBRANCH   1   8
BRANCH   7  20
HETATM   20  O2  UNL     1      15.086 -13.263  22.181  1.00  0.00    -0.344 OA
ATOM     21  H2  UNL     1      15.460 -12.546  22.680  1.00  0.00     0.219 HD
ENDBRANCH   7  20
BRANCH   7  22
HETATM   22  C12 UNL     1      13.611 -12.945  20.456  1.00  0.00     0.080 C 
BRANCH  22  23
HETATM   23  C13 UNL     1      13.254 -11.530  20.382  1.00  0.00     0.012 C 
BRANCH  23  24
HETATM   24  C14 UNL     1      12.405 -10.775  21.267  1.00  0.00     0.010 C 
HETATM   25  C15 UNL     1      11.358 -11.469  22.066  1.00  0.00     0.008 C 
HETATM   26  C16 UNL     1      11.507 -11.397  23.551  1.00  0.00     0.001 C 
HETATM   27  C17 UNL     1      11.323  -9.944  23.945  1.00  0.00     0.000 C 
HETATM   28  C18 UNL     1      12.104  -9.090  22.994  1.00  0.00     0.001 C 
HETATM   29  C19 UNL     1      13.171  -9.859  22.242  1.00  0.00     0.008 C 
ENDBRANCH  23  24
ENDBRANCH  22  23
BRANCH  22  30
HETATM   30  N6  UNL     1      13.021 -13.951  19.703  1.00  0.00    -0.357 N 
ATOM     31  H6  UNL     1      12.404 -13.663  18.945  1.00  0.00     0.165 HD
BRANCH  30  32
HETATM   32  C20 UNL     1      13.199 -15.321  19.894  1.00  0.00     0.173 C 
BRANCH  32  33
HETATM   33  C21 UNL     1      12.549 -15.997  21.004  1.00  0.00     0.214 C 
HETATM   34  O3  UNL     1      13.086 -15.871  22.151  1.00  0.00    -0.643 OA
HETATM   35  O4  UNL     1      11.411 -16.762  20.938  1.00  0.00    -0.643 OA
ENDBRANCH  32  33
ENDBRANCH  30  32
ENDBRANCH  22  30
ENDBRANCH   7  22
TORSDOF 12
ENDMDL
