MODEL 14
REMARK VINA RESULT: -7.328331087      2.508      7.354
REMARK  12 active torsions:
REMARK  status: ('A' for Active; 'I' for Inactive)
REMARK    1  A    between atoms: N3_4  and  C2_6 
REMARK    2  A    between atoms: C2_6  and  C3_7 
REMARK    3  A    between atoms: C3_7  and  C4_8 
REMARK    4  A    between atoms: C4_8  and  N4_9 
REMARK       I    between atoms: N4_9  and  C5_11 
REMARK    5  A    between atoms: C5_11  and  C6_13 
REMARK    6  A    between atoms: C11_19  and  O2_20 
REMARK    7  A    between atoms: C11_19  and  C12_22 
REMARK    8  A    between atoms: C12_22  and  C13_23 
REMARK    9  A    between atoms: C12_22  and  N6_30 
REMARK   10  A    between atoms: C13_23  and  C14_24 
REMARK   11  A    between atoms: N6_30  and  C20_32 
REMARK   12  A    between atoms: C20_32  and  C21_33 
ROOT
HETATM    1  C6  UNL     1      18.964 -13.379  20.613  1.00  0.00     0.178 C 
HETATM    2  C7  UNL     1      20.101 -12.473  20.980  1.00  0.00     0.035 C 
HETATM    3  C8  UNL     1      20.519 -11.635  19.773  1.00  0.00     0.004 C 
HETATM    4  C9  UNL     1      20.035 -12.333  18.534  1.00  0.00     0.020 C 
HETATM    5  C10 UNL     1      18.484 -12.358  18.492  1.00  0.00     0.126 C 
HETATM    6  N5  UNL     1      18.027 -12.530  19.845  1.00  0.00    -0.347 N 
HETATM    7  C11 UNL     1      16.890 -12.044  20.414  1.00  0.00     0.166 C 
ENDROOT
BRANCH   1   8
HETATM    8  C5  UNL     1      18.434 -14.121  21.717  1.00  0.00     0.240 C 
HETATM    9  N4  UNL     1      18.787 -13.739  23.064  1.00  0.00    -0.359 N 
ATOM     10  H4  UNL     1      19.410 -12.944  23.211  1.00  0.00     0.162 HD
HETATM   11  O1  UNL     1      17.657 -15.114  21.587  1.00  0.00    -0.271 OA
BRANCH   9  12
HETATM   12  C4  UNL     1      18.274 -14.461  24.210  1.00  0.00     0.124 C 
BRANCH  12  13
HETATM   13  C3  UNL     1      19.197 -14.221  25.369  1.00  0.00     0.039 C 
BRANCH  13  14
HETATM   14  C2  UNL     1      20.382 -15.155  25.375  1.00  0.00     0.123 C 
BRANCH  14  15
HETATM   15  N3  UNL     1      21.620 -14.477  25.113  1.00  0.00    -0.367 N 
HETATM   16  C1  UNL     1      22.163 -14.601  23.951  1.00  0.00     0.196 C 
HETATM   17  N1  UNL     1      23.390 -13.960  23.617  1.00  0.00    -0.067 NA
HETATM   18  N2  UNL     1      21.576 -15.385  22.927  1.00  0.00    -0.067 NA
ATOM     19  H3  UNL     1      22.063 -13.907  25.834  1.00  0.00     0.161 HD
ENDBRANCH  14  15
ENDBRANCH  13  14
ENDBRANCH  12  13
ENDBRANCH   9  12
ENDBRANCH   1   8
BRANCH   7  20
HETATM   20  O2  UNL     1      16.764 -12.239  21.722  1.00  0.00    -0.344 OA
ATOM     21  H2  UNL     1      16.828 -11.463  22.266  1.00  0.00     0.219 HD
ENDBRANCH   7  20
BRANCH   7  22
HETATM   22  C12 UNL     1      15.680 -11.321  19.922  1.00  0.00     0.080 C 
BRANCH  22  23
HETATM   23  C13 UNL     1      14.765 -12.258  19.274  1.00  0.00     0.012 C 
BRANCH  23  24
HETATM   24  C14 UNL     1      14.531 -13.643  19.591  1.00  0.00     0.010 C 
HETATM   25  C15 UNL     1      13.144 -14.132  19.820  1.00  0.00     0.008 C 
HETATM   26  C16 UNL     1      12.641 -15.162  18.864  1.00  0.00     0.001 C 
HETATM   27  C17 UNL     1      13.477 -16.410  19.077  1.00  0.00     0.000 C 
HETATM   28  C18 UNL     1      14.916 -16.008  19.178  1.00  0.00     0.001 C 
HETATM   29  C19 UNL     1      15.191 -14.631  18.609  1.00  0.00     0.008 C 
ENDBRANCH  23  24
ENDBRANCH  22  23
BRANCH  22  30
HETATM   30  N6  UNL     1      15.296 -10.148  20.556  1.00  0.00    -0.357 N 
ATOM     31  H6  UNL     1      16.038  -9.518  20.858  1.00  0.00     0.165 HD
BRANCH  30  32
HETATM   32  C20 UNL     1      13.982  -9.757  20.816  1.00  0.00     0.173 C 
BRANCH  32  33
HETATM   33  C21 UNL     1      13.277 -10.279  21.974  1.00  0.00     0.214 C 
HETATM   34  O3  UNL     1      12.720  -9.430  22.742  1.00  0.00    -0.643 OA
HETATM   35  O4  UNL     1      13.153 -11.600  22.324  1.00  0.00    -0.643 OA
ENDBRANCH  32  33
ENDBRANCH  30  32
ENDBRANCH  22  30
ENDBRANCH   7  22
TORSDOF 12
ENDMDL
