MODEL 12
REMARK VINA RESULT: -7.373148457      1.997      4.054
REMARK  12 active torsions:
REMARK  status: ('A' for Active; 'I' for Inactive)
REMARK    1  A    between atoms: N3_4  and  C2_6 
REMARK    2  A    between atoms: C2_6  and  C3_7 
REMARK    3  A    between atoms: C3_7  and  C4_8 
REMARK    4  A    between atoms: C4_8  and  N4_9 
REMARK       I    between atoms: N4_9  and  C5_11 
REMARK    5  A    between atoms: C5_11  and  C6_13 
REMARK    6  A    between atoms: C11_19  and  O2_20 
REMARK    7  A    between atoms: C11_19  and  C12_22 
REMARK    8  A    between atoms: C12_22  and  C13_23 
REMARK    9  A    between atoms: C12_22  and  N6_30 
REMARK   10  A    between atoms: C13_23  and  C14_24 
REMARK   11  A    between atoms: N6_30  and  C20_32 
REMARK   12  A    between atoms: C20_32  and  C21_33 
ROOT
HETATM    1  C6  UNL     1      17.917 -11.690  19.957  1.00  0.00     0.178 C 
HETATM    2  C7  UNL     1      18.374 -12.124  18.597  1.00  0.00     0.035 C 
HETATM    3  C8  UNL     1      19.867 -12.446  18.619  1.00  0.00     0.004 C 
HETATM    4  C9  UNL     1      20.473 -11.749  19.804  1.00  0.00     0.020 C 
HETATM    5  C10 UNL     1      19.912 -12.336  21.127  1.00  0.00     0.126 C 
HETATM    6  N5  UNL     1      18.530 -12.656  20.896  1.00  0.00    -0.347 N 
HETATM    7  C11 UNL     1      17.799 -13.664  21.445  1.00  0.00     0.166 C 
ENDROOT
BRANCH   1   8
HETATM    8  C5  UNL     1      16.503 -11.477  20.053  1.00  0.00     0.240 C 
HETATM    9  N4  UNL     1      15.661 -11.785  18.922  1.00  0.00    -0.359 N 
ATOM     10  H4  UNL     1      16.083 -12.151  18.069  1.00  0.00     0.162 HD
HETATM   11  O1  UNL     1      15.931 -11.027  21.091  1.00  0.00    -0.271 OA
BRANCH   9  12
HETATM   12  C4  UNL     1      14.227 -11.585  18.976  1.00  0.00     0.124 C 
BRANCH  12  13
HETATM   13  C3  UNL     1      13.597 -12.837  19.516  1.00  0.00     0.039 C 
BRANCH  13  14
HETATM   14  C2  UNL     1      12.751 -12.586  20.738  1.00  0.00     0.123 C 
BRANCH  14  15
HETATM   15  N3  UNL     1      12.867 -11.239  21.223  1.00  0.00    -0.367 N 
HETATM   16  C1  UNL     1      12.189 -10.893  22.263  1.00  0.00     0.196 C 
HETATM   17  N1  UNL     1      12.252  -9.576  22.802  1.00  0.00    -0.067 NA
HETATM   18  N2  UNL     1      11.335 -11.798  22.940  1.00  0.00    -0.067 NA
ATOM     19  H3  UNL     1      13.475 -10.569  20.753  1.00  0.00     0.161 HD
ENDBRANCH  14  15
ENDBRANCH  13  14
ENDBRANCH  12  13
ENDBRANCH   9  12
ENDBRANCH   1   8
BRANCH   7  20
HETATM   20  O2  UNL     1      16.571 -13.822  20.964  1.00  0.00    -0.344 OA
ATOM     21  H2  UNL     1      16.366 -13.332  20.177  1.00  0.00     0.219 HD
ENDBRANCH   7  20
BRANCH   7  22
HETATM   22  C12 UNL     1      18.028 -14.685  22.509  1.00  0.00     0.080 C 
BRANCH  22  23
HETATM   23  C13 UNL     1      17.899 -14.071  23.830  1.00  0.00     0.012 C 
BRANCH  23  24
HETATM   24  C14 UNL     1      18.877 -14.008  24.885  1.00  0.00     0.010 C 
HETATM   25  C15 UNL     1      19.558 -15.249  25.345  1.00  0.00     0.008 C 
HETATM   26  C16 UNL     1      21.038 -15.299  25.153  1.00  0.00     0.001 C 
HETATM   27  C17 UNL     1      21.638 -14.234  26.051  1.00  0.00     0.000 C 
HETATM   28  C18 UNL     1      20.828 -12.981  25.911  1.00  0.00     0.001 C 
HETATM   29  C19 UNL     1      19.981 -12.957  24.655  1.00  0.00     0.008 C 
ENDBRANCH  23  24
ENDBRANCH  22  23
BRANCH  22  30
HETATM   30  N6  UNL     1      17.769 -16.018  22.227  1.00  0.00    -0.357 N 
ATOM     31  H6  UNL     1      18.298 -16.444  21.468  1.00  0.00     0.165 HD
BRANCH  30  32
HETATM   32  C20 UNL     1      16.847 -16.827  22.892  1.00  0.00     0.173 C 
BRANCH  32  33
HETATM   33  C21 UNL     1      15.466 -16.884  22.445  1.00  0.00     0.214 C 
HETATM   34  O3  UNL     1      15.218 -16.445  21.276  1.00  0.00    -0.643 OA
HETATM   35  O4  UNL     1      14.397 -17.365  23.160  1.00  0.00    -0.643 OA
ENDBRANCH  32  33
ENDBRANCH  30  32
ENDBRANCH  22  30
ENDBRANCH   7  22
TORSDOF 12
ENDMDL
