MODEL 5
REMARK VINA RESULT: -8.257372309      2.426      4.694
REMARK  9 active torsions:
REMARK  status: ('A' for Active; 'I' for Inactive)
REMARK    1  A    between atoms: C1_2  and  C2_6 
REMARK    2  A    between atoms: C5_9  and  C6_10 
REMARK    3  A    between atoms: C6_10  and  N3_11 
REMARK       I    between atoms: N3_11  and  C7_13 
REMARK    4  A    between atoms: C7_13  and  C8_15 
REMARK       I    between atoms: N4_18  and  C11_19 
REMARK    5  A    between atoms: C11_19  and  C12_21 
REMARK    6  A    between atoms: C12_21  and  N5_22 
REMARK    7  A    between atoms: C12_21  and  C15_29 
REMARK    8  A    between atoms: N5_22  and  C13_25 
REMARK    9  A    between atoms: C13_25  and  C14_26 
ROOT
HETATM    1  C8  UNL     1      16.752 -17.589  22.411  1.00  0.00     0.180 C 
HETATM    2  C9  UNL     1      16.568 -18.650  23.478  1.00  0.00     0.055 C 
HETATM    3  C10 UNL     1      16.568 -17.448  24.398  1.00  0.00     0.129 C 
HETATM    4  N4  UNL     1      17.408 -16.782  23.411  1.00  0.00    -0.337 N 
HETATM    5  C11 UNL     1      18.406 -15.792  23.500  1.00  0.00     0.251 C 
HETATM    6  O2  UNL     1      18.682 -15.329  24.662  1.00  0.00    -0.271 OA
ENDROOT
BRANCH   1   7
HETATM    7  C7  UNL     1      15.410 -17.083  21.987  1.00  0.00     0.240 C 
HETATM    8  N3  UNL     1      15.246 -16.203  20.896  1.00  0.00    -0.355 N 
ATOM      9  H3  UNL     1      16.081 -15.914  20.388  1.00  0.00     0.162 HD
HETATM   10  O1  UNL     1      14.400 -17.441  22.608  1.00  0.00    -0.271 OA
BRANCH   8  11
HETATM   11  C6  UNL     1      13.964 -15.679  20.448  1.00  0.00     0.161 C 
BRANCH  11  12
HETATM   12  C5  UNL     1      13.838 -14.241  20.648  1.00  0.00    -0.040 A 
HETATM   13  C4  UNL     1      13.383 -13.736  21.841  1.00  0.00     0.010 A 
HETATM   14  C3  UNL     1      13.252 -12.388  22.081  1.00  0.00     0.015 A 
HETATM   15  C2  UNL     1      13.582 -11.461  21.102  1.00  0.00     0.004 A 
HETATM   16  C22 UNL     1      14.040 -11.941  19.898  1.00  0.00     0.015 A 
HETATM   17  C21 UNL     1      14.165 -13.322  19.680  1.00  0.00     0.010 A 
BRANCH  15  18
HETATM   18  C1  UNL     1      13.442 -10.042  21.362  1.00  0.00     0.120 C 
HETATM   19  N1  UNL     1      12.344  -9.586  22.141  1.00  0.00    -0.082 NA
HETATM   20  N2  UNL     1      14.264  -9.177  20.922  1.00  0.00    -0.387 N 
ATOM     21  H22 UNL     1      14.166  -8.178  21.105  1.00  0.00     0.157 HD
ATOM     22  H21 UNL     1      15.052  -9.504  20.363  1.00  0.00     0.157 HD
ENDBRANCH  15  18
ENDBRANCH  11  12
ENDBRANCH   8  11
ENDBRANCH   1   7
BRANCH   5  23
HETATM   23  C12 UNL     1      19.169 -15.237  22.332  1.00  0.00     0.281 C 
BRANCH  23  24
HETATM   24  N5  UNL     1      20.574 -15.543  22.462  1.00  0.00    -0.052 N 
ATOM     25  H52 UNL     1      21.139 -14.991  21.817  1.00  0.00     0.278 HD
ATOM     26  H51 UNL     1      20.953 -15.195  23.342  1.00  0.00     0.278 HD
BRANCH  24  27
HETATM   27  C13 UNL     1      20.827 -16.978  22.301  1.00  0.00     0.345 C 
BRANCH  27  28
HETATM   28  C14 UNL     1      20.711 -17.393  20.877  1.00  0.00     0.199 C 
HETATM   29  O3  UNL     1      21.590 -17.022  20.087  1.00  0.00    -0.647 OA
HETATM   30  O4  UNL     1      19.664 -18.171  20.404  1.00  0.00    -0.647 OA
ENDBRANCH  27  28
ENDBRANCH  24  27
ENDBRANCH  23  24
BRANCH  23  31
HETATM   31  C15 UNL     1      18.833 -13.801  22.168  1.00  0.00     0.026 C 
HETATM   32  C16 UNL     1      17.531 -13.507  21.476  1.00  0.00     0.007 C 
HETATM   33  C17 UNL     1      17.559 -12.035  21.076  1.00  0.00     0.000 C 
HETATM   34  C18 UNL     1      18.479 -11.789  19.922  1.00  0.00     0.000 C 
HETATM   35  C19 UNL     1      19.633 -12.772  20.014  1.00  0.00     0.000 C 
HETATM   36  C20 UNL     1      19.905 -12.990  21.490  1.00  0.00     0.007 C 
ENDBRANCH  23  31
ENDBRANCH   5  23
TORSDOF 9
ENDMDL
