MODEL 10
REMARK VINA RESULT: -8.002838674      2.899      7.705
REMARK  9 active torsions:
REMARK  status: ('A' for Active; 'I' for Inactive)
REMARK    1  A    between atoms: C1_2  and  C2_6 
REMARK    2  A    between atoms: C5_9  and  C6_10 
REMARK    3  A    between atoms: C6_10  and  N3_11 
REMARK       I    between atoms: N3_11  and  C7_13 
REMARK    4  A    between atoms: C7_13  and  C8_15 
REMARK       I    between atoms: N4_18  and  C11_19 
REMARK    5  A    between atoms: C11_19  and  C12_21 
REMARK    6  A    between atoms: C12_21  and  N5_22 
REMARK    7  A    between atoms: C12_21  and  C15_29 
REMARK    8  A    between atoms: N5_22  and  C13_25 
REMARK    9  A    between atoms: C13_25  and  C14_26 
ROOT
HETATM    1  C8  UNL     1      13.863 -16.007  21.670  1.00  0.00     0.180 C 
HETATM    2  C9  UNL     1      13.277 -16.949  20.636  1.00  0.00     0.055 C 
HETATM    3  C10 UNL     1      14.511 -16.548  19.856  1.00  0.00     0.129 C 
HETATM    4  N4  UNL     1      14.471 -15.284  20.580  1.00  0.00    -0.337 N 
HETATM    5  C11 UNL     1      14.875 -13.973  20.259  1.00  0.00     0.251 C 
HETATM    6  O2  UNL     1      15.401 -13.778  19.108  1.00  0.00    -0.271 OA
ENDROOT
BRANCH   1   7
HETATM    7  C7  UNL     1      14.828 -16.763  22.528  1.00  0.00     0.240 C 
HETATM    8  N3  UNL     1      16.110 -16.263  22.842  1.00  0.00    -0.355 N 
ATOM      9  H3  UNL     1      16.370 -15.352  22.464  1.00  0.00     0.162 HD
HETATM   10  O1  UNL     1      14.502 -17.866  22.985  1.00  0.00    -0.271 OA
BRANCH   8  11
HETATM   11  C6  UNL     1      17.085 -16.959  23.667  1.00  0.00     0.161 C 
BRANCH  11  12
HETATM   12  C5  UNL     1      18.303 -16.187  23.879  1.00  0.00    -0.040 A 
HETATM   13  C4  UNL     1      19.414 -16.403  23.101  1.00  0.00     0.010 A 
HETATM   14  C3  UNL     1      20.584 -15.697  23.258  1.00  0.00     0.015 A 
HETATM   15  C2  UNL     1      20.692 -14.715  24.234  1.00  0.00     0.004 A 
HETATM   16  C22 UNL     1      19.593 -14.480  25.025  1.00  0.00     0.015 A 
HETATM   17  C21 UNL     1      18.411 -15.214  24.844  1.00  0.00     0.010 A 
BRANCH  15  18
HETATM   18  C1  UNL     1      21.928 -13.975  24.392  1.00  0.00     0.120 C 
HETATM   19  N1  UNL     1      23.077 -14.381  23.660  1.00  0.00    -0.082 NA
HETATM   20  N2  UNL     1      22.034 -12.968  25.163  1.00  0.00    -0.387 N 
ATOM     21  H22 UNL     1      22.904 -12.448  25.274  1.00  0.00     0.157 HD
ATOM     22  H21 UNL     1      21.210 -12.677  25.688  1.00  0.00     0.157 HD
ENDBRANCH  15  18
ENDBRANCH  11  12
ENDBRANCH   8  11
ENDBRANCH   1   7
BRANCH   5  23
HETATM   23  C12 UNL     1      14.735 -12.787  21.170  1.00  0.00     0.281 C 
BRANCH  23  24
HETATM   24  N5  UNL     1      13.735 -11.880  20.660  1.00  0.00    -0.052 N 
ATOM     25  H52 UNL     1      14.147 -11.172  20.053  1.00  0.00     0.278 HD
ATOM     26  H51 UNL     1      13.128 -12.337  19.980  1.00  0.00     0.278 HD
BRANCH  24  27
HETATM   27  C13 UNL     1      12.961 -11.271  21.745  1.00  0.00     0.345 C 
BRANCH  27  28
HETATM   28  C14 UNL     1      13.178  -9.800  21.809  1.00  0.00     0.199 C 
HETATM   29  O3  UNL     1      12.481  -9.141  22.592  1.00  0.00    -0.647 OA
HETATM   30  O4  UNL     1      14.121  -9.146  21.031  1.00  0.00    -0.647 OA
ENDBRANCH  27  28
ENDBRANCH  24  27
ENDBRANCH  23  24
BRANCH  23  31
HETATM   31  C15 UNL     1      16.076 -12.200  21.414  1.00  0.00     0.026 C 
HETATM   32  C16 UNL     1      16.749 -11.583  20.218  1.00  0.00     0.007 C 
HETATM   33  C17 UNL     1      18.219 -11.395  20.580  1.00  0.00     0.000 C 
HETATM   34  C18 UNL     1      18.959 -12.695  20.598  1.00  0.00     0.000 C 
HETATM   35  C19 UNL     1      17.999 -13.784  21.049  1.00  0.00     0.000 C 
HETATM   36  C20 UNL     1      17.057 -13.147  22.052  1.00  0.00     0.007 C 
ENDBRANCH  23  31
ENDBRANCH   5  23
TORSDOF 9
ENDMDL
