MODEL 2
REMARK VINA RESULT: -9.035078356      1.444      1.646
REMARK  9 active torsions:
REMARK  status: ('A' for Active; 'I' for Inactive)
REMARK    1  A    between atoms: C1_2  and  C2_6 
REMARK    2  A    between atoms: C5_9  and  C6_10 
REMARK    3  A    between atoms: C6_10  and  N3_11 
REMARK       I    between atoms: N3_11  and  C7_13 
REMARK    4  A    between atoms: C7_13  and  C8_15 
REMARK       I    between atoms: N4_18  and  C11_19 
REMARK    5  A    between atoms: C11_19  and  C12_21 
REMARK    6  A    between atoms: C12_21  and  N5_22 
REMARK    7  A    between atoms: C12_21  and  C15_29 
REMARK    8  A    between atoms: N5_22  and  C13_25 
REMARK    9  A    between atoms: C13_25  and  C14_26 
ROOT
HETATM    1  C8  UNL     1      18.867 -12.112  21.081  1.00  0.00     0.180 C 
HETATM    2  C9  UNL     1      19.935 -11.599  20.137  1.00  0.00     0.055 C 
HETATM    3  C10 UNL     1      19.845 -13.004  19.581  1.00  0.00     0.129 C 
HETATM    4  N4  UNL     1      19.435 -13.428  20.914  1.00  0.00    -0.337 N 
HETATM    5  C11 UNL     1      19.583 -14.628  21.634  1.00  0.00     0.251 C 
HETATM    6  O2  UNL     1      20.193 -15.597  21.058  1.00  0.00    -0.271 OA
ENDROOT
BRANCH   1   7
HETATM    7  C7  UNL     1      17.525 -11.931  20.447  1.00  0.00     0.240 C 
HETATM    8  N3  UNL     1      16.579 -12.975  20.370  1.00  0.00    -0.355 N 
ATOM      9  H3  UNL     1      16.835 -13.878  20.768  1.00  0.00     0.162 HD
HETATM   10  O1  UNL     1      17.220 -10.829  19.970  1.00  0.00    -0.271 OA
BRANCH   8  11
HETATM   11  C6  UNL     1      15.264 -12.850  19.761  1.00  0.00     0.161 C 
BRANCH  11  12
HETATM   12  C5  UNL     1      14.255 -12.347  20.686  1.00  0.00    -0.040 A 
HETATM   13  C4  UNL     1      13.636 -13.190  21.575  1.00  0.00     0.010 A 
HETATM   14  C3  UNL     1      12.684 -12.763  22.471  1.00  0.00     0.015 A 
HETATM   15  C2  UNL     1      12.301 -11.429  22.512  1.00  0.00     0.004 A 
HETATM   16  C22 UNL     1      12.907 -10.564  21.632  1.00  0.00     0.015 A 
HETATM   17  C21 UNL     1      13.875 -11.027  20.728  1.00  0.00     0.010 A 
BRANCH  15  18
HETATM   18  C1  UNL     1      11.298 -10.986  23.460  1.00  0.00     0.120 C 
HETATM   19  N1  UNL     1      11.306  -9.633  23.896  1.00  0.00    -0.082 NA
HETATM   20  N2  UNL     1      10.401 -11.760  23.925  1.00  0.00    -0.387 N 
ATOM     21  H22 UNL     1       9.695 -11.449  24.593  1.00  0.00     0.157 HD
ATOM     22  H21 UNL     1      10.395 -12.731  23.613  1.00  0.00     0.157 HD
ENDBRANCH  15  18
ENDBRANCH  11  12
ENDBRANCH   8  11
ENDBRANCH   1   7
BRANCH   5  23
HETATM   23  C12 UNL     1      19.078 -14.857  23.031  1.00  0.00     0.281 C 
BRANCH  23  24
HETATM   24  N5  UNL     1      17.639 -14.972  23.029  1.00  0.00    -0.052 N 
ATOM     25  H52 UNL     1      17.236 -14.628  23.900  1.00  0.00     0.278 HD
ATOM     26  H51 UNL     1      17.212 -14.309  22.383  1.00  0.00     0.278 HD
BRANCH  24  27
HETATM   27  C13 UNL     1      17.212 -16.346  22.747  1.00  0.00     0.345 C 
BRANCH  27  28
HETATM   28  C14 UNL     1      15.902 -16.374  22.042  1.00  0.00     0.199 C 
HETATM   29  O3  UNL     1      15.882 -16.091  20.837  1.00  0.00    -0.647 OA
HETATM   30  O4  UNL     1      14.713 -16.699  22.679  1.00  0.00    -0.647 OA
ENDBRANCH  27  28
ENDBRANCH  24  27
ENDBRANCH  23  24
BRANCH  23  31
HETATM   31  C15 UNL     1      19.643 -13.819  23.929  1.00  0.00     0.026 C 
HETATM   32  C16 UNL     1      21.141 -13.816  24.066  1.00  0.00     0.007 C 
HETATM   33  C17 UNL     1      21.476 -12.963  25.285  1.00  0.00     0.000 C 
HETATM   34  C18 UNL     1      21.142 -13.663  26.565  1.00  0.00     0.000 C 
HETATM   35  C19 UNL     1      19.927 -14.543  26.324  1.00  0.00     0.000 C 
HETATM   36  C20 UNL     1      19.056 -13.818  25.315  1.00  0.00     0.007 C 
ENDBRANCH  23  31
ENDBRANCH   5  23
TORSDOF 9
ENDMDL
