MODEL 11
REMARK VINA RESULT: -7.984424187      3.055      7.550
REMARK  9 active torsions:
REMARK  status: ('A' for Active; 'I' for Inactive)
REMARK    1  A    between atoms: C1_2  and  C2_6 
REMARK    2  A    between atoms: C5_9  and  C6_10 
REMARK    3  A    between atoms: C6_10  and  N3_11 
REMARK       I    between atoms: N3_11  and  C7_13 
REMARK    4  A    between atoms: C7_13  and  C8_15 
REMARK       I    between atoms: N4_18  and  C11_19 
REMARK    5  A    between atoms: C11_19  and  C12_21 
REMARK    6  A    between atoms: C12_21  and  N5_22 
REMARK    7  A    between atoms: C12_21  and  C15_29 
REMARK    8  A    between atoms: N5_22  and  C13_25 
REMARK    9  A    between atoms: C13_25  and  C14_26 
ROOT
HETATM    1  C8  UNL     1      13.741 -16.414  21.680  1.00  0.00     0.180 C 
HETATM    2  C9  UNL     1      12.813 -17.463  21.099  1.00  0.00     0.055 C 
HETATM    3  C10 UNL     1      13.905 -17.573  20.057  1.00  0.00     0.129 C 
HETATM    4  N4  UNL     1      14.215 -16.176  20.338  1.00  0.00    -0.337 N 
HETATM    5  C11 UNL     1      14.744 -15.128  19.560  1.00  0.00     0.251 C 
HETATM    6  O2  UNL     1      15.043 -15.384  18.342  1.00  0.00    -0.271 OA
ENDROOT
BRANCH   1   7
HETATM    7  C7  UNL     1      14.732 -17.081  22.579  1.00  0.00     0.240 C 
HETATM    8  N3  UNL     1      16.003 -16.527  22.845  1.00  0.00    -0.355 N 
ATOM      9  H3  UNL     1      16.235 -15.638  22.403  1.00  0.00     0.162 HD
HETATM   10  O1  UNL     1      14.440 -18.158  23.115  1.00  0.00    -0.271 OA
BRANCH   8  11
HETATM   11  C6  UNL     1      17.002 -17.138  23.708  1.00  0.00     0.161 C 
BRANCH  11  12
HETATM   12  C5  UNL     1      17.943 -16.170  24.260  1.00  0.00    -0.040 A 
HETATM   13  C4  UNL     1      18.200 -16.132  25.607  1.00  0.00     0.010 A 
HETATM   14  C3  UNL     1      19.083 -15.242  26.175  1.00  0.00     0.015 A 
HETATM   15  C2  UNL     1      19.765 -14.324  25.388  1.00  0.00     0.004 A 
HETATM   16  C22 UNL     1      19.525 -14.342  24.035  1.00  0.00     0.015 A 
HETATM   17  C21 UNL     1      18.619 -15.260  23.482  1.00  0.00     0.010 A 
BRANCH  15  18
HETATM   18  C1  UNL     1      20.694 -13.391  25.994  1.00  0.00     0.120 C 
HETATM   19  N1  UNL     1      20.819 -12.085  25.446  1.00  0.00    -0.082 NA
HETATM   20  N2  UNL     1      21.410 -13.689  27.003  1.00  0.00    -0.387 N 
ATOM     21  H22 UNL     1      22.064 -13.033  27.429  1.00  0.00     0.157 HD
ATOM     22  H21 UNL     1      21.319 -14.626  27.395  1.00  0.00     0.157 HD
ENDBRANCH  15  18
ENDBRANCH  11  12
ENDBRANCH   8  11
ENDBRANCH   1   7
BRANCH   5  23
HETATM   23  C12 UNL     1      14.983 -13.730  20.056  1.00  0.00     0.281 C 
BRANCH  23  24
HETATM   24  N5  UNL     1      13.933 -12.851  19.600  1.00  0.00    -0.052 N 
ATOM     25  H52 UNL     1      14.311 -12.034  19.121  1.00  0.00     0.278 HD
ATOM     26  H51 UNL     1      13.412 -13.262  18.826  1.00  0.00     0.278 HD
BRANCH  24  27
HETATM   27  C13 UNL     1      13.044 -12.464  20.699  1.00  0.00     0.345 C 
BRANCH  27  28
HETATM   28  C14 UNL     1      13.278 -11.056  21.117  1.00  0.00     0.199 C 
HETATM   29  O3  UNL     1      13.193 -10.783  22.323  1.00  0.00    -0.647 OA
HETATM   30  O4  UNL     1      13.582 -10.045  20.217  1.00  0.00    -0.647 OA
ENDBRANCH  27  28
ENDBRANCH  24  27
ENDBRANCH  23  24
BRANCH  23  31
HETATM   31  C15 UNL     1      16.367 -13.321  19.706  1.00  0.00     0.026 C 
HETATM   32  C16 UNL     1      17.421 -13.628  20.734  1.00  0.00     0.007 C 
HETATM   33  C17 UNL     1      18.655 -12.810  20.367  1.00  0.00     0.000 C 
HETATM   34  C18 UNL     1      18.471 -11.357  20.674  1.00  0.00     0.000 C 
HETATM   35  C19 UNL     1      17.005 -11.010  20.476  1.00  0.00     0.000 C 
HETATM   36  C20 UNL     1      16.503 -11.869  19.331  1.00  0.00     0.007 C 
ENDBRANCH  23  31
ENDBRANCH   5  23
TORSDOF 9
ENDMDL
