MODEL 8
REMARK VINA RESULT: -6.919152671      3.276      6.051
REMARK  5 active torsions:
REMARK  status: ('A' for Active; 'I' for Inactive)
REMARK    1  A    between atoms: S1_2  and  C2_3 
REMARK    2  A    between atoms: C2_3  and  C3_4 
REMARK    3  A    between atoms: C4_8  and  C5_9 
REMARK    4  A    between atoms: C11_22  and  O1_23 
REMARK    5  A    between atoms: C12_25  and  O2_26 
ROOT
HETATM    1  C3  UNL     1      60.735  17.640  26.433  1.00  0.00     0.227 C 
HETATM    2  N1  UNL     1      61.583  17.401  27.551  1.00  0.00    -0.057 N 
ATOM      3  H11 UNL     1      61.449  18.081  28.299  1.00  0.00     0.278 HD
ATOM      4  H12 UNL     1      62.562  17.606  27.355  1.00  0.00     0.278 HD
HETATM    5  C4  UNL     1      61.364  15.985  28.007  1.00  0.00     0.254 C 
HETATM    6  C11 UNL     1      60.270  15.522  27.086  1.00  0.00     0.184 C 
HETATM    7  C12 UNL     1      59.506  16.792  26.815  1.00  0.00     0.180 C 
ENDROOT
BRANCH   5   8
HETATM    8  C5  UNL     1      60.970  16.080  29.437  1.00  0.00     0.019 A 
HETATM    9  C6  UNL     1      59.735  16.243  29.978  1.00  0.00     0.100 A 
HETATM   10  N2  UNL     1      59.932  16.450  31.328  1.00  0.00    -0.361 N 
HETATM   11  C7  UNL     1      61.239  16.417  31.611  1.00  0.00     0.101 A 
ATOM     12  H2  UNL     1      59.190  16.606  32.010  1.00  0.00     0.165 HD
HETATM   13  C8  UNL     1      61.920  16.514  32.828  1.00  0.00     0.146 A 
HETATM   14  C10 UNL     1      61.930  16.187  30.446  1.00  0.00     0.073 A 
HETATM   15  N3  UNL     1      61.190  16.766  34.017  1.00  0.00    -0.080 NA
HETATM   16  N4  UNL     1      63.272  16.376  32.817  1.00  0.00    -0.339 N 
HETATM   17  C9  UNL     1      63.940  16.152  31.682  1.00  0.00     0.182 A 
ATOM     18  H4  UNL     1      63.788  16.445  33.694  1.00  0.00     0.167 HD
HETATM   19  N5  UNL     1      63.265  16.061  30.501  1.00  0.00    -0.350 N 
ATOM     20  H5  UNL     1      63.786  15.894  29.640  1.00  0.00     0.166 HD
ENDBRANCH   5   8
BRANCH   6  21
HETATM   21  O1  UNL     1      60.883  15.145  25.888  1.00  0.00    -0.390 OA
ATOM     22  H1  UNL     1      60.912  15.919  25.338  1.00  0.00     0.210 HD
ENDBRANCH   6  21
BRANCH   1  23
HETATM   23  C2  UNL     1      60.342  19.030  26.133  1.00  0.00     0.109 C 
BRANCH  23  24
HETATM   24  S1  UNL     1      59.179  19.802  27.245  1.00  0.00    -0.171 SA
HETATM   25  C1  UNL     1      57.931  20.812  26.440  1.00  0.00     0.089 C 
ENDBRANCH  23  24
ENDBRANCH   1  23
BRANCH   7  26
HETATM   26  O2  UNL     1      58.634  16.662  25.764  1.00  0.00    -0.391 OA
ATOM     27  H2  UNL     1      58.568  15.760  25.474  1.00  0.00     0.210 HD
ENDBRANCH   7  26
TORSDOF 5
ENDMDL
