MODEL 3
REMARK VINA RESULT: -7.707122403      2.982      6.121
REMARK  5 active torsions:
REMARK  status: ('A' for Active; 'I' for Inactive)
REMARK    1  A    between atoms: S1_2  and  C2_3 
REMARK    2  A    between atoms: C2_3  and  C3_4 
REMARK    3  A    between atoms: C4_8  and  C5_9 
REMARK    4  A    between atoms: C11_22  and  O1_23 
REMARK    5  A    between atoms: C12_25  and  O2_26 
ROOT
HETATM    1  C3  UNL     1      60.559  17.108  26.617  1.00  0.00     0.227 C 
HETATM    2  N1  UNL     1      61.622  17.355  27.531  1.00  0.00    -0.057 N 
ATOM      3  H11 UNL     1      61.464  18.183  28.105  1.00  0.00     0.278 HD
ATOM      4  H12 UNL     1      62.474  17.669  27.069  1.00  0.00     0.278 HD
HETATM    5  C4  UNL     1      61.828  16.111  28.350  1.00  0.00     0.254 C 
HETATM    6  C11 UNL     1      60.730  15.216  27.847  1.00  0.00     0.184 C 
HETATM    7  C12 UNL     1      59.652  16.196  27.466  1.00  0.00     0.180 C 
ENDROOT
BRANCH   5   8
HETATM    8  C5  UNL     1      61.680  16.535  29.768  1.00  0.00     0.019 A 
HETATM    9  C6  UNL     1      62.155  17.647  30.385  1.00  0.00     0.100 A 
HETATM   10  N2  UNL     1      61.898  17.477  31.730  1.00  0.00    -0.361 N 
HETATM   11  C7  UNL     1      61.287  16.305  31.936  1.00  0.00     0.101 A 
ATOM     12  H2  UNL     1      62.138  18.147  32.461  1.00  0.00     0.165 HD
HETATM   13  C8  UNL     1      60.783  15.722  33.103  1.00  0.00     0.146 A 
HETATM   14  C10 UNL     1      61.132  15.677  30.725  1.00  0.00     0.073 A 
HETATM   15  N3  UNL     1      60.967  16.379  34.346  1.00  0.00    -0.080 NA
HETATM   16  N4  UNL     1      60.142  14.529  32.996  1.00  0.00    -0.339 N 
HETATM   17  C9  UNL     1      59.992  13.922  31.815  1.00  0.00     0.182 A 
ATOM     18  H4  UNL     1      59.767  14.086  33.835  1.00  0.00     0.167 HD
HETATM   19  N5  UNL     1      60.490  14.499  30.685  1.00  0.00    -0.350 N 
ATOM     20  H5  UNL     1      60.374  14.025  29.789  1.00  0.00     0.166 HD
ENDBRANCH   5   8
BRANCH   6  21
HETATM   21  O1  UNL     1      61.194  14.632  26.665  1.00  0.00    -0.390 OA
ATOM     22  H1  UNL     1      61.369  13.719  26.860  1.00  0.00     0.210 HD
ENDBRANCH   6  21
BRANCH   1  23
HETATM   23  C2  UNL     1      59.801  18.261  26.093  1.00  0.00     0.109 C 
BRANCH  23  24
HETATM   24  S1  UNL     1      59.746  19.726  27.112  1.00  0.00    -0.171 SA
HETATM   25  C1  UNL     1      58.429  20.876  26.698  1.00  0.00     0.089 C 
ENDBRANCH  23  24
ENDBRANCH   1  23
BRANCH   7  26
HETATM   26  O2  UNL     1      58.665  15.618  26.710  1.00  0.00    -0.391 OA
ATOM     27  H2  UNL     1      58.944  15.486  25.811  1.00  0.00     0.210 HD
ENDBRANCH   7  26
TORSDOF 5
ENDMDL
