MODEL 1
REMARK VINA RESULT: -8.125838792      0.000      0.000
REMARK  5 active torsions:
REMARK  status: ('A' for Active; 'I' for Inactive)
REMARK    1  A    between atoms: S1_2  and  C2_3 
REMARK    2  A    between atoms: C2_3  and  C3_4 
REMARK    3  A    between atoms: C4_8  and  C5_9 
REMARK    4  A    between atoms: C11_22  and  O1_23 
REMARK    5  A    between atoms: C12_25  and  O2_26 
ROOT
HETATM    1  C3  UNL     1      60.904  15.287  31.425  1.00  0.00     0.227 C 
HETATM    2  N1  UNL     1      61.234  14.897  30.096  1.00  0.00    -0.057 N 
ATOM      3  H11 UNL     1      60.452  14.463  29.607  1.00  0.00     0.278 HD
ATOM      4  H12 UNL     1      61.872  14.102  30.065  1.00  0.00     0.278 HD
HETATM    5  C4  UNL     1      61.772  16.104  29.378  1.00  0.00     0.254 C 
HETATM    6  C11 UNL     1      61.620  17.182  30.415  1.00  0.00     0.184 C 
HETATM    7  C12 UNL     1      60.412  16.728  31.190  1.00  0.00     0.180 C 
ENDROOT
BRANCH   5   8
HETATM    8  C5  UNL     1      60.909  16.274  28.179  1.00  0.00     0.019 A 
HETATM    9  C6  UNL     1      60.490  15.343  27.283  1.00  0.00     0.100 A 
HETATM   10  N2  UNL     1      59.867  16.040  26.269  1.00  0.00    -0.361 N 
HETATM   11  C7  UNL     1      59.900  17.353  26.527  1.00  0.00     0.101 A 
ATOM     12  H2  UNL     1      59.444  15.618  25.443  1.00  0.00     0.165 HD
HETATM   13  C8  UNL     1      59.358  18.441  25.836  1.00  0.00     0.146 A 
HETATM   14  C10 UNL     1      60.550  17.544  27.722  1.00  0.00     0.073 A 
HETATM   15  N3  UNL     1      58.705  18.224  24.597  1.00  0.00    -0.080 NA
HETATM   16  N4  UNL     1      59.496  19.677  26.382  1.00  0.00    -0.339 N 
HETATM   17  C9  UNL     1      60.128  19.859  27.545  1.00  0.00     0.182 A 
ATOM     18  H4  UNL     1      59.109  20.485  25.893  1.00  0.00     0.167 HD
HETATM   19  N5  UNL     1      60.654  18.791  28.208  1.00  0.00    -0.350 N 
ATOM     20  H5  UNL     1      61.139  18.942  29.093  1.00  0.00     0.166 HD
ENDBRANCH   5   8
BRANCH   6  21
HETATM   21  O1  UNL     1      62.722  17.078  31.269  1.00  0.00    -0.390 OA
ATOM     22  H1  UNL     1      63.468  17.430  30.799  1.00  0.00     0.210 HD
ENDBRANCH   6  21
BRANCH   1  23
HETATM   23  C2  UNL     1      59.894  14.499  32.158  1.00  0.00     0.109 C 
BRANCH  23  24
HETATM   24  S1  UNL     1      58.433  14.013  31.254  1.00  0.00    -0.171 SA
HETATM   25  C1  UNL     1      57.965  12.291  31.461  1.00  0.00     0.089 C 
ENDBRANCH  23  24
ENDBRANCH   1  23
BRANCH   7  26
HETATM   26  O2  UNL     1      60.263  17.410  32.371  1.00  0.00    -0.391 OA
ATOM     27  H2  UNL     1      60.244  16.821  33.116  1.00  0.00     0.210 HD
ENDBRANCH   7  26
TORSDOF 5
ENDMDL
