MODEL 4
REMARK VINA RESULT: -7.652277077      3.243      5.909
REMARK  5 active torsions:
REMARK  status: ('A' for Active; 'I' for Inactive)
REMARK    1  A    between atoms: S1_2  and  C2_3 
REMARK    2  A    between atoms: C2_3  and  C3_4 
REMARK    3  A    between atoms: C4_8  and  C5_9 
REMARK    4  A    between atoms: C11_22  and  O1_23 
REMARK    5  A    between atoms: C12_25  and  O2_26 
ROOT
HETATM    1  C3  UNL     1      60.593  17.395  27.112  1.00  0.00     0.227 C 
HETATM    2  N1  UNL     1      61.588  17.087  28.083  1.00  0.00    -0.057 N 
ATOM      3  H11 UNL     1      61.444  17.578  28.965  1.00  0.00     0.278 HD
ATOM      4  H12 UNL     1      62.499  17.485  27.853  1.00  0.00     0.278 HD
HETATM    5  C4  UNL     1      61.630  15.593  28.249  1.00  0.00     0.254 C 
HETATM    6  C11 UNL     1      60.516  15.144  27.344  1.00  0.00     0.184 C 
HETATM    7  C12 UNL     1      59.551  16.299  27.409  1.00  0.00     0.180 C 
ENDROOT
BRANCH   5   8
HETATM    8  C5  UNL     1      61.392  15.344  29.695  1.00  0.00     0.019 A 
HETATM    9  C6  UNL     1      60.604  14.409  30.286  1.00  0.00     0.100 A 
HETATM   10  N2  UNL     1      60.591  14.714  31.631  1.00  0.00    -0.361 N 
HETATM   11  C7  UNL     1      61.342  15.797  31.863  1.00  0.00     0.101 A 
ATOM     12  H2  UNL     1      60.083  14.192  32.344  1.00  0.00     0.165 HD
HETATM   13  C8  UNL     1      61.679  16.445  33.055  1.00  0.00     0.146 A 
HETATM   14  C10 UNL     1      61.865  16.227  30.668  1.00  0.00     0.073 A 
HETATM   15  N3  UNL     1      61.117  15.995  34.276  1.00  0.00    -0.080 NA
HETATM   16  N4  UNL     1      62.530  17.502  32.989  1.00  0.00    -0.339 N 
HETATM   17  C9  UNL     1      63.038  17.916  31.825  1.00  0.00     0.182 A 
ATOM     18  H4  UNL     1      62.789  17.990  33.847  1.00  0.00     0.167 HD
HETATM   19  N5  UNL     1      62.700  17.277  30.669  1.00  0.00    -0.350 N 
ATOM     20  H5  UNL     1      63.090  17.606  29.785  1.00  0.00     0.166 HD
ENDBRANCH   5   8
BRANCH   6  21
HETATM   21  O1  UNL     1      61.037  15.113  26.047  1.00  0.00    -0.390 OA
ATOM     22  H1  UNL     1      60.376  15.486  25.477  1.00  0.00     0.210 HD
ENDBRANCH   6  21
BRANCH   1  23
HETATM   23  C2  UNL     1      59.972  18.733  27.143  1.00  0.00     0.109 C 
BRANCH  23  24
HETATM   24  S1  UNL     1      59.187  19.298  25.642  1.00  0.00    -0.171 SA
HETATM   25  C1  UNL     1      58.082  20.698  25.858  1.00  0.00     0.089 C 
ENDBRANCH  23  24
ENDBRANCH   1  23
BRANCH   7  26
HETATM   26  O2  UNL     1      58.593  16.234  26.430  1.00  0.00    -0.391 OA
ATOM     27  H2  UNL     1      57.792  15.835  26.749  1.00  0.00     0.210 HD
ENDBRANCH   7  26
TORSDOF 5
ENDMDL
