MODEL 11
REMARK VINA RESULT: -6.390024441      1.234      1.612
REMARK  5 active torsions:
REMARK  status: ('A' for Active; 'I' for Inactive)
REMARK    1  A    between atoms: S1_2  and  C2_3 
REMARK    2  A    between atoms: C2_3  and  C3_4 
REMARK    3  A    between atoms: C4_8  and  C5_9 
REMARK    4  A    between atoms: C11_22  and  O1_23 
REMARK    5  A    between atoms: C12_25  and  O2_26 
ROOT
HETATM    1  C3  UNL     1      61.136  15.789  31.023  1.00  0.00     0.227 C 
HETATM    2  N1  UNL     1      61.577  15.563  29.688  1.00  0.00    -0.057 N 
ATOM      3  H11 UNL     1      60.960  14.939  29.169  1.00  0.00     0.278 HD
ATOM      4  H12 UNL     1      62.419  14.990  29.643  1.00  0.00     0.278 HD
HETATM    5  C4  UNL     1      61.747  16.900  29.021  1.00  0.00     0.254 C 
HETATM    6  C11 UNL     1      61.279  17.847  30.091  1.00  0.00     0.184 C 
HETATM    7  C12 UNL     1      60.248  17.033  30.827  1.00  0.00     0.180 C 
ENDROOT
BRANCH   5   8
HETATM    8  C5  UNL     1      60.883  16.858  27.812  1.00  0.00     0.019 A 
HETATM    9  C6  UNL     1      60.629  15.820  26.974  1.00  0.00     0.100 A 
HETATM   10  N2  UNL     1      59.915  16.347  25.918  1.00  0.00    -0.361 N 
HETATM   11  C7  UNL     1      59.735  17.661  26.096  1.00  0.00     0.101 A 
ATOM     12  H2  UNL     1      59.575  15.813  25.118  1.00  0.00     0.165 HD
HETATM   13  C8  UNL     1      59.034  18.604  25.338  1.00  0.00     0.146 A 
HETATM   14  C10 UNL     1      60.330  18.025  27.278  1.00  0.00     0.073 A 
HETATM   15  N3  UNL     1      58.438  18.212  24.113  1.00  0.00    -0.080 NA
HETATM   16  N4  UNL     1      58.965  19.877  25.808  1.00  0.00    -0.339 N 
HETATM   17  C9  UNL     1      59.546  20.227  26.960  1.00  0.00     0.182 A 
ATOM     18  H4  UNL     1      58.460  20.582  25.271  1.00  0.00     0.167 HD
HETATM   19  N5  UNL     1      60.228  19.298  27.688  1.00  0.00    -0.350 N 
ATOM     20  H5  UNL     1      60.671  19.578  28.564  1.00  0.00     0.166 HD
ENDBRANCH   5   8
BRANCH   6  21
HETATM   21  O1  UNL     1      62.356  18.036  30.963  1.00  0.00    -0.390 OA
ATOM     22  H1  UNL     1      62.964  17.324  30.806  1.00  0.00     0.210 HD
ENDBRANCH   6  21
BRANCH   1  23
HETATM   23  C2  UNL     1      60.393  14.715  31.708  1.00  0.00     0.109 C 
BRANCH  23  24
HETATM   24  S1  UNL     1      60.312  14.793  33.490  1.00  0.00    -0.171 SA
HETATM   25  C1  UNL     1      61.347  16.061  34.230  1.00  0.00     0.089 C 
ENDBRANCH  23  24
ENDBRANCH   1  23
BRANCH   7  26
HETATM   26  O2  UNL     1      59.897  17.597  32.027  1.00  0.00    -0.391 OA
ATOM     27  H2  UNL     1      59.023  17.968  31.997  1.00  0.00     0.210 HD
ENDBRANCH   7  26
TORSDOF 5
ENDMDL
