MODEL 17
REMARK VINA RESULT: -5.352700567      1.070      1.283
REMARK  5 active torsions:
REMARK  status: ('A' for Active; 'I' for Inactive)
REMARK    1  A    between atoms: S1_2  and  C2_3 
REMARK    2  A    between atoms: C2_3  and  C3_4 
REMARK    3  A    between atoms: C4_8  and  C5_9 
REMARK    4  A    between atoms: C11_22  and  O1_23 
REMARK    5  A    between atoms: C12_25  and  O2_26 
ROOT
HETATM    1  C3  UNL     1      60.049  14.955  30.564  1.00  0.00     0.227 C 
HETATM    2  N1  UNL     1      60.526  14.803  29.231  1.00  0.00    -0.057 N 
ATOM      3  H11 UNL     1      59.799  14.498  28.585  1.00  0.00     0.278 HD
ATOM      4  H12 UNL     1      61.148  14.003  29.125  1.00  0.00     0.278 HD
HETATM    5  C4  UNL     1      61.167  16.098  28.817  1.00  0.00     0.254 C 
HETATM    6  C11 UNL     1      60.915  16.973  30.013  1.00  0.00     0.184 C 
HETATM    7  C12 UNL     1      59.614  16.434  30.549  1.00  0.00     0.180 C 
ENDROOT
BRANCH   5   8
HETATM    8  C5  UNL     1      60.456  16.521  27.581  1.00  0.00     0.019 A 
HETATM    9  C6  UNL     1      60.095  15.779  26.503  1.00  0.00     0.100 A 
HETATM   10  N2  UNL     1      59.626  16.673  25.563  1.00  0.00    -0.361 N 
HETATM   11  C7  UNL     1      59.696  17.921  26.042  1.00  0.00     0.101 A 
ATOM     12  H2  UNL     1      59.279  16.421  24.638  1.00  0.00     0.165 HD
HETATM   13  C8  UNL     1      59.290  19.141  25.492  1.00  0.00     0.146 A 
HETATM   14  C10 UNL     1      60.214  17.870  27.312  1.00  0.00     0.073 A 
HETATM   15  N3  UNL     1      58.771  19.175  24.174  1.00  0.00    -0.080 NA
HETATM   16  N4  UNL     1      59.427  20.260  26.252  1.00  0.00    -0.339 N 
HETATM   17  C9  UNL     1      59.932  20.206  27.488  1.00  0.00     0.182 A 
ATOM     18  H4  UNL     1      59.139  21.161  25.870  1.00  0.00     0.167 HD
HETATM   19  N5  UNL     1      60.325  19.010  28.011  1.00  0.00    -0.350 N 
ATOM     20  H5  UNL     1      60.713  18.982  28.954  1.00  0.00     0.166 HD
ENDBRANCH   5   8
BRANCH   6  21
HETATM   21  O1  UNL     1      61.906  16.670  30.951  1.00  0.00    -0.390 OA
ATOM     22  H1  UNL     1      62.426  17.456  31.064  1.00  0.00     0.210 HD
ENDBRANCH   6  21
BRANCH   1  23
HETATM   23  C2  UNL     1      58.945  14.088  31.018  1.00  0.00     0.109 C 
BRANCH  23  24
HETATM   24  S1  UNL     1      59.095  13.368  32.645  1.00  0.00    -0.171 SA
HETATM   25  C1  UNL     1      60.081  14.328  33.800  1.00  0.00     0.089 C 
ENDBRANCH  23  24
ENDBRANCH   1  23
BRANCH   7  26
HETATM   26  O2  UNL     1      59.340  16.893  31.812  1.00  0.00    -0.391 OA
ATOM     27  H2  UNL     1      59.356  17.842  31.851  1.00  0.00     0.210 HD
ENDBRANCH   7  26
TORSDOF 5
ENDMDL
