MODEL 7
REMARK VINA RESULT: -7.571256076      3.882      5.487
REMARK  3 active torsions:
REMARK  status: ('A' for Active; 'I' for Inactive)
REMARK    1  A    between atoms: C3_4  and  C4_5 
REMARK    2  A    between atoms: C4_5  and  S1_6 
REMARK    3  A    between atoms: S1_6  and  C5_7 
ROOT
HETATM    1  N1  UNL     1      18.366  17.287  21.158  1.00  0.00    -0.102 NA
HETATM    2  C1  UNL     1      17.240  17.489  20.281  1.00  0.00     0.048 A 
HETATM    3  C2  UNL     1      17.379  17.876  18.975  1.00  0.00     0.036 A 
HETATM    4  C3  UNL     1      16.257  17.844  18.170  1.00  0.00    -0.019 A 
HETATM    5  C8  UNL     1      15.005  17.457  18.580  1.00  0.00     0.057 A 
HETATM    6  N4  UNL     1      13.948  17.447  17.711  1.00  0.00    -0.329 N 
ATOM      7  H4  UNL     1      14.089  17.736  16.743  1.00  0.00     0.168 HD
HETATM    8  C9  UNL     1      12.748  17.069  18.111  1.00  0.00     0.195 A 
HETATM    9  N5  UNL     1      11.606  16.935  17.190  1.00  0.00    -0.063 NA
HETATM   10  N6  UNL     1      12.568  16.689  19.411  1.00  0.00    -0.297 N 
ATOM     11  H6  UNL     1      11.637  16.405  19.719  1.00  0.00     0.171 HD
HETATM   12  C10 UNL     1      13.604  16.678  20.320  1.00  0.00     0.260 A 
HETATM   13  O1  UNL     1      13.483  16.336  21.503  1.00  0.00    -0.267 OA
HETATM   14  C11 UNL     1      14.869  17.080  19.880  1.00  0.00     0.061 A 
HETATM   15  C12 UNL     1      15.971  17.094  20.725  1.00  0.00     0.046 A 
ENDROOT
BRANCH   4  16
HETATM   16  C4  UNL     1      16.310  18.134  16.658  1.00  0.00     0.123 C 
BRANCH  16  17
HETATM   17  S1  UNL     1      17.959  18.693  16.205  1.00  0.00    -0.089 SA
BRANCH  17  18
HETATM   18  C5  UNL     1      18.216  18.461  14.427  1.00  0.00     0.144 A 
HETATM   19  N2  UNL     1      17.446  17.807  13.539  1.00  0.00    -0.345 N 
HETATM   20  C6  UNL     1      18.073  17.871  12.318  1.00  0.00     0.107 A 
ATOM     21  H2  UNL     1      16.556  17.348  13.736  1.00  0.00     0.167 HD
HETATM   22  C7  UNL     1      19.267  18.592  12.488  1.00  0.00     0.107 A 
HETATM   23  N3  UNL     1      19.296  18.917  13.768  1.00  0.00    -0.345 N 
ATOM     24  H3  UNL     1      20.047  19.450  14.206  1.00  0.00     0.167 HD
ENDBRANCH  17  18
ENDBRANCH  16  17
ENDBRANCH   4  16
TORSDOF 3
ENDMDL
