MODEL 1
REMARK VINA RESULT: -8.619350539      0.000      0.000
REMARK  3 active torsions:
REMARK  status: ('A' for Active; 'I' for Inactive)
REMARK    1  A    between atoms: C3_4  and  C4_5 
REMARK    2  A    between atoms: C4_5  and  S1_6 
REMARK    3  A    between atoms: S1_6  and  C5_7 
ROOT
HETATM    1  N1  UNL     1      18.476  17.776  18.873  1.00  0.00    -0.102 NA
HETATM    2  C1  UNL     1      17.410  17.606  19.829  1.00  0.00     0.048 A 
HETATM    3  C2  UNL     1      16.143  17.238  19.467  1.00  0.00     0.036 A 
HETATM    4  C3  UNL     1      15.255  16.908  20.473  1.00  0.00    -0.019 A 
HETATM    5  C8  UNL     1      15.545  16.926  21.815  1.00  0.00     0.057 A 
HETATM    6  N4  UNL     1      14.605  16.574  22.745  1.00  0.00    -0.329 N 
ATOM      7  H4  UNL     1      13.672  16.299  22.440  1.00  0.00     0.168 HD
HETATM    8  C9  UNL     1      14.893  16.588  24.034  1.00  0.00     0.195 A 
HETATM    9  N5  UNL     1      13.954  16.114  25.066  1.00  0.00    -0.063 NA
HETATM   10  N6  UNL     1      16.144  16.965  24.434  1.00  0.00    -0.297 N 
ATOM     11  H6  UNL     1      16.360  16.982  25.431  1.00  0.00     0.171 HD
HETATM   12  C10 UNL     1      17.123  17.321  23.532  1.00  0.00     0.260 A 
HETATM   13  O1  UNL     1      18.269  17.662  23.854  1.00  0.00    -0.267 OA
HETATM   14  C11 UNL     1      16.804  17.299  22.171  1.00  0.00     0.061 A 
HETATM   15  C12 UNL     1      17.729  17.637  21.193  1.00  0.00     0.046 A 
ENDROOT
BRANCH   4  16
HETATM   16  C4  UNL     1      13.844  16.359  20.190  1.00  0.00     0.123 C 
BRANCH  16  17
HETATM   17  S1  UNL     1      13.960  14.902  19.140  1.00  0.00    -0.089 SA
BRANCH  17  18
HETATM   18  C5  UNL     1      13.074  15.194  17.588  1.00  0.00     0.144 A 
HETATM   19  N2  UNL     1      12.723  14.312  16.635  1.00  0.00    -0.345 N 
HETATM   20  C6  UNL     1      12.102  15.012  15.629  1.00  0.00     0.107 A 
ATOM     21  H2  UNL     1      12.887  13.305  16.656  1.00  0.00     0.167 HD
HETATM   22  C7  UNL     1      12.084  16.367  15.999  1.00  0.00     0.107 A 
HETATM   23  N3  UNL     1      12.679  16.412  17.178  1.00  0.00    -0.345 N 
ATOM     24  H3  UNL     1      12.822  17.269  17.713  1.00  0.00     0.167 HD
ENDBRANCH  17  18
ENDBRANCH  16  17
ENDBRANCH   4  16
TORSDOF 3
ENDMDL
