MODEL 11
REMARK VINA RESULT: -7.383082453      2.887      4.892
REMARK  3 active torsions:
REMARK  status: ('A' for Active; 'I' for Inactive)
REMARK    1  A    between atoms: C3_4  and  C4_5 
REMARK    2  A    between atoms: C4_5  and  S1_6 
REMARK    3  A    between atoms: S1_6  and  C5_7 
ROOT
HETATM    1  N1  UNL     1      12.349  17.965  17.009  1.00  0.00    -0.102 NA
HETATM    2  C1  UNL     1      12.798  17.409  18.261  1.00  0.00     0.048 A 
HETATM    3  C2  UNL     1      14.019  16.807  18.408  1.00  0.00     0.036 A 
HETATM    4  C3  UNL     1      14.432  16.491  19.688  1.00  0.00    -0.019 A 
HETATM    5  C8  UNL     1      13.708  16.730  20.830  1.00  0.00     0.057 A 
HETATM    6  N4  UNL     1      14.200  16.391  22.061  1.00  0.00    -0.329 N 
ATOM      7  H4  UNL     1      15.116  15.950  22.134  1.00  0.00     0.168 HD
HETATM    8  C9  UNL     1      13.500  16.629  23.156  1.00  0.00     0.195 A 
HETATM    9  N5  UNL     1      14.030  16.386  24.509  1.00  0.00    -0.063 NA
HETATM   10  N6  UNL     1      12.270  17.216  23.048  1.00  0.00    -0.297 N 
ATOM     11  H6  UNL     1      11.730  17.390  23.895  1.00  0.00     0.171 HD
HETATM   12  C10 UNL     1      11.739  17.578  21.829  1.00  0.00     0.260 A 
HETATM   13  O1  UNL     1      10.633  18.116  21.689  1.00  0.00    -0.267 OA
HETATM   14  C11 UNL     1      12.492  17.321  20.680  1.00  0.00     0.061 A 
HETATM   15  C12 UNL     1      12.038  17.658  19.411  1.00  0.00     0.046 A 
ENDROOT
BRANCH   4  16
HETATM   16  C4  UNL     1      15.833  15.929  19.994  1.00  0.00     0.123 C 
BRANCH  16  17
HETATM   17  S1  UNL     1      16.995  17.284  20.222  1.00  0.00    -0.089 SA
BRANCH  17  18
HETATM   18  C5  UNL     1      17.689  17.770  18.621  1.00  0.00     0.144 A 
HETATM   19  N2  UNL     1      17.077  18.359  17.577  1.00  0.00    -0.345 N 
HETATM   20  C6  UNL     1      18.006  18.493  16.574  1.00  0.00     0.107 A 
ATOM     21  H2  UNL     1      16.101  18.652  17.538  1.00  0.00     0.167 HD
HETATM   22  C7  UNL     1      19.220  17.962  17.040  1.00  0.00     0.107 A 
HETATM   23  N3  UNL     1      18.966  17.545  18.269  1.00  0.00    -0.345 N 
ATOM     24  H3  UNL     1      19.657  17.106  18.877  1.00  0.00     0.167 HD
ENDBRANCH  17  18
ENDBRANCH  16  17
ENDBRANCH   4  16
TORSDOF 3
ENDMDL
