MODEL 3
REMARK VINA RESULT: -8.194410884      1.083      1.083
REMARK  3 active torsions:
REMARK  status: ('A' for Active; 'I' for Inactive)
REMARK    1  A    between atoms: C3_4  and  C4_5 
REMARK    2  A    between atoms: C4_5  and  S1_6 
REMARK    3  A    between atoms: S1_6  and  C5_7 
ROOT
HETATM    1  N1  UNL     1      19.018  18.000  18.929  1.00  0.00    -0.102 NA
HETATM    2  C1  UNL     1      17.905  17.824  19.829  1.00  0.00     0.048 A 
HETATM    3  C2  UNL     1      16.643  17.522  19.394  1.00  0.00     0.036 A 
HETATM    4  C3  UNL     1      15.699  17.177  20.342  1.00  0.00    -0.019 A 
HETATM    5  C8  UNL     1      15.928  17.118  21.694  1.00  0.00     0.057 A 
HETATM    6  N4  UNL     1      14.935  16.757  22.564  1.00  0.00    -0.329 N 
ATOM      7  H4  UNL     1      14.008  16.531  22.204  1.00  0.00     0.168 HD
HETATM    8  C9  UNL     1      15.164  16.697  23.863  1.00  0.00     0.195 A 
HETATM    9  N5  UNL     1      14.163  16.208  24.828  1.00  0.00    -0.063 NA
HETATM   10  N6  UNL     1      16.409  17.006  24.336  1.00  0.00    -0.297 N 
ATOM     11  H6  UNL     1      16.579  16.966  25.341  1.00  0.00     0.171 HD
HETATM   12  C10 UNL     1      17.439  17.370  23.496  1.00  0.00     0.260 A 
HETATM   13  O1  UNL     1      18.581  17.651  23.885  1.00  0.00    -0.267 OA
HETATM   14  C11 UNL     1      17.182  17.426  22.124  1.00  0.00     0.061 A 
HETATM   15  C12 UNL     1      18.162  17.776  21.205  1.00  0.00     0.046 A 
ENDROOT
BRANCH   4  16
HETATM   16  C4  UNL     1      14.284  16.695  19.970  1.00  0.00     0.123 C 
BRANCH  16  17
HETATM   17  S1  UNL     1      14.395  15.308  18.829  1.00  0.00    -0.089 SA
BRANCH  17  18
HETATM   18  C5  UNL     1      14.264  15.906  17.125  1.00  0.00     0.144 A 
HETATM   19  N2  UNL     1      14.539  15.260  15.977  1.00  0.00    -0.345 N 
HETATM   20  C6  UNL     1      14.323  16.138  14.943  1.00  0.00     0.107 A 
ATOM     21  H2  UNL     1      14.851  14.292  15.891  1.00  0.00     0.167 HD
HETATM   22  C7  UNL     1      13.904  17.358  15.498  1.00  0.00     0.107 A 
HETATM   23  N3  UNL     1      13.889  17.157  16.805  1.00  0.00    -0.345 N 
ATOM     24  H3  UNL     1      13.623  17.865  17.489  1.00  0.00     0.167 HD
ENDBRANCH  17  18
ENDBRANCH  16  17
ENDBRANCH   4  16
TORSDOF 3
ENDMDL
