MODEL 14
REMARK VINA RESULT: -7.261679132      2.695      5.631
REMARK  3 active torsions:
REMARK  status: ('A' for Active; 'I' for Inactive)
REMARK    1  A    between atoms: C3_4  and  C4_5 
REMARK    2  A    between atoms: C4_5  and  S1_6 
REMARK    3  A    between atoms: S1_6  and  C5_7 
ROOT
HETATM    1  N1  UNL     1      14.345  17.939  15.013  1.00  0.00    -0.102 NA
HETATM    2  C1  UNL     1      15.071  17.778  16.249  1.00  0.00     0.048 A 
HETATM    3  C2  UNL     1      14.727  16.850  17.194  1.00  0.00     0.036 A 
HETATM    4  C3  UNL     1      15.602  16.642  18.242  1.00  0.00    -0.019 A 
HETATM    5  C8  UNL     1      16.795  17.300  18.414  1.00  0.00     0.057 A 
HETATM    6  N4  UNL     1      17.607  17.024  19.479  1.00  0.00    -0.329 N 
ATOM      7  H4  UNL     1      17.323  16.321  20.161  1.00  0.00     0.168 HD
HETATM    8  C9  UNL     1      18.756  17.658  19.635  1.00  0.00     0.195 A 
HETATM    9  N5  UNL     1      19.715  17.319  20.701  1.00  0.00    -0.063 NA
HETATM   10  N6  UNL     1      19.126  18.602  18.719  1.00  0.00    -0.297 N 
ATOM     11  H6  UNL     1      20.010  19.095  18.847  1.00  0.00     0.171 HD
HETATM   12  C10 UNL     1      18.342  18.908  17.628  1.00  0.00     0.260 A 
HETATM   13  O1  UNL     1      18.644  19.752  16.774  1.00  0.00    -0.267 OA
HETATM   14  C11 UNL     1      17.130  18.228  17.476  1.00  0.00     0.061 A 
HETATM   15  C12 UNL     1      16.281  18.467  16.404  1.00  0.00     0.046 A 
ENDROOT
BRANCH   4  16
HETATM   16  C4  UNL     1      15.390  15.539  19.296  1.00  0.00     0.123 C 
BRANCH  16  17
HETATM   17  S1  UNL     1      13.928  15.912  20.278  1.00  0.00    -0.089 SA
BRANCH  17  18
HETATM   18  C5  UNL     1      14.425  16.474  21.926  1.00  0.00     0.144 A 
HETATM   19  N2  UNL     1      15.611  16.965  22.331  1.00  0.00    -0.345 N 
HETATM   20  C6  UNL     1      15.518  17.217  23.678  1.00  0.00     0.107 A 
ATOM     21  H2  UNL     1      16.430  17.123  21.743  1.00  0.00     0.167 HD
HETATM   22  C7  UNL     1      14.224  16.859  24.093  1.00  0.00     0.107 A 
HETATM   23  N3  UNL     1      13.620  16.422  23.001  1.00  0.00    -0.345 N 
ATOM     24  H3  UNL     1      12.657  16.086  22.977  1.00  0.00     0.167 HD
ENDBRANCH  17  18
ENDBRANCH  16  17
ENDBRANCH   4  16
TORSDOF 3
ENDMDL
