MODEL 13
REMARK VINA RESULT: -7.342792650      1.837      2.069
REMARK  3 active torsions:
REMARK  status: ('A' for Active; 'I' for Inactive)
REMARK    1  A    between atoms: C3_4  and  C4_5 
REMARK    2  A    between atoms: C4_5  and  S1_6 
REMARK    3  A    between atoms: S1_6  and  C5_7 
ROOT
HETATM    1  N1  UNL     1      19.046  18.108  17.163  1.00  0.00    -0.102 NA
HETATM    2  C1  UNL     1      18.034  17.990  18.184  1.00  0.00     0.048 A 
HETATM    3  C2  UNL     1      16.715  17.764  17.895  1.00  0.00     0.036 A 
HETATM    4  C3  UNL     1      15.868  17.466  18.945  1.00  0.00    -0.019 A 
HETATM    5  C8  UNL     1      16.245  17.385  20.262  1.00  0.00     0.057 A 
HETATM    6  N4  UNL     1      15.339  17.075  21.239  1.00  0.00    -0.329 N 
ATOM      7  H4  UNL     1      14.365  16.906  20.988  1.00  0.00     0.168 HD
HETATM    8  C9  UNL     1      15.710  16.993  22.504  1.00  0.00     0.195 A 
HETATM    9  N5  UNL     1      14.799  16.555  23.576  1.00  0.00    -0.063 NA
HETATM   10  N6  UNL     1      17.016  17.227  22.832  1.00  0.00    -0.297 N 
ATOM     11  H6  UNL     1      17.298  17.171  23.811  1.00  0.00     0.171 HD
HETATM   12  C10 UNL     1      17.964  17.537  21.880  1.00  0.00     0.260 A 
HETATM   13  O1  UNL     1      19.157  17.750  22.136  1.00  0.00    -0.267 OA
HETATM   14  C11 UNL     1      17.555  17.618  20.546  1.00  0.00     0.061 A 
HETATM   15  C12 UNL     1      18.443  17.918  19.521  1.00  0.00     0.046 A 
ENDROOT
BRANCH   4  16
HETATM   16  C4  UNL     1      14.394  17.069  18.737  1.00  0.00     0.123 C 
BRANCH  16  17
HETATM   17  S1  UNL     1      14.305  15.551  17.775  1.00  0.00    -0.089 SA
BRANCH  17  18
HETATM   18  C5  UNL     1      14.405  15.939  16.009  1.00  0.00     0.144 A 
HETATM   19  N2  UNL     1      14.853  15.172  14.998  1.00  0.00    -0.345 N 
HETATM   20  C6  UNL     1      14.768  15.914  13.845  1.00  0.00     0.107 A 
ATOM     21  H2  UNL     1      15.192  14.213  15.074  1.00  0.00     0.167 HD
HETATM   22  C7  UNL     1      14.250  17.175  14.184  1.00  0.00     0.107 A 
HETATM   23  N3  UNL     1      14.054  17.128  15.490  1.00  0.00    -0.345 N 
ATOM     24  H3  UNL     1      13.680  17.902  16.039  1.00  0.00     0.167 HD
ENDBRANCH  17  18
ENDBRANCH  16  17
ENDBRANCH   4  16
TORSDOF 3
ENDMDL
