MODEL 1
REMARK VINA RESULT: -7.678046219      0.000      0.000
REMARK  4 active torsions:
REMARK  status: ('A' for Active; 'I' for Inactive)
REMARK    1  A    between atoms: C2_2  and  C3_3 
REMARK    2  A    between atoms: C3_3  and  S1_4 
REMARK    3  A    between atoms: S1_4  and  C4_5 
REMARK    4  A    between atoms: C4_5  and  C5_6 
ROOT
HETATM    1  C5  UNL     1      15.483  17.053  20.471  1.00  0.00    -0.019 A 
HETATM    2  C6  UNL     1      16.487  17.448  19.633  1.00  0.00     0.036 A 
HETATM    3  C7  UNL     1      17.751  17.826  20.067  1.00  0.00     0.048 A 
HETATM    4  N1  UNL     1      18.776  18.231  19.179  1.00  0.00    -0.102 NA
HETATM    5  C8  UNL     1      17.977  17.789  21.425  1.00  0.00     0.046 A 
HETATM    6  C9  UNL     1      17.007  17.400  22.328  1.00  0.00     0.061 A 
HETATM    7  C10 UNL     1      17.223  17.360  23.688  1.00  0.00     0.260 A 
HETATM    8  O1  UNL     1      18.337  17.686  24.159  1.00  0.00    -0.267 OA
HETATM    9  N2  UNL     1      16.257  16.976  24.536  1.00  0.00    -0.297 N 
ATOM     10  H2  UNL     1      16.430  16.952  25.540  1.00  0.00     0.171 HD
HETATM   11  C11 UNL     1      15.047  16.621  24.038  1.00  0.00     0.195 A 
HETATM   12  N3  UNL     1      14.008  16.213  24.895  1.00  0.00    -0.063 NA
HETATM   13  N4  UNL     1      14.846  16.665  22.698  1.00  0.00    -0.329 N 
ATOM     14  H4  UNL     1      13.930  16.394  22.340  1.00  0.00     0.168 HD
HETATM   15  C12 UNL     1      15.771  17.037  21.826  1.00  0.00     0.057 A 
ENDROOT
BRANCH   1  16
HETATM   16  C4  UNL     1      14.126  16.666  20.030  1.00  0.00     0.114 C 
BRANCH  16  17
HETATM   17  S1  UNL     1      14.061  15.415  18.767  1.00  0.00    -0.164 SA
BRANCH  17  18
HETATM   18  C3  UNL     1      12.718  15.624  17.601  1.00  0.00     0.073 C 
BRANCH  18  19
HETATM   19  C2  UNL     1      12.054  16.973  17.726  1.00  0.00     0.006 C 
HETATM   20  C1  UNL     1      12.676  18.010  16.839  1.00  0.00     0.006 C 
ENDBRANCH  18  19
ENDBRANCH  17  18
ENDBRANCH  16  17
ENDBRANCH   1  16
TORSDOF 4
ENDMDL
