MODEL 7
REMARK VINA RESULT: -7.090759533      1.089      1.247
REMARK  4 active torsions:
REMARK  status: ('A' for Active; 'I' for Inactive)
REMARK    1  A    between atoms: C2_2  and  C3_3 
REMARK    2  A    between atoms: C3_3  and  S1_4 
REMARK    3  A    between atoms: S1_4  and  C4_5 
REMARK    4  A    between atoms: C4_5  and  C5_6 
ROOT
HETATM    1  C5  UNL     1      15.474  16.981  19.787  1.00  0.00    -0.019 A 
HETATM    2  C6  UNL     1      16.375  17.211  18.787  1.00  0.00     0.036 A 
HETATM    3  C7  UNL     1      17.712  17.512  19.006  1.00  0.00     0.048 A 
HETATM    4  N1  UNL     1      18.628  17.746  17.952  1.00  0.00    -0.102 NA
HETATM    5  C8  UNL     1      18.126  17.575  20.319  1.00  0.00     0.046 A 
HETATM    6  C9  UNL     1      17.268  17.353  21.377  1.00  0.00     0.061 A 
HETATM    7  C10 UNL     1      17.672  17.414  22.694  1.00  0.00     0.260 A 
HETATM    8  O1  UNL     1      18.863  17.679  22.976  1.00  0.00    -0.267 OA
HETATM    9  N2  UNL     1      16.811  17.192  23.697  1.00  0.00    -0.297 N 
ATOM     10  H2  UNL     1      17.123  17.240  24.667  1.00  0.00     0.171 HD
HETATM   11  C11 UNL     1      15.519  16.903  23.405  1.00  0.00     0.195 A 
HETATM   12  N3  UNL     1      14.584  16.665  24.430  1.00  0.00    -0.063 NA
HETATM   13  N4  UNL     1      15.133  16.847  22.107  1.00  0.00    -0.329 N 
ATOM     14  H4  UNL     1      14.157  16.628  21.904  1.00  0.00     0.168 HD
HETATM   15  C12 UNL     1      15.950  17.059  21.085  1.00  0.00     0.057 A 
ENDROOT
BRANCH   1  16
HETATM   16  C4  UNL     1      14.042  16.678  19.574  1.00  0.00     0.114 C 
BRANCH  16  17
HETATM   17  S1  UNL     1      13.637  14.951  19.450  1.00  0.00    -0.164 SA
BRANCH  17  18
HETATM   18  C3  UNL     1      12.732  14.517  17.966  1.00  0.00     0.073 C 
BRANCH  18  19
HETATM   19  C2  UNL     1      12.779  15.609  16.926  1.00  0.00     0.006 C 
HETATM   20  C1  UNL     1      12.126  15.212  15.636  1.00  0.00     0.006 C 
ENDBRANCH  18  19
ENDBRANCH  17  18
ENDBRANCH  16  17
ENDBRANCH   1  16
TORSDOF 4
ENDMDL
