MODEL 12
REMARK VINA RESULT: -6.703731891      3.458      5.179
REMARK  4 active torsions:
REMARK  status: ('A' for Active; 'I' for Inactive)
REMARK    1  A    between atoms: C2_2  and  C3_3 
REMARK    2  A    between atoms: C3_3  and  S1_4 
REMARK    3  A    between atoms: S1_4  and  C4_5 
REMARK    4  A    between atoms: C4_5  and  C5_6 
ROOT
HETATM    1  C5  UNL     1      16.615  17.377  20.787  1.00  0.00    -0.019 A 
HETATM    2  C6  UNL     1      17.858  17.752  21.214  1.00  0.00     0.036 A 
HETATM    3  C7  UNL     1      18.853  18.226  20.371  1.00  0.00     0.048 A 
HETATM    4  N1  UNL     1      20.134  18.610  20.837  1.00  0.00    -0.102 NA
HETATM    5  C8  UNL     1      18.542  18.314  19.031  1.00  0.00     0.046 A 
HETATM    6  C9  UNL     1      17.306  17.952  18.533  1.00  0.00     0.061 A 
HETATM    7  C10 UNL     1      16.985  18.036  17.195  1.00  0.00     0.260 A 
HETATM    8  O1  UNL     1      17.828  18.455  16.370  1.00  0.00    -0.267 OA
HETATM    9  N2  UNL     1      15.774  17.676  16.746  1.00  0.00    -0.297 N 
ATOM     10  H2  UNL     1      15.549  17.743  15.754  1.00  0.00     0.171 HD
HETATM   11  C11 UNL     1      14.852  17.222  17.630  1.00  0.00     0.195 A 
HETATM   12  N3  UNL     1      13.570  16.834  17.198  1.00  0.00    -0.063 NA
HETATM   13  N4  UNL     1      15.180  17.143  18.944  1.00  0.00    -0.329 N 
ATOM     14  H4  UNL     1      14.474  16.799  19.595  1.00  0.00     0.168 HD
HETATM   15  C12 UNL     1      16.363  17.488  19.430  1.00  0.00     0.057 A 
ENDROOT
BRANCH   1  16
HETATM   16  C4  UNL     1      15.549  16.851  21.666  1.00  0.00     0.114 C 
BRANCH  16  17
HETATM   17  S1  UNL     1      15.800  17.109  23.408  1.00  0.00    -0.164 SA
BRANCH  17  18
HETATM   18  C3  UNL     1      14.390  16.668  24.422  1.00  0.00     0.073 C 
BRANCH  18  19
HETATM   19  C2  UNL     1      13.276  16.047  23.616  1.00  0.00     0.006 C 
HETATM   20  C1  UNL     1      12.208  17.032  23.246  1.00  0.00     0.006 C 
ENDBRANCH  18  19
ENDBRANCH  17  18
ENDBRANCH  16  17
ENDBRANCH   1  16
TORSDOF 4
ENDMDL
