MODEL 13
REMARK VINA RESULT: -6.693002139      3.746      4.970
REMARK  4 active torsions:
REMARK  status: ('A' for Active; 'I' for Inactive)
REMARK    1  A    between atoms: C2_2  and  C3_3 
REMARK    2  A    between atoms: C3_3  and  S1_4 
REMARK    3  A    between atoms: S1_4  and  C4_5 
REMARK    4  A    between atoms: C4_5  and  C5_6 
ROOT
HETATM    1  C5  UNL     1      15.979  17.865  17.262  1.00  0.00    -0.019 A 
HETATM    2  C6  UNL     1      17.148  17.817  17.967  1.00  0.00     0.036 A 
HETATM    3  C7  UNL     1      17.272  17.225  19.216  1.00  0.00     0.048 A 
HETATM    4  N1  UNL     1      18.496  17.186  19.928  1.00  0.00    -0.102 NA
HETATM    5  C8  UNL     1      16.135  16.661  19.752  1.00  0.00     0.046 A 
HETATM    6  C9  UNL     1      14.921  16.675  19.093  1.00  0.00     0.061 A 
HETATM    7  C10 UNL     1      13.777  16.114  19.619  1.00  0.00     0.260 A 
HETATM    8  O1  UNL     1      13.807  15.560  20.742  1.00  0.00    -0.267 OA
HETATM    9  N2  UNL     1      12.615  16.146  18.951  1.00  0.00    -0.297 N 
ATOM     10  H2  UNL     1      11.777  15.727  19.352  1.00  0.00     0.171 HD
HETATM   11  C11 UNL     1      12.572  16.742  17.734  1.00  0.00     0.195 A 
HETATM   12  N3  UNL     1      11.370  16.796  17.001  1.00  0.00    -0.063 NA
HETATM   13  N4  UNL     1      13.702  17.290  17.227  1.00  0.00    -0.329 N 
ATOM     14  H4  UNL     1      13.652  17.736  16.310  1.00  0.00     0.168 HD
HETATM   15  C12 UNL     1      14.870  17.282  17.852  1.00  0.00     0.057 A 
ENDROOT
BRANCH   1  16
HETATM   16  C4  UNL     1      15.822  18.508  15.940  1.00  0.00     0.114 C 
BRANCH  16  17
HETATM   17  S1  UNL     1      17.016  18.027  14.711  1.00  0.00    -0.164 SA
BRANCH  17  18
HETATM   18  C3  UNL     1      16.392  16.858  13.506  1.00  0.00     0.073 C 
BRANCH  18  19
HETATM   19  C2  UNL     1      14.894  16.699  13.583  1.00  0.00     0.006 C 
HETATM   20  C1  UNL     1      14.479  15.430  14.266  1.00  0.00     0.006 C 
ENDBRANCH  18  19
ENDBRANCH  17  18
ENDBRANCH  16  17
ENDBRANCH   1  16
TORSDOF 4
ENDMDL
