MODEL 5
REMARK VINA RESULT: -7.136661796      1.474      1.947
REMARK  4 active torsions:
REMARK  status: ('A' for Active; 'I' for Inactive)
REMARK    1  A    between atoms: C2_2  and  C3_3 
REMARK    2  A    between atoms: C3_3  and  S1_4 
REMARK    3  A    between atoms: S1_4  and  C4_5 
REMARK    4  A    between atoms: C4_5  and  C5_6 
ROOT
HETATM    1  C5  UNL     1      15.516  17.128  19.547  1.00  0.00    -0.019 A 
HETATM    2  C6  UNL     1      15.946  17.417  18.283  1.00  0.00     0.036 A 
HETATM    3  C7  UNL     1      17.226  17.868  17.988  1.00  0.00     0.048 A 
HETATM    4  N1  UNL     1      17.650  18.160  16.669  1.00  0.00    -0.102 NA
HETATM    5  C8  UNL     1      18.090  18.022  19.050  1.00  0.00     0.046 A 
HETATM    6  C9  UNL     1      17.720  17.747  20.352  1.00  0.00     0.061 A 
HETATM    7  C10 UNL     1      18.576  17.899  21.421  1.00  0.00     0.260 A 
HETATM    8  O1  UNL     1      19.748  18.301  21.238  1.00  0.00    -0.267 OA
HETATM    9  N2  UNL     1      18.182  17.622  22.673  1.00  0.00    -0.297 N 
ATOM     10  H2  UNL     1      18.826  17.738  23.455  1.00  0.00     0.171 HD
HETATM   11  C11 UNL     1      16.916  17.186  22.884  1.00  0.00     0.195 A 
HETATM   12  N3  UNL     1      16.465  16.885  24.183  1.00  0.00    -0.063 NA
HETATM   13  N4  UNL     1      16.083  17.041  21.824  1.00  0.00    -0.329 N 
ATOM     14  H4  UNL     1      15.133  16.712  22.001  1.00  0.00     0.168 HD
HETATM   15  C12 UNL     1      16.430  17.303  20.573  1.00  0.00     0.057 A 
ENDROOT
BRANCH   1  16
HETATM   16  C4  UNL     1      14.152  16.665  19.884  1.00  0.00     0.114 C 
BRANCH  16  17
HETATM   17  S1  UNL     1      13.582  15.243  18.979  1.00  0.00    -0.164 SA
BRANCH  17  18
HETATM   18  C3  UNL     1      12.540  15.639  17.578  1.00  0.00     0.073 C 
BRANCH  18  19
HETATM   19  C2  UNL     1      12.057  17.068  17.608  1.00  0.00     0.006 C 
HETATM   20  C1  UNL     1      12.736  17.932  16.587  1.00  0.00     0.006 C 
ENDBRANCH  18  19
ENDBRANCH  17  18
ENDBRANCH  16  17
ENDBRANCH   1  16
TORSDOF 4
ENDMDL
