MODEL 2
REMARK VINA RESULT: -7.506882390      0.949      1.504
REMARK  4 active torsions:
REMARK  status: ('A' for Active; 'I' for Inactive)
REMARK    1  A    between atoms: C2_2  and  C3_3 
REMARK    2  A    between atoms: C3_3  and  S1_4 
REMARK    3  A    between atoms: S1_4  and  C4_5 
REMARK    4  A    between atoms: C4_5  and  C5_6 
ROOT
HETATM    1  C5  UNL     1      15.488  17.150  20.501  1.00  0.00    -0.019 A 
HETATM    2  C6  UNL     1      16.503  17.515  19.663  1.00  0.00     0.036 A 
HETATM    3  C7  UNL     1      17.790  17.811  20.093  1.00  0.00     0.048 A 
HETATM    4  N1  UNL     1      18.827  18.186  19.205  1.00  0.00    -0.102 NA
HETATM    5  C8  UNL     1      18.027  17.723  21.447  1.00  0.00     0.046 A 
HETATM    6  C9  UNL     1      17.046  17.360  22.348  1.00  0.00     0.061 A 
HETATM    7  C10 UNL     1      17.273  17.269  23.705  1.00  0.00     0.260 A 
HETATM    8  O1  UNL     1      18.407  17.520  24.172  1.00  0.00    -0.267 OA
HETATM    9  N2  UNL     1      16.296  16.913  24.552  1.00  0.00    -0.297 N 
ATOM     10  H2  UNL     1      16.478  16.849  25.553  1.00  0.00     0.171 HD
HETATM   11  C11 UNL     1      15.064  16.638  24.058  1.00  0.00     0.195 A 
HETATM   12  N3  UNL     1      14.012  16.261  24.914  1.00  0.00    -0.063 NA
HETATM   13  N4  UNL     1      14.852  16.732  22.722  1.00  0.00    -0.329 N 
ATOM     14  H4  UNL     1      13.919  16.522  22.367  1.00  0.00     0.168 HD
HETATM   15  C12 UNL     1      15.788  17.079  21.851  1.00  0.00     0.057 A 
ENDROOT
BRANCH   1  16
HETATM   16  C4  UNL     1      14.107  16.850  20.064  1.00  0.00     0.114 C 
BRANCH  16  17
HETATM   17  S1  UNL     1      13.864  16.763  18.304  1.00  0.00    -0.164 SA
BRANCH  17  18
HETATM   18  C3  UNL     1      13.216  15.193  17.733  1.00  0.00     0.073 C 
BRANCH  18  19
HETATM   19  C2  UNL     1      13.118  14.176  18.843  1.00  0.00     0.006 C 
HETATM   20  C1  UNL     1      14.460  13.709  19.323  1.00  0.00     0.006 C 
ENDBRANCH  18  19
ENDBRANCH  17  18
ENDBRANCH  16  17
ENDBRANCH   1  16
TORSDOF 4
ENDMDL
