MODEL 3
REMARK VINA RESULT: -7.491278276      1.163      1.247
REMARK  4 active torsions:
REMARK  status: ('A' for Active; 'I' for Inactive)
REMARK    1  A    between atoms: C2_2  and  C3_3 
REMARK    2  A    between atoms: C3_3  and  S1_4 
REMARK    3  A    between atoms: S1_4  and  C4_5 
REMARK    4  A    between atoms: C4_5  and  C5_6 
ROOT
HETATM    1  C5  UNL     1      14.909  16.789  20.070  1.00  0.00    -0.019 A 
HETATM    2  C6  UNL     1      15.983  17.217  19.341  1.00  0.00     0.036 A 
HETATM    3  C7  UNL     1      17.175  17.649  19.906  1.00  0.00     0.048 A 
HETATM    4  N1  UNL     1      18.275  18.087  19.130  1.00  0.00    -0.102 NA
HETATM    5  C8  UNL     1      17.252  17.634  21.281  1.00  0.00     0.046 A 
HETATM    6  C9  UNL     1      16.204  17.213  22.077  1.00  0.00     0.061 A 
HETATM    7  C10 UNL     1      16.271  17.195  23.453  1.00  0.00     0.260 A 
HETATM    8  O1  UNL     1      17.312  17.569  24.039  1.00  0.00    -0.267 OA
HETATM    9  N2  UNL     1      15.233  16.779  24.195  1.00  0.00    -0.297 N 
ATOM     10  H2  UNL     1      15.296  16.771  25.213  1.00  0.00     0.171 HD
HETATM   11  C11 UNL     1      14.101  16.371  23.572  1.00  0.00     0.195 A 
HETATM   12  N3  UNL     1      12.990  15.928  24.315  1.00  0.00    -0.063 NA
HETATM   13  N4  UNL     1      14.047  16.394  22.218  1.00  0.00    -0.329 N 
ATOM     14  H4  UNL     1      13.186  16.084  21.766  1.00  0.00     0.168 HD
HETATM   15  C12 UNL     1      15.047  16.797  21.448  1.00  0.00     0.057 A 
ENDROOT
BRANCH   1  16
HETATM   16  C4  UNL     1      13.624  16.343  19.488  1.00  0.00     0.114 C 
BRANCH  16  17
HETATM   17  S1  UNL     1      13.636  16.071  17.730  1.00  0.00    -0.164 SA
BRANCH  17  18
HETATM   18  C3  UNL     1      12.419  14.883  17.167  1.00  0.00     0.073 C 
BRANCH  18  19
HETATM   19  C2  UNL     1      12.133  15.012  15.691  1.00  0.00     0.006 C 
HETATM   20  C1  UNL     1      11.546  16.344  15.328  1.00  0.00     0.006 C 
ENDBRANCH  18  19
ENDBRANCH  17  18
ENDBRANCH  16  17
ENDBRANCH   1  16
TORSDOF 4
ENDMDL
