MODEL 14
REMARK VINA RESULT: -6.633502149      3.217      4.565
REMARK  4 active torsions:
REMARK  status: ('A' for Active; 'I' for Inactive)
REMARK    1  A    between atoms: C2_2  and  C3_3 
REMARK    2  A    between atoms: C3_3  and  S1_4 
REMARK    3  A    between atoms: S1_4  and  C4_5 
REMARK    4  A    between atoms: C4_5  and  C5_6 
ROOT
HETATM    1  C5  UNL     1      15.230  17.458  17.792  1.00  0.00    -0.019 A 
HETATM    2  C6  UNL     1      13.970  17.320  17.282  1.00  0.00     0.036 A 
HETATM    3  C7  UNL     1      12.867  16.951  18.040  1.00  0.00     0.048 A 
HETATM    4  N1  UNL     1      11.570  16.815  17.489  1.00  0.00    -0.102 NA
HETATM    5  C8  UNL     1      13.085  16.717  19.380  1.00  0.00     0.046 A 
HETATM    6  C9  UNL     1      14.332  16.839  19.960  1.00  0.00     0.061 A 
HETATM    7  C10 UNL     1      14.561  16.607  21.299  1.00  0.00     0.260 A 
HETATM    8  O1  UNL     1      13.618  16.270  22.050  1.00  0.00    -0.267 OA
HETATM    9  N2  UNL     1      15.787  16.735  21.828  1.00  0.00    -0.297 N 
ATOM     10  H2  UNL     1      15.942  16.561  22.821  1.00  0.00     0.171 HD
HETATM   11  C11 UNL     1      16.816  17.100  21.025  1.00  0.00     0.195 A 
HETATM   12  N3  UNL     1      18.117  17.245  21.543  1.00  0.00    -0.063 NA
HETATM   13  N4  UNL     1      16.579  17.325  19.709  1.00  0.00    -0.329 N 
ATOM     14  H4  UNL     1      17.365  17.598  19.119  1.00  0.00     0.168 HD
HETATM   15  C12 UNL     1      15.385  17.210  19.146  1.00  0.00     0.057 A 
ENDROOT
BRANCH   1  16
HETATM   16  C4  UNL     1      16.420  17.832  16.998  1.00  0.00     0.114 C 
BRANCH  16  17
HETATM   17  S1  UNL     1      16.083  18.487  15.379  1.00  0.00    -0.164 SA
BRANCH  17  18
HETATM   18  C3  UNL     1      16.480  17.365  14.040  1.00  0.00     0.073 C 
BRANCH  18  19
HETATM   19  C2  UNL     1      15.251  16.721  13.449  1.00  0.00     0.006 C 
HETATM   20  C1  UNL     1      14.808  15.507  14.212  1.00  0.00     0.006 C 
ENDBRANCH  18  19
ENDBRANCH  17  18
ENDBRANCH  16  17
ENDBRANCH   1  16
TORSDOF 4
ENDMDL
