MODEL 2
REMARK VINA RESULT: -10.164772376      1.709      2.187
REMARK  14 active torsions:
REMARK  status: ('A' for Active; 'I' for Inactive)
REMARK    1  A    between atoms: C2_2  and  N1_5 
REMARK       I    between atoms: N1_5  and  C5_7 
REMARK    2  A    between atoms: C5_7  and  C6_9 
REMARK    3  A    between atoms: N2_11  and  C8_12 
REMARK    4  A    between atoms: C8_12  and  C9_13 
REMARK    5  A    between atoms: N4_22  and  C16_23 
REMARK    6  A    between atoms: C16_23  and  C17_24 
REMARK    7  A    between atoms: C17_24  and  O2_25 
REMARK    8  A    between atoms: C17_24  and  C18_27 
REMARK    9  A    between atoms: C18_27  and  C19_28 
REMARK   10  A    between atoms: C19_28  and  C20_29 
REMARK   11  A    between atoms: C19_28  and  C27_36 
REMARK   12  A    between atoms: C20_29  and  C21_30 
REMARK       I    between atoms: C27_36  and  N5_38 
REMARK   13  A    between atoms: N5_38  and  C28_40 
REMARK   14  A    between atoms: C36_48  and  O4_49 
ROOT
HETATM    1  C17 UNL     1       3.413  -2.776  16.049  1.00  0.00     0.147 C 
ENDROOT
BRANCH   1   2
HETATM    2  C16 UNL     1       3.252  -4.238  16.361  1.00  0.00     0.305 C 
BRANCH   2   3
HETATM    3  N4  UNL     1       4.449  -5.005  16.372  1.00  0.00     0.108 N 
HETATM    4  C6  UNL     1       5.046  -5.277  17.633  1.00  0.00     0.342 C 
HETATM    5  C7  UNL     1       4.468  -6.430  18.371  1.00  0.00     0.318 C 
HETATM    6  N2  UNL     1       4.144  -7.587  17.604  1.00  0.00     0.097 N 
HETATM    7  C14 UNL     1       3.445  -7.242  16.380  1.00  0.00     0.303 C 
HETATM    8  C15 UNL     1       4.214  -6.222  15.614  1.00  0.00     0.303 C 
BRANCH   4   9
HETATM    9  C5  UNL     1       6.537  -5.407  17.422  1.00  0.00     0.253 C 
HETATM   10  N1  UNL     1       7.076  -5.293  16.113  1.00  0.00    -0.351 N 
ATOM     11  H1  UNL     1       6.458  -5.120  15.320  1.00  0.00     0.163 HD
HETATM   12  O1  UNL     1       7.305  -5.618  18.396  1.00  0.00    -0.271 OA
BRANCH  10  13
HETATM   13  C2  UNL     1       8.502  -5.422  15.904  1.00  0.00     0.022 C 
HETATM   14  C1  UNL     1       9.256  -4.310  16.590  1.00  0.00     0.037 C 
HETATM   15  C3  UNL     1       8.791  -5.322  14.413  1.00  0.00     0.037 C 
HETATM   16  C4  UNL     1       9.015  -6.763  16.412  1.00  0.00     0.037 C 
ENDBRANCH  10  13
ENDBRANCH   4   9
BRANCH   6  17
HETATM   17  C8  UNL     1       5.222  -8.503  17.379  1.00  0.00     0.312 C 
BRANCH  17  18
HETATM   18  C9  UNL     1       4.649  -9.866  17.089  1.00  0.00    -0.015 A 
HETATM   19  C10 UNL     1       4.975 -10.538  15.936  1.00  0.00     0.011 A 
HETATM   20  C11 UNL     1       4.447 -11.776  15.686  1.00  0.00     0.018 A 
HETATM   21  C12 UNL     1       3.587 -12.342  16.594  1.00  0.00     0.087 A 
HETATM   22  N3  UNL     1       3.266 -11.688  17.723  1.00  0.00    -0.375 N 
HETATM   23  C13 UNL     1       3.783 -10.466  17.977  1.00  0.00     0.096 A 
ATOM     24  H3  UNL     1       2.627 -12.116  18.393  1.00  0.00     0.164 HD
ENDBRANCH  17  18
ENDBRANCH   6  17
ENDBRANCH   2   3
ENDBRANCH   1   2
BRANCH   1  25
HETATM   25  O2  UNL     1       3.984  -2.206  17.219  1.00  0.00    -0.394 OA
ATOM     26  H2  UNL     1       3.320  -2.300  17.891  1.00  0.00     0.210 HD
ENDBRANCH   1  25
BRANCH   1  27
HETATM   27  C18 UNL     1       4.470  -2.574  14.991  1.00  0.00     0.047 C 
BRANCH  27  28
HETATM   28  C19 UNL     1       4.079  -1.644  13.872  1.00  0.00     0.084 C 
BRANCH  28  29
HETATM   29  C20 UNL     1       3.289  -0.480  14.280  1.00  0.00     0.052 C 
BRANCH  29  30
HETATM   30  C21 UNL     1       2.093  -0.186  13.479  1.00  0.00    -0.057 A 
HETATM   31  C22 UNL     1       0.865  -0.576  14.027  1.00  0.00     0.007 A 
HETATM   32  C23 UNL     1      -0.334  -0.322  13.388  1.00  0.00     0.001 A 
HETATM   33  C24 UNL     1      -0.358   0.331  12.175  1.00  0.00     0.000 A 
HETATM   34  C25 UNL     1       0.846   0.718  11.629  1.00  0.00     0.001 A 
HETATM   35  C26 UNL     1       2.063   0.464  12.273  1.00  0.00     0.007 A 
ENDBRANCH  29  30
ENDBRANCH  28  29
BRANCH  28  36
HETATM   36  C27 UNL     1       5.207  -1.308  13.001  1.00  0.00     0.222 C 
HETATM   37  O3  UNL     1       5.504  -1.997  12.017  1.00  0.00    -0.273 OA
HETATM   38  N5  UNL     1       6.032  -0.166  13.232  1.00  0.00    -0.350 N 
ATOM     39  H5  UNL     1       5.833   0.440  14.028  1.00  0.00     0.163 HD
BRANCH  38  40
HETATM   40  C28 UNL     1       7.131   0.146  12.371  1.00  0.00     0.147 C 
HETATM   41  C29 UNL     1       6.937   1.388  11.608  1.00  0.00    -0.027 A 
HETATM   42  C30 UNL     1       6.287   1.630  10.424  1.00  0.00     0.010 A 
HETATM   43  C34 UNL     1       7.544   2.423  12.276  1.00  0.00    -0.047 A 
HETATM   44  C31 UNL     1       6.237   2.897   9.898  1.00  0.00     0.001 A 
HETATM   45  C32 UNL     1       6.855   3.926  10.585  1.00  0.00     0.001 A 
HETATM   46  C33 UNL     1       7.523   3.716  11.791  1.00  0.00     0.008 A 
HETATM   47  C35 UNL     1       8.181   1.915  13.530  1.00  0.00     0.073 C 
HETATM   48  C36 UNL     1       8.342   0.437  13.241  1.00  0.00     0.149 C 
BRANCH  48  49
HETATM   49  O4  UNL     1       8.178  -0.250  14.430  1.00  0.00    -0.393 OA
ATOM     50  H4  UNL     1       9.042  -0.472  14.755  1.00  0.00     0.210 HD
ENDBRANCH  48  49
ENDBRANCH  38  40
ENDBRANCH  28  36
ENDBRANCH  27  28
ENDBRANCH   1  27
TORSDOF 14
ENDMDL
