MODEL 11
REMARK VINA RESULT: -9.638046894      2.491      4.893
REMARK  14 active torsions:
REMARK  status: ('A' for Active; 'I' for Inactive)
REMARK    1  A    between atoms: C2_2  and  N1_5 
REMARK       I    between atoms: N1_5  and  C5_7 
REMARK    2  A    between atoms: C5_7  and  C6_9 
REMARK    3  A    between atoms: N2_11  and  C8_12 
REMARK    4  A    between atoms: C8_12  and  C9_13 
REMARK    5  A    between atoms: N4_22  and  C16_23 
REMARK    6  A    between atoms: C16_23  and  C17_24 
REMARK    7  A    between atoms: C17_24  and  O2_25 
REMARK    8  A    between atoms: C17_24  and  C18_27 
REMARK    9  A    between atoms: C18_27  and  C19_28 
REMARK   10  A    between atoms: C19_28  and  C20_29 
REMARK   11  A    between atoms: C19_28  and  C27_36 
REMARK   12  A    between atoms: C20_29  and  C21_30 
REMARK       I    between atoms: C27_36  and  N5_38 
REMARK   13  A    between atoms: N5_38  and  C28_40 
REMARK   14  A    between atoms: C36_48  and  O4_49 
ROOT
HETATM    1  C17 UNL     1       4.823  -0.806  15.603  1.00  0.00     0.147 C 
ENDROOT
BRANCH   1   2
HETATM    2  C16 UNL     1       4.149  -2.146  15.699  1.00  0.00     0.305 C 
BRANCH   2   3
HETATM    3  N4  UNL     1       5.002  -3.279  15.593  1.00  0.00     0.108 N 
HETATM    4  C6  UNL     1       5.393  -3.924  16.798  1.00  0.00     0.342 C 
HETATM    5  C7  UNL     1       4.408  -4.894  17.344  1.00  0.00     0.318 C 
HETATM    6  N2  UNL     1       3.747  -5.738  16.405  1.00  0.00     0.097 N 
HETATM    7  C14 UNL     1       3.283  -4.994  15.248  1.00  0.00     0.303 C 
HETATM    8  C15 UNL     1       4.402  -4.210  14.653  1.00  0.00     0.303 C 
BRANCH   4   9
HETATM    9  C5  UNL     1       6.754  -4.539  16.573  1.00  0.00     0.253 C 
HETATM   10  N1  UNL     1       7.768  -3.789  15.919  1.00  0.00    -0.351 N 
ATOM     11  H1  UNL     1       7.575  -2.837  15.605  1.00  0.00     0.163 HD
HETATM   12  O1  UNL     1       7.000  -5.712  16.959  1.00  0.00    -0.271 OA
BRANCH  10  13
HETATM   13  C2  UNL     1       9.072  -4.374  15.696  1.00  0.00     0.022 C 
HETATM   14  C1  UNL     1       9.647  -4.925  16.977  1.00  0.00     0.037 C 
HETATM   15  C3  UNL     1      10.017  -3.291  15.197  1.00  0.00     0.037 C 
HETATM   16  C4  UNL     1       9.008  -5.485  14.657  1.00  0.00     0.037 C 
ENDBRANCH  10  13
ENDBRANCH   4   9
BRANCH   6  17
HETATM   17  C8  UNL     1       4.451  -6.932  16.043  1.00  0.00     0.312 C 
BRANCH  17  18
HETATM   18  C9  UNL     1       3.647  -8.125  16.493  1.00  0.00    -0.015 A 
HETATM   19  C10 UNL     1       2.797  -8.037  17.568  1.00  0.00     0.011 A 
HETATM   20  C11 UNL     1       2.072  -9.128  17.965  1.00  0.00     0.018 A 
HETATM   21  C12 UNL     1       2.200 -10.312  17.283  1.00  0.00     0.087 A 
HETATM   22  N3  UNL     1       3.031 -10.402  16.230  1.00  0.00    -0.375 N 
HETATM   23  C13 UNL     1       3.749  -9.329  15.832  1.00  0.00     0.096 A 
ATOM     24  H3  UNL     1       3.120 -11.285  15.728  1.00  0.00     0.164 HD
ENDBRANCH  17  18
ENDBRANCH   6  17
ENDBRANCH   2   3
ENDBRANCH   1   2
BRANCH   1  25
HETATM   25  O2  UNL     1       5.293  -0.530  16.915  1.00  0.00    -0.394 OA
ATOM     26  H2  UNL     1       5.375  -1.379  17.333  1.00  0.00     0.210 HD
ENDBRANCH   1  25
BRANCH   1  27
HETATM   27  C18 UNL     1       6.082  -0.906  14.776  1.00  0.00     0.047 C 
BRANCH  27  28
HETATM   28  C19 UNL     1       6.176   0.078  13.640  1.00  0.00     0.084 C 
BRANCH  28  29
HETATM   29  C20 UNL     1       7.518   0.257  13.083  1.00  0.00     0.052 C 
BRANCH  29  30
HETATM   30  C21 UNL     1       7.657   1.255  12.014  1.00  0.00    -0.057 A 
HETATM   31  C22 UNL     1       7.473   2.593  12.382  1.00  0.00     0.007 A 
HETATM   32  C23 UNL     1       7.613   3.626  11.476  1.00  0.00     0.001 A 
HETATM   33  C24 UNL     1       7.943   3.368  10.163  1.00  0.00     0.000 A 
HETATM   34  C25 UNL     1       8.126   2.054   9.792  1.00  0.00     0.001 A 
HETATM   35  C26 UNL     1       7.986   1.004  10.708  1.00  0.00     0.007 A 
ENDBRANCH  29  30
ENDBRANCH  28  29
BRANCH  28  36
HETATM   36  C27 UNL     1       5.145  -0.138  12.623  1.00  0.00     0.222 C 
HETATM   37  O3  UNL     1       5.060  -1.196  11.988  1.00  0.00    -0.273 OA
HETATM   38  N5  UNL     1       4.174   0.860  12.302  1.00  0.00    -0.350 N 
ATOM     39  H5  UNL     1       4.194   1.753  12.794  1.00  0.00     0.163 HD
BRANCH  38  40
HETATM   40  C28 UNL     1       3.175   0.631  11.303  1.00  0.00     0.147 C 
HETATM   41  C29 UNL     1       1.803   0.714  11.825  1.00  0.00    -0.027 A 
HETATM   42  C30 UNL     1       1.014  -0.221  12.446  1.00  0.00     0.010 A 
HETATM   43  C34 UNL     1       1.317   1.979  11.607  1.00  0.00    -0.047 A 
HETATM   44  C31 UNL     1      -0.258   0.094  12.852  1.00  0.00     0.001 A 
HETATM   45  C32 UNL     1      -0.731   1.374  12.625  1.00  0.00     0.001 A 
HETATM   46  C33 UNL     1       0.044   2.349  11.997  1.00  0.00     0.008 A 
HETATM   47  C35 UNL     1       2.352   2.812  10.921  1.00  0.00     0.073 C 
HETATM   48  C36 UNL     1       3.251   1.766  10.295  1.00  0.00     0.149 C 
BRANCH  48  49
HETATM   49  O4  UNL     1       4.546   2.253  10.310  1.00  0.00    -0.393 OA
ATOM     50  H4  UNL     1       4.533   3.088  10.764  1.00  0.00     0.210 HD
ENDBRANCH  48  49
ENDBRANCH  38  40
ENDBRANCH  28  36
ENDBRANCH  27  28
ENDBRANCH   1  27
TORSDOF 14
ENDMDL
