MODEL 1
REMARK VINA RESULT: -10.276251330      0.000      0.000
REMARK  14 active torsions:
REMARK  status: ('A' for Active; 'I' for Inactive)
REMARK    1  A    between atoms: C2_2  and  N1_5 
REMARK       I    between atoms: N1_5  and  C5_7 
REMARK    2  A    between atoms: C5_7  and  C6_9 
REMARK    3  A    between atoms: N2_11  and  C8_12 
REMARK    4  A    between atoms: C8_12  and  C9_13 
REMARK    5  A    between atoms: N4_22  and  C16_23 
REMARK    6  A    between atoms: C16_23  and  C17_24 
REMARK    7  A    between atoms: C17_24  and  O2_25 
REMARK    8  A    between atoms: C17_24  and  C18_27 
REMARK    9  A    between atoms: C18_27  and  C19_28 
REMARK   10  A    between atoms: C19_28  and  C20_29 
REMARK   11  A    between atoms: C19_28  and  C27_36 
REMARK   12  A    between atoms: C20_29  and  C21_30 
REMARK       I    between atoms: C27_36  and  N5_38 
REMARK   13  A    between atoms: N5_38  and  C28_40 
REMARK   14  A    between atoms: C36_48  and  O4_49 
ROOT
HETATM    1  C17 UNL     1       3.241  -3.106  16.512  1.00  0.00     0.147 C 
ENDROOT
BRANCH   1   2
HETATM    2  C16 UNL     1       3.513  -4.528  16.916  1.00  0.00     0.305 C 
BRANCH   2   3
HETATM    3  N4  UNL     1       4.738  -5.082  16.453  1.00  0.00     0.108 N 
HETATM    4  C6  UNL     1       5.853  -5.042  17.332  1.00  0.00     0.342 C 
HETATM    5  C7  UNL     1       5.904  -6.134  18.339  1.00  0.00     0.318 C 
HETATM    6  N2  UNL     1       5.546  -7.440  17.891  1.00  0.00     0.097 N 
HETATM    7  C14 UNL     1       4.340  -7.418  17.084  1.00  0.00     0.303 C 
HETATM    8  C15 UNL     1       4.474  -6.429  15.978  1.00  0.00     0.303 C 
BRANCH   4   9
HETATM    9  C5  UNL     1       7.105  -4.966  16.490  1.00  0.00     0.253 C 
HETATM   10  N1  UNL     1       8.366  -5.267  17.072  1.00  0.00    -0.351 N 
ATOM     11  H1  UNL     1       8.423  -5.537  18.054  1.00  0.00     0.163 HD
HETATM   12  O1  UNL     1       7.043  -4.635  15.278  1.00  0.00    -0.271 OA
BRANCH  10  13
HETATM   13  C2  UNL     1       9.569  -5.190  16.272  1.00  0.00     0.022 C 
HETATM   14  C1  UNL     1       9.467  -6.067  15.050  1.00  0.00     0.037 C 
HETATM   15  C3  UNL     1      10.742  -5.692  17.102  1.00  0.00     0.037 C 
HETATM   16  C4  UNL     1       9.853  -3.758  15.840  1.00  0.00     0.037 C 
ENDBRANCH  10  13
ENDBRANCH   4   9
BRANCH   6  17
HETATM   17  C8  UNL     1       6.600  -8.195  17.282  1.00  0.00     0.312 C 
BRANCH  17  18
HETATM   18  C9  UNL     1       7.267  -9.037  18.340  1.00  0.00    -0.015 A 
HETATM   19  C10 UNL     1       6.653 -10.160  18.838  1.00  0.00     0.011 A 
HETATM   20  C11 UNL     1       7.271 -10.915  19.798  1.00  0.00     0.018 A 
HETATM   21  C12 UNL     1       8.507 -10.542  20.262  1.00  0.00     0.087 A 
HETATM   22  N3  UNL     1       9.111  -9.443  19.778  1.00  0.00    -0.375 N 
HETATM   23  C13 UNL     1       8.507  -8.693  18.830  1.00  0.00     0.096 A 
ATOM     24  H3  UNL     1      10.030  -9.173  20.128  1.00  0.00     0.164 HD
ENDBRANCH  17  18
ENDBRANCH   6  17
ENDBRANCH   2   3
ENDBRANCH   1   2
BRANCH   1  25
HETATM   25  O2  UNL     1       3.437  -2.339  17.692  1.00  0.00    -0.394 OA
ATOM     26  H2  UNL     1       2.585  -2.303  18.110  1.00  0.00     0.210 HD
ENDBRANCH   1  25
BRANCH   1  27
HETATM   27  C18 UNL     1       4.312  -2.610  15.572  1.00  0.00     0.047 C 
BRANCH  27  28
HETATM   28  C19 UNL     1       3.804  -1.861  14.368  1.00  0.00     0.084 C 
BRANCH  28  29
HETATM   29  C20 UNL     1       2.941  -0.715  14.668  1.00  0.00     0.052 C 
BRANCH  29  30
HETATM   30  C21 UNL     1       1.967  -0.338  13.636  1.00  0.00    -0.057 A 
HETATM   31  C22 UNL     1       0.618  -0.542  13.949  1.00  0.00     0.007 A 
HETATM   32  C23 UNL     1      -0.395  -0.193  13.075  1.00  0.00     0.001 A 
HETATM   33  C24 UNL     1      -0.104   0.372  11.853  1.00  0.00     0.000 A 
HETATM   34  C25 UNL     1       1.221   0.576  11.537  1.00  0.00     0.001 A 
HETATM   35  C26 UNL     1       2.250   0.225  12.420  1.00  0.00     0.007 A 
ENDBRANCH  29  30
ENDBRANCH  28  29
BRANCH  28  36
HETATM   36  C27 UNL     1       4.864  -1.557  13.406  1.00  0.00     0.222 C 
HETATM   37  O3  UNL     1       5.030  -2.225  12.378  1.00  0.00    -0.273 OA
HETATM   38  N5  UNL     1       5.772  -0.470  13.594  1.00  0.00    -0.350 N 
ATOM     39  H5  UNL     1       5.682   0.118  14.422  1.00  0.00     0.163 HD
BRANCH  38  40
HETATM   40  C28 UNL     1       6.803  -0.189  12.643  1.00  0.00     0.147 C 
HETATM   41  C29 UNL     1       6.585   1.062  11.902  1.00  0.00    -0.027 A 
HETATM   42  C30 UNL     1       5.846   1.330  10.777  1.00  0.00     0.010 A 
HETATM   43  C34 UNL     1       7.280   2.074  12.518  1.00  0.00    -0.047 A 
HETATM   44  C31 UNL     1       5.792   2.600  10.260  1.00  0.00     0.001 A 
HETATM   45  C32 UNL     1       6.498   3.607  10.895  1.00  0.00     0.001 A 
HETATM   46  C33 UNL     1       7.259   3.370  12.039  1.00  0.00     0.008 A 
HETATM   47  C35 UNL     1       8.004   1.540  13.712  1.00  0.00     0.073 C 
HETATM   48  C36 UNL     1       8.092   0.059  13.408  1.00  0.00     0.149 C 
BRANCH  48  49
HETATM   49  O4  UNL     1       8.008  -0.628  14.605  1.00  0.00    -0.393 OA
ATOM     50  H4  UNL     1       8.649  -0.253  15.197  1.00  0.00     0.210 HD
ENDBRANCH  48  49
ENDBRANCH  38  40
ENDBRANCH  28  36
ENDBRANCH  27  28
ENDBRANCH   1  27
TORSDOF 14
ENDMDL
