MODEL 3
REMARK VINA RESULT: -10.065264669      1.701      2.474
REMARK  14 active torsions:
REMARK  status: ('A' for Active; 'I' for Inactive)
REMARK    1  A    between atoms: C2_2  and  N1_5 
REMARK       I    between atoms: N1_5  and  C5_7 
REMARK    2  A    between atoms: C5_7  and  C6_9 
REMARK    3  A    between atoms: N2_11  and  C8_12 
REMARK    4  A    between atoms: C8_12  and  C9_13 
REMARK    5  A    between atoms: N4_22  and  C16_23 
REMARK    6  A    between atoms: C16_23  and  C17_24 
REMARK    7  A    between atoms: C17_24  and  O2_25 
REMARK    8  A    between atoms: C17_24  and  C18_27 
REMARK    9  A    between atoms: C18_27  and  C19_28 
REMARK   10  A    between atoms: C19_28  and  C20_29 
REMARK   11  A    between atoms: C19_28  and  C27_36 
REMARK   12  A    between atoms: C20_29  and  C21_30 
REMARK       I    between atoms: C27_36  and  N5_38 
REMARK   13  A    between atoms: N5_38  and  C28_40 
REMARK   14  A    between atoms: C36_48  and  O4_49 
ROOT
HETATM    1  C17 UNL     1       4.553  -2.530  15.803  1.00  0.00     0.147 C 
ENDROOT
BRANCH   1   2
HETATM    2  C16 UNL     1       4.303  -3.702  16.712  1.00  0.00     0.305 C 
BRANCH   2   3
HETATM    3  N4  UNL     1       5.275  -4.739  16.669  1.00  0.00     0.108 N 
HETATM    4  C6  UNL     1       5.794  -5.208  17.906  1.00  0.00     0.342 C 
HETATM    5  C7  UNL     1       4.954  -6.217  18.602  1.00  0.00     0.318 C 
HETATM    6  N2  UNL     1       4.351  -7.222  17.791  1.00  0.00     0.097 N 
HETATM    7  C14 UNL     1       3.752  -6.659  16.595  1.00  0.00     0.303 C 
HETATM    8  C15 UNL     1       4.744  -5.824  15.862  1.00  0.00     0.303 C 
BRANCH   4   9
HETATM    9  C5  UNL     1       7.205  -5.689  17.665  1.00  0.00     0.253 C 
HETATM   10  N1  UNL     1       7.797  -5.526  16.383  1.00  0.00    -0.351 N 
ATOM     11  H1  UNL     1       7.270  -5.082  15.631  1.00  0.00     0.163 HD
HETATM   12  O1  UNL     1       7.862  -6.236  18.588  1.00  0.00    -0.271 OA
BRANCH  10  13
HETATM   13  C2  UNL     1       9.146  -5.990  16.145  1.00  0.00     0.022 C 
HETATM   14  C1  UNL     1      10.152  -5.139  16.879  1.00  0.00     0.037 C 
HETATM   15  C3  UNL     1       9.447  -5.879  14.658  1.00  0.00     0.037 C 
HETATM   16  C4  UNL     1       9.313  -7.443  16.569  1.00  0.00     0.037 C 
ENDBRANCH  10  13
ENDBRANCH   4   9
BRANCH   6  17
HETATM   17  C8  UNL     1       5.170  -8.363  17.508  1.00  0.00     0.312 C 
BRANCH  17  18
HETATM   18  C9  UNL     1       4.280  -9.514  17.114  1.00  0.00    -0.015 A 
HETATM   19  C10 UNL     1       3.221  -9.888  17.904  1.00  0.00     0.011 A 
HETATM   20  C11 UNL     1       2.420 -10.935  17.534  1.00  0.00     0.018 A 
HETATM   21  C12 UNL     1       2.683 -11.610  16.368  1.00  0.00     0.087 A 
HETATM   22  N3  UNL     1       3.719 -11.246  15.593  1.00  0.00    -0.375 N 
HETATM   23  C13 UNL     1       4.513 -10.214  15.951  1.00  0.00     0.096 A 
ATOM     24  H3  UNL     1       3.906 -11.753  14.727  1.00  0.00     0.164 HD
ENDBRANCH  17  18
ENDBRANCH   6  17
ENDBRANCH   2   3
ENDBRANCH   1   2
BRANCH   1  25
HETATM   25  O2  UNL     1       5.964  -2.370  15.781  1.00  0.00    -0.394 OA
ATOM     26  H2  UNL     1       6.268  -2.933  15.078  1.00  0.00     0.210 HD
ENDBRANCH   1  25
BRANCH   1  27
HETATM   27  C18 UNL     1       4.202  -2.883  14.378  1.00  0.00     0.047 C 
BRANCH  27  28
HETATM   28  C19 UNL     1       4.013  -1.705  13.460  1.00  0.00     0.084 C 
BRANCH  28  29
HETATM   29  C20 UNL     1       3.325  -0.558  14.055  1.00  0.00     0.052 C 
BRANCH  29  30
HETATM   30  C21 UNL     1       2.005  -0.224  13.503  1.00  0.00    -0.057 A 
HETATM   31  C22 UNL     1       1.997   0.457  12.279  1.00  0.00     0.007 A 
HETATM   32  C23 UNL     1       0.820   0.794  11.639  1.00  0.00     0.001 A 
HETATM   33  C24 UNL     1      -0.399   0.467  12.193  1.00  0.00     0.000 A 
HETATM   34  C25 UNL     1      -0.399  -0.202  13.397  1.00  0.00     0.001 A 
HETATM   35  C26 UNL     1       0.791  -0.547  14.048  1.00  0.00     0.007 A 
ENDBRANCH  29  30
ENDBRANCH  28  29
BRANCH  28  36
HETATM   36  C27 UNL     1       5.241  -1.344  12.747  1.00  0.00     0.222 C 
HETATM   37  O3  UNL     1       5.640  -1.980  11.764  1.00  0.00    -0.273 OA
HETATM   38  N5  UNL     1       6.050  -0.237  13.143  1.00  0.00    -0.350 N 
ATOM     39  H5  UNL     1       5.770   0.326  13.946  1.00  0.00     0.163 HD
BRANCH  38  40
HETATM   40  C28 UNL     1       7.248   0.100  12.435  1.00  0.00     0.147 C 
HETATM   41  C29 UNL     1       7.131   1.339  11.653  1.00  0.00    -0.027 A 
HETATM   42  C30 UNL     1       6.641   1.570  10.392  1.00  0.00     0.010 A 
HETATM   43  C34 UNL     1       7.622   2.385  12.395  1.00  0.00    -0.047 A 
HETATM   44  C31 UNL     1       6.635   2.836   9.863  1.00  0.00     0.001 A 
HETATM   45  C32 UNL     1       7.133   3.878  10.626  1.00  0.00     0.001 A 
HETATM   46  C33 UNL     1       7.639   3.679  11.911  1.00  0.00     0.008 A 
HETATM   47  C35 UNL     1       8.097   1.888  13.723  1.00  0.00     0.073 C 
HETATM   48  C36 UNL     1       8.326   0.414  13.459  1.00  0.00     0.149 C 
BRANCH  48  49
HETATM   49  O4  UNL     1       8.019  -0.278  14.616  1.00  0.00    -0.393 OA
ATOM     50  H4  UNL     1       8.775  -0.806  14.844  1.00  0.00     0.210 HD
ENDBRANCH  48  49
ENDBRANCH  38  40
ENDBRANCH  28  36
ENDBRANCH  27  28
ENDBRANCH   1  27
TORSDOF 14
ENDMDL
