MODEL 10
REMARK VINA RESULT: -9.876731791      1.793      4.555
REMARK  14 active torsions:
REMARK  status: ('A' for Active; 'I' for Inactive)
REMARK    1  A    between atoms: C2_2  and  N1_5 
REMARK       I    between atoms: N1_5  and  C5_7 
REMARK    2  A    between atoms: C5_7  and  C6_9 
REMARK    3  A    between atoms: N2_11  and  C8_12 
REMARK    4  A    between atoms: C8_12  and  C9_13 
REMARK    5  A    between atoms: N3_24  and  C18_25 
REMARK    6  A    between atoms: C18_25  and  C19_26 
REMARK    7  A    between atoms: C19_26  and  O4_27 
REMARK    8  A    between atoms: C19_26  and  C20_29 
REMARK    9  A    between atoms: C20_29  and  C21_30 
REMARK   10  A    between atoms: C21_30  and  C22_31 
REMARK   11  A    between atoms: C21_30  and  C29_38 
REMARK   12  A    between atoms: C22_31  and  C23_32 
REMARK       I    between atoms: C29_38  and  N4_40 
REMARK   13  A    between atoms: N4_40  and  C30_42 
REMARK   14  A    between atoms: C38_50  and  O6_51 
ROOT
HETATM    1  C19 UNL     1       5.477  -0.873  15.568  1.00  0.00     0.147 C 
ENDROOT
BRANCH   1   2
HETATM    2  C18 UNL     1       5.365  -2.002  16.477  1.00  0.00     0.305 C 
BRANCH   2   3
HETATM    3  N3  UNL     1       5.027  -3.271  15.835  1.00  0.00     0.108 N 
HETATM    4  C6  UNL     1       5.073  -4.297  16.818  1.00  0.00     0.342 C 
HETATM    5  C7  UNL     1       4.107  -5.411  16.737  1.00  0.00     0.318 C 
HETATM    6  N2  UNL     1       2.904  -5.067  16.048  1.00  0.00     0.097 N 
HETATM    7  C16 UNL     1       3.306  -4.591  14.721  1.00  0.00     0.303 C 
HETATM    8  C17 UNL     1       3.866  -3.191  15.026  1.00  0.00     0.303 C 
BRANCH   4   9
HETATM    9  C5  UNL     1       6.446  -4.939  16.850  1.00  0.00     0.253 C 
HETATM   10  N1  UNL     1       7.597  -4.175  16.501  1.00  0.00    -0.351 N 
ATOM     11  H1  UNL     1       7.447  -3.202  16.235  1.00  0.00     0.163 HD
HETATM   12  O1  UNL     1       6.621  -6.136  17.177  1.00  0.00    -0.271 OA
BRANCH  10  13
HETATM   13  C2  UNL     1       8.941  -4.654  16.490  1.00  0.00     0.022 C 
HETATM   14  C1  UNL     1       9.874  -3.499  16.198  1.00  0.00     0.037 C 
HETATM   15  C3  UNL     1       9.194  -5.684  15.410  1.00  0.00     0.037 C 
HETATM   16  C4  UNL     1       9.294  -5.252  17.835  1.00  0.00     0.037 C 
ENDBRANCH  10  13
ENDBRANCH   4   9
BRANCH   6  17
HETATM   17  C8  UNL     1       2.027  -6.203  15.963  1.00  0.00     0.311 C 
BRANCH  17  18
HETATM   18  C9  UNL     1       2.641  -7.487  16.296  1.00  0.00    -0.027 A 
HETATM   19  C10 UNL     1       3.437  -8.217  15.445  1.00  0.00     0.012 A 
HETATM   20  C11 UNL     1       3.987  -9.433  15.804  1.00  0.00     0.040 A 
HETATM   21  C12 UNL     1       3.724  -9.921  17.061  1.00  0.00     0.105 A 
HETATM   22  C13 UNL     1       2.926  -9.216  17.950  1.00  0.00     0.105 A 
HETATM   23  O3  UNL     1       4.131 -11.091  17.692  1.00  0.00    -0.323 OA
HETATM   24  C14 UNL     1       2.397  -8.021  17.567  1.00  0.00     0.048 A 
HETATM   25  O2  UNL     1       2.863  -9.974  19.098  1.00  0.00    -0.323 OA
HETATM   26  C15 UNL     1       3.290 -11.301  18.821  1.00  0.00     0.352 C 
ENDBRANCH  17  18
ENDBRANCH   6  17
ENDBRANCH   2   3
ENDBRANCH   1   2
BRANCH   1  27
HETATM   27  O4  UNL     1       5.215   0.374  16.250  1.00  0.00    -0.394 OA
ATOM     28  H4  UNL     1       4.380   0.742  15.983  1.00  0.00     0.210 HD
ENDBRANCH   1  27
BRANCH   1  29
HETATM   29  C20 UNL     1       6.756  -0.646  14.878  1.00  0.00     0.047 C 
BRANCH  29  30
HETATM   30  C21 UNL     1       6.850   0.325  13.798  1.00  0.00     0.084 C 
BRANCH  30  31
HETATM   31  C22 UNL     1       8.037   0.593  12.977  1.00  0.00     0.052 C 
BRANCH  31  32
HETATM   32  C23 UNL     1       7.918   1.741  12.032  1.00  0.00    -0.057 A 
HETATM   33  C24 UNL     1       7.598   2.992  12.566  1.00  0.00     0.007 A 
HETATM   34  C25 UNL     1       7.503   4.078  11.744  1.00  0.00     0.001 A 
HETATM   35  C26 UNL     1       7.713   3.993  10.385  1.00  0.00     0.000 A 
HETATM   36  C27 UNL     1       8.027   2.750   9.890  1.00  0.00     0.001 A 
HETATM   37  C28 UNL     1       8.134   1.615  10.700  1.00  0.00     0.007 A 
ENDBRANCH  31  32
ENDBRANCH  30  31
BRANCH  30  38
HETATM   38  C29 UNL     1       5.694  -0.001  12.848  1.00  0.00     0.222 C 
HETATM   39  O5  UNL     1       5.800  -1.028  12.155  1.00  0.00    -0.273 OA
HETATM   40  N4  UNL     1       4.555   0.812  12.743  1.00  0.00    -0.350 N 
ATOM     41  H4  UNL     1       4.451   1.651  13.314  1.00  0.00     0.163 HD
BRANCH  40  42
HETATM   42  C30 UNL     1       3.532   0.420  11.799  1.00  0.00     0.147 C 
HETATM   43  C31 UNL     1       2.188   0.373  12.466  1.00  0.00    -0.027 A 
HETATM   44  C32 UNL     1       1.691  -0.492  13.378  1.00  0.00     0.010 A 
HETATM   45  C36 UNL     1       1.431   1.414  12.002  1.00  0.00    -0.047 A 
HETATM   46  C33 UNL     1       0.414  -0.403  13.907  1.00  0.00     0.001 A 
HETATM   47  C34 UNL     1      -0.345   0.658  13.427  1.00  0.00     0.001 A 
HETATM   48  C35 UNL     1       0.149   1.532  12.509  1.00  0.00     0.008 A 
HETATM   49  C37 UNL     1       2.172   2.213  11.014  1.00  0.00     0.073 C 
HETATM   50  C38 UNL     1       3.436   1.431  10.719  1.00  0.00     0.149 C 
BRANCH  50  51
HETATM   51  O6  UNL     1       4.551   2.295  10.706  1.00  0.00    -0.393 OA
ATOM     52  H6  UNL     1       4.726   2.635   9.836  1.00  0.00     0.210 HD
ENDBRANCH  50  51
ENDBRANCH  40  42
ENDBRANCH  30  38
ENDBRANCH  29  30
ENDBRANCH   1  29
TORSDOF 14
ENDMDL
