MODEL 1
REMARK VINA RESULT: -10.397595421      0.000      0.000
REMARK  14 active torsions:
REMARK  status: ('A' for Active; 'I' for Inactive)
REMARK    1  A    between atoms: C2_2  and  N1_5 
REMARK       I    between atoms: N1_5  and  C5_7 
REMARK    2  A    between atoms: C5_7  and  C6_9 
REMARK    3  A    between atoms: N2_11  and  C8_12 
REMARK    4  A    between atoms: C8_12  and  C9_13 
REMARK    5  A    between atoms: N3_24  and  C18_25 
REMARK    6  A    between atoms: C18_25  and  C19_26 
REMARK    7  A    between atoms: C19_26  and  O4_27 
REMARK    8  A    between atoms: C19_26  and  C20_29 
REMARK    9  A    between atoms: C20_29  and  C21_30 
REMARK   10  A    between atoms: C21_30  and  C22_31 
REMARK   11  A    between atoms: C21_30  and  C29_38 
REMARK   12  A    between atoms: C22_31  and  C23_32 
REMARK       I    between atoms: C29_38  and  N4_40 
REMARK   13  A    between atoms: N4_40  and  C30_42 
REMARK   14  A    between atoms: C38_50  and  O6_51 
ROOT
HETATM    1  C19 UNL     1       4.263  -2.767  16.374  1.00  0.00     0.147 C 
ENDROOT
BRANCH   1   2
HETATM    2  C18 UNL     1       3.797  -4.002  16.984  1.00  0.00     0.305 C 
BRANCH   2   3
HETATM    3  N3  UNL     1       4.299  -5.222  16.352  1.00  0.00     0.108 N 
HETATM    4  C6  UNL     1       5.037  -5.955  17.320  1.00  0.00     0.342 C 
HETATM    5  C7  UNL     1       4.989  -7.431  17.290  1.00  0.00     0.318 C 
HETATM    6  N2  UNL     1       3.802  -7.945  16.684  1.00  0.00     0.097 N 
HETATM    7  C16 UNL     1       3.738  -7.367  15.339  1.00  0.00     0.303 C 
HETATM    8  C17 UNL     1       3.305  -5.917  15.621  1.00  0.00     0.303 C 
BRANCH   4   9
HETATM    9  C5  UNL     1       6.507  -5.587  17.257  1.00  0.00     0.253 C 
HETATM   10  N1  UNL     1       7.147  -5.429  15.994  1.00  0.00    -0.351 N 
ATOM     11  H1  UNL     1       6.577  -5.575  15.161  1.00  0.00     0.163 HD
HETATM   12  O1  UNL     1       7.201  -5.410  18.285  1.00  0.00    -0.271 OA
BRANCH  10  13
HETATM   13  C2  UNL     1       8.517  -5.084  15.793  1.00  0.00     0.022 C 
HETATM   14  C1  UNL     1       8.893  -5.370  14.355  1.00  0.00     0.037 C 
HETATM   15  C3  UNL     1       9.464  -5.900  16.647  1.00  0.00     0.037 C 
HETATM   16  C4  UNL     1       8.735  -3.614  16.082  1.00  0.00     0.037 C 
ENDBRANCH  10  13
ENDBRANCH   4   9
BRANCH   6  17
HETATM   17  C8  UNL     1       3.836  -9.382  16.645  1.00  0.00     0.311 C 
BRANCH  17  18
HETATM   18  C9  UNL     1       2.733 -10.048  17.334  1.00  0.00    -0.027 A 
HETATM   19  C10 UNL     1       2.288 -11.318  17.050  1.00  0.00     0.012 A 
HETATM   20  C11 UNL     1       1.232 -11.902  17.725  1.00  0.00     0.040 A 
HETATM   21  C12 UNL     1       0.612 -11.179  18.714  1.00  0.00     0.105 A 
HETATM   22  C13 UNL     1       1.029  -9.895  19.031  1.00  0.00     0.105 A 
HETATM   23  O3  UNL     1      -0.454 -11.496  19.548  1.00  0.00    -0.323 OA
HETATM   24  C14 UNL     1       2.072  -9.346  18.348  1.00  0.00     0.048 A 
HETATM   25  O2  UNL     1       0.207  -9.460  20.047  1.00  0.00    -0.323 OA
HETATM   26  C15 UNL     1      -0.945 -10.289  20.119  1.00  0.00     0.352 C 
ENDBRANCH  17  18
ENDBRANCH   6  17
ENDBRANCH   2   3
ENDBRANCH   1   2
BRANCH   1  27
HETATM   27  O4  UNL     1       5.498  -2.321  16.978  1.00  0.00    -0.394 OA
ATOM     28  H4  UNL     1       5.331  -1.785  17.744  1.00  0.00     0.210 HD
ENDBRANCH   1  27
BRANCH   1  29
HETATM   29  C20 UNL     1       4.542  -2.754  14.930  1.00  0.00     0.047 C 
BRANCH  29  30
HETATM   30  C21 UNL     1       3.975  -1.719  14.078  1.00  0.00     0.084 C 
BRANCH  30  31
HETATM   31  C22 UNL     1       3.241  -0.532  14.531  1.00  0.00     0.052 C 
BRANCH  31  32
HETATM   32  C23 UNL     1       2.118  -0.097  13.650  1.00  0.00    -0.057 A 
HETATM   33  C24 UNL     1       0.824  -0.485  14.007  1.00  0.00     0.007 A 
HETATM   34  C25 UNL     1      -0.239  -0.089  13.245  1.00  0.00     0.001 A 
HETATM   35  C26 UNL     1      -0.088   0.690  12.119  1.00  0.00     0.000 A 
HETATM   36  C27 UNL     1       1.197   1.055  11.794  1.00  0.00     0.001 A 
HETATM   37  C28 UNL     1       2.309   0.671  12.550  1.00  0.00     0.007 A 
ENDBRANCH  31  32
ENDBRANCH  30  31
BRANCH  30  38
HETATM   38  C29 UNL     1       5.125  -1.241  13.188  1.00  0.00     0.222 C 
HETATM   39  O5  UNL     1       5.371  -1.910  12.168  1.00  0.00    -0.273 OA
HETATM   40  N4  UNL     1       5.887  -0.102  13.489  1.00  0.00    -0.350 N 
ATOM     41  H4  UNL     1       5.688   0.461  14.316  1.00  0.00     0.163 HD
BRANCH  40  42
HETATM   42  C30 UNL     1       6.962   0.248  12.589  1.00  0.00     0.147 C 
HETATM   43  C31 UNL     1       6.690   1.569  11.929  1.00  0.00    -0.027 A 
HETATM   44  C32 UNL     1       5.779   1.910  10.990  1.00  0.00     0.010 A 
HETATM   45  C36 UNL     1       7.558   2.499  12.434  1.00  0.00    -0.047 A 
HETATM   46  C33 UNL     1       5.648   3.188  10.473  1.00  0.00     0.001 A 
HETATM   47  C34 UNL     1       6.536   4.122  10.992  1.00  0.00     0.001 A 
HETATM   48  C35 UNL     1       7.455   3.787  11.938  1.00  0.00     0.008 A 
HETATM   49  C37 UNL     1       8.459   1.901  13.431  1.00  0.00     0.073 C 
HETATM   50  C38 UNL     1       8.222   0.406  13.353  1.00  0.00     0.149 C 
BRANCH  50  51
HETATM   51  O6  UNL     1       8.122  -0.138  14.651  1.00  0.00    -0.393 OA
ATOM     52  H6  UNL     1       8.660  -0.915  14.751  1.00  0.00     0.210 HD
ENDBRANCH  50  51
ENDBRANCH  40  42
ENDBRANCH  30  38
ENDBRANCH  29  30
ENDBRANCH   1  29
TORSDOF 14
ENDMDL
