MODEL 3
REMARK VINA RESULT: -10.313105026      2.317      2.936
REMARK  14 active torsions:
REMARK  status: ('A' for Active; 'I' for Inactive)
REMARK    1  A    between atoms: C2_2  and  N1_5 
REMARK       I    between atoms: N1_5  and  C5_7 
REMARK    2  A    between atoms: C5_7  and  C6_9 
REMARK    3  A    between atoms: N2_11  and  C8_12 
REMARK    4  A    between atoms: C8_12  and  C9_13 
REMARK    5  A    between atoms: N3_24  and  C18_25 
REMARK    6  A    between atoms: C18_25  and  C19_26 
REMARK    7  A    between atoms: C19_26  and  O4_27 
REMARK    8  A    between atoms: C19_26  and  C20_29 
REMARK    9  A    between atoms: C20_29  and  C21_30 
REMARK   10  A    between atoms: C21_30  and  C22_31 
REMARK   11  A    between atoms: C21_30  and  C29_38 
REMARK   12  A    between atoms: C22_31  and  C23_32 
REMARK       I    between atoms: C29_38  and  N4_40 
REMARK   13  A    between atoms: N4_40  and  C30_42 
REMARK   14  A    between atoms: C38_50  and  O6_51 
ROOT
HETATM    1  C19 UNL     1       5.324  -2.305  15.139  1.00  0.00     0.147 C 
ENDROOT
BRANCH   1   2
HETATM    2  C18 UNL     1       4.662  -3.154  16.116  1.00  0.00     0.305 C 
BRANCH   2   3
HETATM    3  N3  UNL     1       4.813  -4.589  15.878  1.00  0.00     0.108 N 
HETATM    4  C6  UNL     1       5.270  -5.196  17.079  1.00  0.00     0.342 C 
HETATM    5  C7  UNL     1       4.796  -6.553  17.421  1.00  0.00     0.318 C 
HETATM    6  N2  UNL     1       3.534  -6.876  16.834  1.00  0.00     0.097 N 
HETATM    7  C16 UNL     1       3.691  -6.698  15.387  1.00  0.00     0.303 C 
HETATM    8  C17 UNL     1       3.687  -5.166  15.240  1.00  0.00     0.303 C 
BRANCH   4   9
HETATM    9  C5  UNL     1       6.784  -5.269  17.093  1.00  0.00     0.253 C 
HETATM   10  N1  UNL     1       7.501  -5.414  15.871  1.00  0.00    -0.351 N 
ATOM     11  H1  UNL     1       6.952  -5.466  15.012  1.00  0.00     0.163 HD
HETATM   12  O1  UNL     1       7.451  -5.207  18.153  1.00  0.00    -0.271 OA
BRANCH  10  13
HETATM   13  C2  UNL     1       8.920  -5.494  15.742  1.00  0.00     0.022 C 
HETATM   14  C1  UNL     1       9.275  -5.663  14.281  1.00  0.00     0.037 C 
HETATM   15  C3  UNL     1       9.513  -6.687  16.461  1.00  0.00     0.037 C 
HETATM   16  C4  UNL     1       9.564  -4.230  16.269  1.00  0.00     0.037 C 
ENDBRANCH  10  13
ENDBRANCH   4   9
BRANCH   6  17
HETATM   17  C8  UNL     1       3.152  -8.221  17.166  1.00  0.00     0.311 C 
BRANCH  17  18
HETATM   18  C9  UNL     1       4.095  -9.256  16.750  1.00  0.00    -0.027 A 
HETATM   19  C10 UNL     1       3.903 -10.107  15.687  1.00  0.00     0.012 A 
HETATM   20  C11 UNL     1       4.822 -11.078  15.339  1.00  0.00     0.040 A 
HETATM   21  C12 UNL     1       5.969 -11.188  16.087  1.00  0.00     0.105 A 
HETATM   22  C13 UNL     1       6.201 -10.350  17.167  1.00  0.00     0.105 A 
HETATM   23  O3  UNL     1       7.053 -12.051  15.979  1.00  0.00    -0.323 OA
HETATM   24  C14 UNL     1       5.275  -9.403  17.487  1.00  0.00     0.048 A 
HETATM   25  O2  UNL     1       7.419 -10.723  17.692  1.00  0.00    -0.323 OA
HETATM   26  C15 UNL     1       7.778 -12.008  17.202  1.00  0.00     0.352 C 
ENDBRANCH  17  18
ENDBRANCH   6  17
ENDBRANCH   2   3
ENDBRANCH   1   2
BRANCH   1  27
HETATM   27  O4  UNL     1       6.719  -2.655  15.002  1.00  0.00    -0.394 OA
ATOM     28  H4  UNL     1       7.281  -1.919  15.215  1.00  0.00     0.210 HD
ENDBRANCH   1  27
BRANCH   1  29
HETATM   29  C20 UNL     1       4.818  -2.291  13.758  1.00  0.00     0.047 C 
BRANCH  29  30
HETATM   30  C21 UNL     1       4.513  -1.032  13.095  1.00  0.00     0.084 C 
BRANCH  30  31
HETATM   31  C22 UNL     1       3.745   0.081  13.666  1.00  0.00     0.052 C 
BRANCH  31  32
HETATM   32  C23 UNL     1       2.303   0.127  13.288  1.00  0.00    -0.057 A 
HETATM   33  C24 UNL     1       1.972   0.691  12.053  1.00  0.00     0.007 A 
HETATM   34  C25 UNL     1       0.667   0.733  11.652  1.00  0.00     0.001 A 
HETATM   35  C26 UNL     1      -0.358   0.235  12.427  1.00  0.00     0.000 A 
HETATM   36  C27 UNL     1      -0.000  -0.313  13.636  1.00  0.00     0.001 A 
HETATM   37  C28 UNL     1       1.325  -0.375  14.080  1.00  0.00     0.007 A 
ENDBRANCH  31  32
ENDBRANCH  30  31
BRANCH  30  38
HETATM   38  C29 UNL     1       5.859  -0.474  12.626  1.00  0.00     0.222 C 
HETATM   39  O5  UNL     1       6.721  -1.296  12.267  1.00  0.00    -0.273 OA
HETATM   40  N4  UNL     1       6.135   0.901  12.598  1.00  0.00    -0.350 N 
ATOM     41  H4  UNL     1       5.433   1.585  12.880  1.00  0.00     0.163 HD
BRANCH  40  42
HETATM   42  C30 UNL     1       7.447   1.316  12.155  1.00  0.00     0.147 C 
HETATM   43  C31 UNL     1       7.354   2.059  10.853  1.00  0.00    -0.027 A 
HETATM   44  C32 UNL     1       7.063   1.617   9.609  1.00  0.00     0.010 A 
HETATM   45  C36 UNL     1       7.626   3.381  11.082  1.00  0.00    -0.047 A 
HETATM   46  C33 UNL     1       7.015   2.436   8.493  1.00  0.00     0.001 A 
HETATM   47  C34 UNL     1       7.295   3.775   8.738  1.00  0.00     0.001 A 
HETATM   48  C35 UNL     1       7.588   4.227   9.988  1.00  0.00     0.008 A 
HETATM   49  C37 UNL     1       7.923   3.626  12.501  1.00  0.00     0.073 C 
HETATM   50  C38 UNL     1       8.032   2.256  13.140  1.00  0.00     0.149 C 
BRANCH  50  51
HETATM   51  O6  UNL     1       7.336   2.234  14.367  1.00  0.00    -0.393 OA
ATOM     52  H6  UNL     1       7.632   1.528  14.930  1.00  0.00     0.210 HD
ENDBRANCH  50  51
ENDBRANCH  40  42
ENDBRANCH  30  38
ENDBRANCH  29  30
ENDBRANCH   1  29
TORSDOF 14
ENDMDL
