MODEL 2
REMARK VINA RESULT: -10.314608320      3.312     12.584
REMARK  14 active torsions:
REMARK  status: ('A' for Active; 'I' for Inactive)
REMARK    1  A    between atoms: C2_2  and  N1_5 
REMARK       I    between atoms: N1_5  and  C5_7 
REMARK    2  A    between atoms: C5_7  and  C6_9 
REMARK    3  A    between atoms: N2_11  and  C8_12 
REMARK    4  A    between atoms: C8_12  and  C9_13 
REMARK    5  A    between atoms: N3_24  and  C18_25 
REMARK    6  A    between atoms: C18_25  and  C19_26 
REMARK    7  A    between atoms: C19_26  and  O4_27 
REMARK    8  A    between atoms: C19_26  and  C20_29 
REMARK    9  A    between atoms: C20_29  and  C21_30 
REMARK   10  A    between atoms: C21_30  and  C22_31 
REMARK   11  A    between atoms: C21_30  and  C29_38 
REMARK   12  A    between atoms: C22_31  and  C23_32 
REMARK       I    between atoms: C29_38  and  N4_40 
REMARK   13  A    between atoms: N4_40  and  C30_42 
REMARK   14  A    between atoms: C38_50  and  O6_51 
ROOT
HETATM    1  C19 UNL     1       6.516  -0.083  14.245  1.00  0.00     0.147 C 
ENDROOT
BRANCH   1   2
HETATM    2  C18 UNL     1       6.699   1.168  13.528  1.00  0.00     0.305 C 
BRANCH   2   3
HETATM    3  N3  UNL     1       6.448   1.089  12.090  1.00  0.00     0.108 N 
HETATM    4  C6  UNL     1       5.356   1.943  11.779  1.00  0.00     0.342 C 
HETATM    5  C7  UNL     1       5.356   2.668  10.493  1.00  0.00     0.318 C 
HETATM    6  N2  UNL     1       6.667   2.881   9.965  1.00  0.00     0.097 N 
HETATM    7  C16 UNL     1       7.289   1.559   9.850  1.00  0.00     0.303 C 
HETATM    8  C17 UNL     1       7.626   1.224  11.314  1.00  0.00     0.303 C 
BRANCH   4   9
HETATM    9  C5  UNL     1       4.052   1.171  11.821  1.00  0.00     0.253 C 
HETATM   10  N1  UNL     1       2.811   1.864  11.726  1.00  0.00    -0.351 N 
ATOM     11  H1  UNL     1       2.850   2.879  11.633  1.00  0.00     0.163 HD
HETATM   12  O1  UNL     1       4.012  -0.077  11.936  1.00  0.00    -0.271 OA
BRANCH  10  13
HETATM   13  C2  UNL     1       1.517   1.261  11.750  1.00  0.00     0.022 C 
HETATM   14  C1  UNL     1       0.470   2.346  11.885  1.00  0.00     0.037 C 
HETATM   15  C3  UNL     1       1.319   0.333  12.929  1.00  0.00     0.037 C 
HETATM   16  C4  UNL     1       1.275   0.491  10.469  1.00  0.00     0.037 C 
ENDBRANCH  10  13
ENDBRANCH   4   9
BRANCH   6  17
HETATM   17  C8  UNL     1       6.597   3.549   8.694  1.00  0.00     0.311 C 
BRANCH  17  18
HETATM   18  C9  UNL     1       7.856   4.119   8.221  1.00  0.00    -0.027 A 
HETATM   19  C10 UNL     1       8.895   4.504   9.037  1.00  0.00     0.012 A 
HETATM   20  C11 UNL     1      10.064   5.049   8.542  1.00  0.00     0.040 A 
HETATM   21  C12 UNL     1      10.186   5.205   7.182  1.00  0.00     0.105 A 
HETATM   22  C13 UNL     1       9.162   4.830   6.325  1.00  0.00     0.105 A 
HETATM   23  O3  UNL     1      11.223   5.712   6.408  1.00  0.00    -0.323 OA
HETATM   24  C14 UNL     1       8.020   4.297   6.843  1.00  0.00     0.048 A 
HETATM   25  O2  UNL     1       9.598   5.120   5.051  1.00  0.00    -0.323 OA
HETATM   26  C15 UNL     1      10.708   6.005   5.115  1.00  0.00     0.352 C 
ENDBRANCH  17  18
ENDBRANCH   6  17
ENDBRANCH   2   3
ENDBRANCH   1   2
BRANCH   1  27
HETATM   27  O4  UNL     1       5.161  -0.214  14.730  1.00  0.00    -0.394 OA
ATOM     28  H4  UNL     1       5.125  -0.126  15.675  1.00  0.00     0.210 HD
ENDBRANCH   1  27
BRANCH   1  29
HETATM   29  C20 UNL     1       6.770  -1.347  13.537  1.00  0.00     0.047 C 
BRANCH  29  30
HETATM   30  C21 UNL     1       6.826  -2.605  14.266  1.00  0.00     0.084 C 
BRANCH  30  31
HETATM   31  C22 UNL     1       7.520  -2.836  15.539  1.00  0.00     0.052 C 
BRANCH  31  32
HETATM   32  C23 UNL     1       8.463  -3.992  15.556  1.00  0.00    -0.057 A 
HETATM   33  C24 UNL     1       9.234  -4.184  16.705  1.00  0.00     0.007 A 
HETATM   34  C25 UNL     1      10.094  -5.243  16.778  1.00  0.00     0.001 A 
HETATM   35  C26 UNL     1      10.237  -6.147  15.748  1.00  0.00     0.000 A 
HETATM   36  C27 UNL     1       9.464  -5.931  14.632  1.00  0.00     0.001 A 
HETATM   37  C28 UNL     1       8.573  -4.859  14.521  1.00  0.00     0.007 A 
ENDBRANCH  31  32
ENDBRANCH  30  31
BRANCH  30  38
HETATM   38  C29 UNL     1       5.371  -3.045  14.445  1.00  0.00     0.222 C 
HETATM   39  O5  UNL     1       4.652  -3.055  13.431  1.00  0.00    -0.273 OA
HETATM   40  N4  UNL     1       4.846  -3.422  15.691  1.00  0.00    -0.350 N 
ATOM     41  H4  UNL     1       5.429  -3.428  16.528  1.00  0.00     0.163 HD
BRANCH  40  42
HETATM   42  C30 UNL     1       3.453  -3.802  15.748  1.00  0.00     0.147 C 
HETATM   43  C31 UNL     1       3.317  -5.291  15.882  1.00  0.00    -0.027 A 
HETATM   44  C32 UNL     1       3.559  -6.278  14.992  1.00  0.00     0.010 A 
HETATM   45  C36 UNL     1       2.869  -5.578  17.143  1.00  0.00    -0.047 A 
HETATM   46  C33 UNL     1       3.384  -7.624  15.268  1.00  0.00     0.001 A 
HETATM   47  C34 UNL     1       2.929  -7.903  16.551  1.00  0.00     0.001 A 
HETATM   48  C35 UNL     1       2.682  -6.914  17.453  1.00  0.00     0.008 A 
HETATM   49  C37 UNL     1       2.667  -4.352  17.929  1.00  0.00     0.073 C 
HETATM   50  C38 UNL     1       2.822  -3.207  16.950  1.00  0.00     0.149 C 
BRANCH  50  51
HETATM   51  O6  UNL     1       3.620  -2.189  17.514  1.00  0.00    -0.393 OA
ATOM     52  H6  UNL     1       3.242  -1.846  18.315  1.00  0.00     0.210 HD
ENDBRANCH  50  51
ENDBRANCH  40  42
ENDBRANCH  30  38
ENDBRANCH  29  30
ENDBRANCH   1  29
TORSDOF 14
ENDMDL
