MODEL 1
REMARK VINA RESULT: -10.118801269      0.000      0.000
REMARK  14 active torsions:
REMARK  status: ('A' for Active; 'I' for Inactive)
REMARK    1  A    between atoms: C2_2  and  C3_3 
REMARK    2  A    between atoms: C2_2  and  C9_9 
REMARK    3  A    between atoms: C9_9  and  C10_10 
REMARK    4  A    between atoms: C9_9  and  C28_37 
REMARK    5  A    between atoms: C10_10  and  C11_11 
REMARK    6  A    between atoms: C11_11  and  O1_12 
REMARK    7  A    between atoms: C11_11  and  C12_14 
REMARK    8  A    between atoms: C12_14  and  N1_15 
REMARK    9  A    between atoms: N2_18  and  C15_19 
REMARK   10  A    between atoms: C15_19  and  C16_20 
REMARK   11  A    between atoms: C22_28  and  C23_29 
REMARK       I    between atoms: C23_29  and  N4_31 
REMARK   12  A    between atoms: N4_31  and  C24_33 
REMARK       I    between atoms: C28_37  and  N5_39 
REMARK   13  A    between atoms: N5_39  and  C29_41 
REMARK   14  A    between atoms: C37_49  and  O4_50 
ROOT
HETATM    1  C11 UNL     1       7.019   0.751  14.074  1.00  0.00     0.147 C 
ENDROOT
BRANCH   1   2
HETATM    2  C10 UNL     1       7.038  -0.668  13.665  1.00  0.00     0.048 C 
BRANCH   2   3
HETATM    3  C9  UNL     1       7.116  -1.710  14.733  1.00  0.00     0.088 C 
BRANCH   3   4
HETATM    4  C2  UNL     1       6.208  -2.848  14.266  1.00  0.00     0.027 C 
HETATM    5  C1  UNL     1       5.873  -2.813  12.822  1.00  0.00     0.016 C 
BRANCH   4   6
HETATM    6  C3  UNL     1       4.987  -2.972  15.091  1.00  0.00    -0.054 A 
HETATM    7  C4  UNL     1       4.930  -2.563  16.411  1.00  0.00     0.007 A 
HETATM    8  C5  UNL     1       3.773  -2.705  17.139  1.00  0.00     0.001 A 
HETATM    9  C6  UNL     1       2.634  -3.247  16.615  1.00  0.00     0.000 A 
HETATM   10  C7  UNL     1       2.666  -3.662  15.302  1.00  0.00     0.001 A 
HETATM   11  C8  UNL     1       3.809  -3.525  14.574  1.00  0.00     0.007 A 
ENDBRANCH   4   6
ENDBRANCH   3   4
BRANCH   3  12
HETATM   12  C28 UNL     1       8.471  -2.217  15.020  1.00  0.00     0.223 C 
HETATM   13  O3  UNL     1       9.469  -1.533  14.821  1.00  0.00    -0.273 OA
HETATM   14  N5  UNL     1       8.682  -3.523  15.538  1.00  0.00    -0.350 N 
ATOM     15  H5  UNL     1       7.854  -4.093  15.704  1.00  0.00     0.163 HD
BRANCH  14  16
HETATM   16  C29 UNL     1       9.934  -4.105  15.843  1.00  0.00     0.147 C 
HETATM   17  C30 UNL     1       9.647  -5.295  16.687  1.00  0.00    -0.027 A 
HETATM   18  C31 UNL     1       9.502  -5.511  18.044  1.00  0.00     0.010 A 
HETATM   19  C35 UNL     1       9.498  -6.367  15.829  1.00  0.00    -0.047 A 
HETATM   20  C32 UNL     1       9.218  -6.747  18.587  1.00  0.00     0.001 A 
HETATM   21  C33 UNL     1       9.073  -7.807  17.722  1.00  0.00     0.001 A 
HETATM   22  C34 UNL     1       9.213  -7.606  16.363  1.00  0.00     0.008 A 
HETATM   23  C36 UNL     1       9.707  -5.902  14.415  1.00  0.00     0.073 C 
HETATM   24  C37 UNL     1      10.668  -4.773  14.732  1.00  0.00     0.149 C 
BRANCH  24  25
HETATM   25  O4  UNL     1      11.058  -4.029  13.690  1.00  0.00    -0.393 OA
ATOM     26  H4  UNL     1      11.040  -4.420  12.825  1.00  0.00     0.210 HD
ENDBRANCH  24  25
ENDBRANCH  14  16
ENDBRANCH   3  12
ENDBRANCH   2   3
ENDBRANCH   1   2
BRANCH   1  27
HETATM   27  O1  UNL     1       5.906   1.121  14.750  1.00  0.00    -0.394 OA
ATOM     28  H1  UNL     1       5.724   2.053  14.725  1.00  0.00     0.210 HD
ENDBRANCH   1  27
BRANCH   1  29
HETATM   29  C12 UNL     1       7.254   1.657  12.854  1.00  0.00     0.305 C 
BRANCH  29  30
HETATM   30  N1  UNL     1       6.303   1.301  11.790  1.00  0.00     0.108 N 
HETATM   31  C13 UNL     1       7.021   0.819  10.635  1.00  0.00     0.303 C 
HETATM   32  C14 UNL     1       7.862   1.955  10.105  1.00  0.00     0.303 C 
HETATM   33  N2  UNL     1       7.071   3.069   9.731  1.00  0.00     0.097 N 
HETATM   34  C21 UNL     1       5.712   3.054  10.162  1.00  0.00     0.318 C 
HETATM   35  C22 UNL     1       5.450   2.422  11.484  1.00  0.00     0.342 C 
BRANCH  33  36
HETATM   36  C15 UNL     1       7.159   3.243   8.290  1.00  0.00     0.312 C 
BRANCH  36  37
HETATM   37  C16 UNL     1       8.171   4.271   7.937  1.00  0.00    -0.015 A 
HETATM   38  C17 UNL     1       9.436   4.282   8.494  1.00  0.00     0.011 A 
HETATM   39  C18 UNL     1      10.313   5.264   8.111  1.00  0.00     0.018 A 
HETATM   40  C19 UNL     1       9.912   6.201   7.192  1.00  0.00     0.087 A 
HETATM   41  N3  UNL     1       8.668   6.169   6.661  1.00  0.00    -0.375 N 
HETATM   42  C20 UNL     1       7.797   5.233   7.011  1.00  0.00     0.096 A 
ATOM     43  H3  UNL     1       8.396   6.878   5.979  1.00  0.00     0.164 HD
ENDBRANCH  36  37
ENDBRANCH  33  36
BRANCH  35  44
HETATM   44  C23 UNL     1       4.015   2.029  11.573  1.00  0.00     0.253 C 
HETATM   45  O2  UNL     1       3.547   1.412  12.563  1.00  0.00    -0.271 OA
HETATM   46  N4  UNL     1       3.102   2.343  10.520  1.00  0.00    -0.351 N 
ATOM     47  H4  UNL     1       3.471   2.844   9.712  1.00  0.00     0.163 HD
BRANCH  46  48
HETATM   48  C24 UNL     1       1.715   2.013  10.510  1.00  0.00     0.022 C 
HETATM   49  C25 UNL     1       1.449   0.527  10.465  1.00  0.00     0.037 C 
HETATM   50  C26 UNL     1       1.079   2.631   9.284  1.00  0.00     0.037 C 
HETATM   51  C27 UNL     1       1.035   2.641  11.707  1.00  0.00     0.037 C 
ENDBRANCH  46  48
ENDBRANCH  35  44
ENDBRANCH  29  30
ENDBRANCH   1  29
TORSDOF 14
ENDMDL
