MODEL 3
REMARK VINA RESULT: -9.995229867      2.539     10.187
REMARK  14 active torsions:
REMARK  status: ('A' for Active; 'I' for Inactive)
REMARK    1  A    between atoms: C2_2  and  C3_3 
REMARK    2  A    between atoms: C2_2  and  C9_9 
REMARK    3  A    between atoms: C9_9  and  C10_10 
REMARK    4  A    between atoms: C9_9  and  C28_37 
REMARK    5  A    between atoms: C10_10  and  C11_11 
REMARK    6  A    between atoms: C11_11  and  O1_12 
REMARK    7  A    between atoms: C11_11  and  C12_14 
REMARK    8  A    between atoms: C12_14  and  N1_15 
REMARK    9  A    between atoms: N2_18  and  C15_19 
REMARK   10  A    between atoms: C15_19  and  C16_20 
REMARK   11  A    between atoms: C22_28  and  C23_29 
REMARK       I    between atoms: C23_29  and  N4_31 
REMARK   12  A    between atoms: N4_31  and  C24_33 
REMARK       I    between atoms: C28_37  and  N5_39 
REMARK   13  A    between atoms: N5_39  and  C29_41 
REMARK   14  A    between atoms: C37_49  and  O4_50 
ROOT
HETATM    1  C11 UNL     1       6.198  -2.089  12.677  1.00  0.00     0.147 C 
ENDROOT
BRANCH   1   2
HETATM    2  C10 UNL     1       5.200  -1.221  13.333  1.00  0.00     0.048 C 
BRANCH   2   3
HETATM    3  C9  UNL     1       4.761   0.016  12.620  1.00  0.00     0.088 C 
BRANCH   3   4
HETATM    4  C2  UNL     1       3.795   0.720  13.573  1.00  0.00     0.027 C 
HETATM    5  C1  UNL     1       4.061   0.475  15.010  1.00  0.00     0.016 C 
BRANCH   4   6
HETATM    6  C3  UNL     1       2.378   0.451  13.242  1.00  0.00    -0.054 A 
HETATM    7  C4  UNL     1       1.526  -0.226  14.095  1.00  0.00     0.007 A 
HETATM    8  C5  UNL     1       0.218  -0.457  13.740  1.00  0.00     0.001 A 
HETATM    9  C6  UNL     1      -0.307  -0.041  12.550  1.00  0.00     0.000 A 
HETATM   10  C7  UNL     1       0.522   0.635  11.684  1.00  0.00     0.001 A 
HETATM   11  C8  UNL     1       1.820   0.868  12.028  1.00  0.00     0.007 A 
ENDBRANCH   4   6
ENDBRANCH   3   4
BRANCH   3  12
HETATM   12  C28 UNL     1       5.847   0.930  12.219  1.00  0.00     0.223 C 
HETATM   13  O3  UNL     1       6.709   1.291  13.013  1.00  0.00    -0.273 OA
HETATM   14  N5  UNL     1       5.941   1.437  10.896  1.00  0.00    -0.350 N 
ATOM     15  H5  UNL     1       5.225   1.137  10.234  1.00  0.00     0.163 HD
BRANCH  14  16
HETATM   16  C29 UNL     1       6.935   2.317  10.410  1.00  0.00     0.147 C 
HETATM   17  C30 UNL     1       6.781   2.347   8.932  1.00  0.00    -0.027 A 
HETATM   18  C31 UNL     1       7.292   1.602   7.886  1.00  0.00     0.010 A 
HETATM   19  C35 UNL     1       5.906   3.375   8.642  1.00  0.00    -0.047 A 
HETATM   20  C32 UNL     1       6.974   1.834   6.565  1.00  0.00     0.001 A 
HETATM   21  C33 UNL     1       6.101   2.862   6.288  1.00  0.00     0.001 A 
HETATM   22  C34 UNL     1       5.581   3.615   7.323  1.00  0.00     0.008 A 
HETATM   23  C36 UNL     1       5.491   4.047   9.920  1.00  0.00     0.073 C 
HETATM   24  C37 UNL     1       6.763   3.769  10.696  1.00  0.00     0.149 C 
BRANCH  24  25
HETATM   25  O4  UNL     1       6.767   4.170  11.973  1.00  0.00    -0.393 OA
ATOM     26  H4  UNL     1       6.590   5.084  12.160  1.00  0.00     0.210 HD
ENDBRANCH  24  25
ENDBRANCH  14  16
ENDBRANCH   3  12
ENDBRANCH   2   3
ENDBRANCH   1   2
BRANCH   1  27
HETATM   27  O1  UNL     1       5.669  -3.155  12.029  1.00  0.00    -0.394 OA
ATOM     28  H1  UNL     1       6.277  -3.874  11.899  1.00  0.00     0.210 HD
ENDBRANCH   1  27
BRANCH   1  29
HETATM   29  C12 UNL     1       7.267  -2.529  13.690  1.00  0.00     0.305 C 
BRANCH  29  30
HETATM   30  N1  UNL     1       6.621  -2.855  14.971  1.00  0.00     0.108 N 
HETATM   31  C13 UNL     1       7.442  -2.395  16.063  1.00  0.00     0.303 C 
HETATM   32  C14 UNL     1       8.741  -3.166  16.022  1.00  0.00     0.303 C 
HETATM   33  N2  UNL     1       8.531  -4.561  16.151  1.00  0.00     0.097 N 
HETATM   34  C21 UNL     1       7.187  -5.015  16.012  1.00  0.00     0.318 C 
HETATM   35  C22 UNL     1       6.338  -4.266  15.046  1.00  0.00     0.342 C 
BRANCH  33  36
HETATM   36  C15 UNL     1       9.105  -5.007  17.410  1.00  0.00     0.312 C 
BRANCH  36  37
HETATM   37  C16 UNL     1       8.783  -6.433  17.668  1.00  0.00    -0.015 A 
HETATM   38  C17 UNL     1       9.408  -7.465  16.994  1.00  0.00     0.011 A 
HETATM   39  C18 UNL     1       9.055  -8.755  17.295  1.00  0.00     0.018 A 
HETATM   40  C19 UNL     1       8.098  -8.984  18.251  1.00  0.00     0.087 A 
HETATM   41  N3  UNL     1       7.500  -7.958  18.898  1.00  0.00    -0.375 N 
HETATM   42  C20 UNL     1       7.818  -6.699  18.630  1.00  0.00     0.096 A 
ATOM     43  H3  UNL     1       6.791  -8.156  19.606  1.00  0.00     0.164 HD
ENDBRANCH  36  37
ENDBRANCH  33  36
BRANCH  35  44
HETATM   44  C23 UNL     1       4.900  -4.498  15.363  1.00  0.00     0.253 C 
HETATM   45  O2  UNL     1       3.990  -4.340  14.510  1.00  0.00    -0.271 OA
HETATM   46  N4  UNL     1       4.494  -4.914  16.667  1.00  0.00    -0.351 N 
ATOM     47  H4  UNL     1       5.225  -5.045  17.367  1.00  0.00     0.163 HD
BRANCH  46  48
HETATM   48  C24 UNL     1       3.149  -5.162  17.069  1.00  0.00     0.022 C 
HETATM   49  C25 UNL     1       2.269  -3.935  17.023  1.00  0.00     0.037 C 
HETATM   50  C26 UNL     1       3.154  -5.670  18.495  1.00  0.00     0.037 C 
HETATM   51  C27 UNL     1       2.563  -6.271  16.223  1.00  0.00     0.037 C 
ENDBRANCH  46  48
ENDBRANCH  35  44
ENDBRANCH  29  30
ENDBRANCH   1  29
TORSDOF 14
ENDMDL
