MODEL 2
REMARK VINA RESULT: -10.005286854      2.687     10.921
REMARK  14 active torsions:
REMARK  status: ('A' for Active; 'I' for Inactive)
REMARK    1  A    between atoms: C2_2  and  C3_3 
REMARK    2  A    between atoms: C2_2  and  C9_9 
REMARK    3  A    between atoms: C9_9  and  C10_10 
REMARK    4  A    between atoms: C9_9  and  C28_37 
REMARK    5  A    between atoms: C10_10  and  C11_11 
REMARK    6  A    between atoms: C11_11  and  O1_12 
REMARK    7  A    between atoms: C11_11  and  C12_14 
REMARK    8  A    between atoms: C12_14  and  N1_15 
REMARK    9  A    between atoms: N2_18  and  C15_19 
REMARK   10  A    between atoms: C15_19  and  C16_20 
REMARK   11  A    between atoms: C22_28  and  C23_29 
REMARK       I    between atoms: C23_29  and  N4_31 
REMARK   12  A    between atoms: N4_31  and  C24_33 
REMARK       I    between atoms: C28_37  and  N5_39 
REMARK   13  A    between atoms: N5_39  and  C29_41 
REMARK   14  A    between atoms: C37_49  and  O4_50 
ROOT
HETATM    1  C11 UNL     1       4.928  -0.387  15.389  1.00  0.00     0.147 C 
ENDROOT
BRANCH   1   2
HETATM    2  C10 UNL     1       6.041  -0.344  14.420  1.00  0.00     0.048 C 
BRANCH   2   3
HETATM    3  C9  UNL     1       6.055   0.756  13.408  1.00  0.00     0.088 C 
BRANCH   3   4
HETATM    4  C2  UNL     1       7.503   0.857  12.929  1.00  0.00     0.027 C 
HETATM    5  C1  UNL     1       8.502   0.985  14.016  1.00  0.00     0.016 C 
BRANCH   4   6
HETATM    6  C3  UNL     1       7.689   1.912  11.910  1.00  0.00    -0.054 A 
HETATM    7  C4  UNL     1       8.025   1.636  10.597  1.00  0.00     0.007 A 
HETATM    8  C5  UNL     1       8.192   2.652   9.687  1.00  0.00     0.001 A 
HETATM    9  C6  UNL     1       8.041   3.968  10.017  1.00  0.00     0.000 A 
HETATM   10  C7  UNL     1       7.707   4.270  11.319  1.00  0.00     0.001 A 
HETATM   11  C8  UNL     1       7.539   3.268  12.226  1.00  0.00     0.007 A 
ENDBRANCH   4   6
ENDBRANCH   3   4
BRANCH   3  12
HETATM   12  C28 UNL     1       5.144   0.570  12.263  1.00  0.00     0.223 C 
HETATM   13  O3  UNL     1       5.012  -0.520  11.718  1.00  0.00    -0.273 OA
HETATM   14  N5  UNL     1       4.383   1.647  11.737  1.00  0.00    -0.350 N 
ATOM     15  H5  UNL     1       4.492   2.554  12.189  1.00  0.00     0.163 HD
BRANCH  14  16
HETATM   16  C29 UNL     1       3.488   1.578  10.645  1.00  0.00     0.147 C 
HETATM   17  C30 UNL     1       2.141   1.331  11.223  1.00  0.00    -0.027 A 
HETATM   18  C31 UNL     1       1.419   0.201  11.557  1.00  0.00     0.010 A 
HETATM   19  C35 UNL     1       1.571   2.568  11.451  1.00  0.00    -0.047 A 
HETATM   20  C32 UNL     1       0.154   0.245  12.105  1.00  0.00     0.001 A 
HETATM   21  C33 UNL     1      -0.404   1.484  12.327  1.00  0.00     0.001 A 
HETATM   22  C34 UNL     1       0.306   2.623  12.000  1.00  0.00     0.008 A 
HETATM   23  C36 UNL     1       2.524   3.642  11.006  1.00  0.00     0.073 C 
HETATM   24  C37 UNL     1       3.203   2.843   9.911  1.00  0.00     0.149 C 
BRANCH  24  25
HETATM   25  O4  UNL     1       4.215   3.456   9.285  1.00  0.00    -0.393 OA
ATOM     26  H4  UNL     1       4.648   4.177   9.726  1.00  0.00     0.210 HD
ENDBRANCH  24  25
ENDBRANCH  14  16
ENDBRANCH   3  12
ENDBRANCH   2   3
ENDBRANCH   1   2
BRANCH   1  27
HETATM   27  O1  UNL     1       4.982   0.574  16.342  1.00  0.00    -0.394 OA
ATOM     28  H1  UNL     1       4.242   1.170  16.337  1.00  0.00     0.210 HD
ENDBRANCH   1  27
BRANCH   1  29
HETATM   29  C12 UNL     1       4.827  -1.787  16.017  1.00  0.00     0.305 C 
BRANCH  29  30
HETATM   30  N1  UNL     1       5.325  -2.789  15.062  1.00  0.00     0.108 N 
HETATM   31  C13 UNL     1       4.279  -3.142  14.135  1.00  0.00     0.303 C 
HETATM   32  C14 UNL     1       3.168  -3.801  14.918  1.00  0.00     0.303 C 
HETATM   33  N2  UNL     1       3.614  -4.969  15.586  1.00  0.00     0.097 N 
HETATM   34  C21 UNL     1       5.024  -5.164  15.648  1.00  0.00     0.318 C 
HETATM   35  C22 UNL     1       5.852  -3.932  15.765  1.00  0.00     0.342 C 
BRANCH  33  36
HETATM   36  C15 UNL     1       2.953  -6.124  15.000  1.00  0.00     0.312 C 
BRANCH  36  37
HETATM   37  C16 UNL     1       3.123  -7.326  15.854  1.00  0.00    -0.015 A 
HETATM   38  C17 UNL     1       2.815  -7.325  17.201  1.00  0.00     0.011 A 
HETATM   39  C18 UNL     1       2.998  -8.479  17.918  1.00  0.00     0.018 A 
HETATM   40  C19 UNL     1       3.478  -9.596  17.283  1.00  0.00     0.087 A 
HETATM   41  N3  UNL     1       3.773  -9.573  15.962  1.00  0.00    -0.375 N 
HETATM   42  C20 UNL     1       3.608  -8.473  15.242  1.00  0.00     0.096 A 
ATOM     43  H3  UNL     1       4.128 -10.418  15.514  1.00  0.00     0.164 HD
ENDBRANCH  36  37
ENDBRANCH  33  36
BRANCH  35  44
HETATM   44  C23 UNL     1       7.245  -4.224  15.321  1.00  0.00     0.253 C 
HETATM   45  O2  UNL     1       7.844  -3.512  14.475  1.00  0.00    -0.271 OA
HETATM   46  N4  UNL     1       7.964  -5.341  15.846  1.00  0.00    -0.351 N 
ATOM     47  H4  UNL     1       7.487  -5.925  16.533  1.00  0.00     0.163 HD
BRANCH  46  48
HETATM   48  C24 UNL     1       9.295  -5.703  15.488  1.00  0.00     0.022 C 
HETATM   49  C25 UNL     1       9.471  -5.972  14.012  1.00  0.00     0.037 C 
HETATM   50  C26 UNL     1       9.671  -6.966  16.233  1.00  0.00     0.037 C 
HETATM   51  C27 UNL     1      10.256  -4.631  15.954  1.00  0.00     0.037 C 
ENDBRANCH  46  48
ENDBRANCH  35  44
ENDBRANCH  29  30
ENDBRANCH   1  29
TORSDOF 14
ENDMDL
