MODEL 4
REMARK VINA RESULT: -9.920290604      2.285      5.794
REMARK  14 active torsions:
REMARK  status: ('A' for Active; 'I' for Inactive)
REMARK    1  A    between atoms: C2_2  and  C3_3 
REMARK    2  A    between atoms: C2_2  and  C9_9 
REMARK    3  A    between atoms: C9_9  and  C10_10 
REMARK    4  A    between atoms: C9_9  and  C28_37 
REMARK    5  A    between atoms: C10_10  and  C11_11 
REMARK    6  A    between atoms: C11_11  and  O1_12 
REMARK    7  A    between atoms: C11_11  and  C12_14 
REMARK    8  A    between atoms: C12_14  and  N1_15 
REMARK    9  A    between atoms: N2_18  and  C15_19 
REMARK   10  A    between atoms: C15_19  and  C16_20 
REMARK   11  A    between atoms: C22_28  and  C23_29 
REMARK       I    between atoms: C23_29  and  N4_31 
REMARK   12  A    between atoms: N4_31  and  C24_33 
REMARK       I    between atoms: C28_37  and  N5_39 
REMARK   13  A    between atoms: N5_39  and  C29_41 
REMARK   14  A    between atoms: C37_49  and  O4_50 
ROOT
HETATM    1  C11 UNL     1       8.130  -0.964  13.768  1.00  0.00     0.147 C 
ENDROOT
BRANCH   1   2
HETATM    2  C10 UNL     1       8.435  -1.321  15.168  1.00  0.00     0.048 C 
BRANCH   2   3
HETATM    3  C9  UNL     1       8.205  -2.731  15.604  1.00  0.00     0.088 C 
BRANCH   3   4
HETATM    4  C2  UNL     1       9.476  -3.146  16.346  1.00  0.00     0.027 C 
HETATM    5  C1  UNL     1      10.731  -2.634  15.747  1.00  0.00     0.016 C 
BRANCH   4   6
HETATM    6  C3  UNL     1       9.551  -4.606  16.568  1.00  0.00    -0.054 A 
HETATM    7  C4  UNL     1       9.509  -5.524  15.535  1.00  0.00     0.007 A 
HETATM    8  C5  UNL     1       9.576  -6.873  15.792  1.00  0.00     0.001 A 
HETATM    9  C6  UNL     1       9.686  -7.377  17.056  1.00  0.00     0.000 A 
HETATM   10  C7  UNL     1       9.730  -6.483  18.102  1.00  0.00     0.001 A 
HETATM   11  C8  UNL     1       9.664  -5.145  17.855  1.00  0.00     0.007 A 
ENDBRANCH   4   6
ENDBRANCH   3   4
BRANCH   3  12
HETATM   12  C28 UNL     1       7.019  -2.942  16.455  1.00  0.00     0.223 C 
HETATM   13  O3  UNL     1       6.471  -2.011  17.035  1.00  0.00    -0.273 OA
HETATM   14  N5  UNL     1       6.460  -4.234  16.645  1.00  0.00    -0.350 N 
ATOM     15  H5  UNL     1       6.915  -5.009  16.163  1.00  0.00     0.163 HD
BRANCH  14  16
HETATM   16  C29 UNL     1       5.333  -4.545  17.439  1.00  0.00     0.147 C 
HETATM   17  C30 UNL     1       4.272  -4.996  16.501  1.00  0.00    -0.027 A 
HETATM   18  C31 UNL     1       3.274  -4.362  15.786  1.00  0.00     0.010 A 
HETATM   19  C35 UNL     1       4.404  -6.364  16.376  1.00  0.00    -0.047 A 
HETATM   20  C32 UNL     1       2.400  -5.028  14.953  1.00  0.00     0.001 A 
HETATM   21  C33 UNL     1       2.542  -6.392  14.836  1.00  0.00     0.001 A 
HETATM   22  C34 UNL     1       3.536  -7.039  15.544  1.00  0.00     0.008 A 
HETATM   23  C36 UNL     1       5.538  -6.833  17.245  1.00  0.00     0.073 C 
HETATM   24  C37 UNL     1       5.417  -5.755  18.304  1.00  0.00     0.149 C 
BRANCH  24  25
HETATM   25  O4  UNL     1       6.341  -5.783  19.272  1.00  0.00    -0.393 OA
ATOM     26  H4  UNL     1       6.159  -5.321  20.082  1.00  0.00     0.210 HD
ENDBRANCH  24  25
ENDBRANCH  14  16
ENDBRANCH   3  12
ENDBRANCH   2   3
ENDBRANCH   1   2
BRANCH   1  27
HETATM   27  O1  UNL     1       8.686   0.200  13.355  1.00  0.00    -0.394 OA
ATOM     28  H1  UNL     1       8.919   0.217  12.434  1.00  0.00     0.210 HD
ENDBRANCH   1  27
BRANCH   1  29
HETATM   29  C12 UNL     1       6.610  -0.964  13.540  1.00  0.00     0.305 C 
BRANCH  29  30
HETATM   30  N1  UNL     1       6.182   0.369  13.090  1.00  0.00     0.108 N 
HETATM   31  C13 UNL     1       5.198   0.900  14.000  1.00  0.00     0.303 C 
HETATM   32  C14 UNL     1       3.981   0.008  13.937  1.00  0.00     0.303 C 
HETATM   33  N2  UNL     1       3.430  -0.043  12.632  1.00  0.00     0.097 N 
HETATM   34  C21 UNL     1       4.236   0.490  11.584  1.00  0.00     0.318 C 
HETATM   35  C22 UNL     1       5.706   0.310  11.730  1.00  0.00     0.342 C 
BRANCH  33  36
HETATM   36  C15 UNL     1       2.119   0.585  12.652  1.00  0.00     0.312 C 
BRANCH  36  37
HETATM   37  C16 UNL     1       1.946   1.497  11.494  1.00  0.00    -0.015 A 
HETATM   38  C17 UNL     1       2.313   2.829  11.542  1.00  0.00     0.011 A 
HETATM   39  C18 UNL     1       2.123   3.603  10.426  1.00  0.00     0.018 A 
HETATM   40  C19 UNL     1       1.579   3.038   9.301  1.00  0.00     0.087 A 
HETATM   41  N3  UNL     1       1.227   1.732   9.278  1.00  0.00    -0.375 N 
HETATM   42  C20 UNL     1       1.397   0.957  10.340  1.00  0.00     0.096 A 
ATOM     43  H3  UNL     1       0.824   1.337   8.428  1.00  0.00     0.164 HD
ENDBRANCH  36  37
ENDBRANCH  33  36
BRANCH  35  44
HETATM   44  C23 UNL     1       6.417   1.309  10.882  1.00  0.00     0.253 C 
HETATM   45  O2  UNL     1       7.654   1.509  10.972  1.00  0.00    -0.271 OA
HETATM   46  N4  UNL     1       5.708   2.089   9.917  1.00  0.00    -0.351 N 
ATOM     47  H4  UNL     1       4.703   1.935   9.835  1.00  0.00     0.163 HD
BRANCH  46  48
HETATM   48  C24 UNL     1       6.294   3.065   9.060  1.00  0.00     0.022 C 
HETATM   49  C25 UNL     1       7.193   4.041   9.781  1.00  0.00     0.037 C 
HETATM   50  C26 UNL     1       5.187   3.861   8.403  1.00  0.00     0.037 C 
HETATM   51  C27 UNL     1       7.045   2.374   7.942  1.00  0.00     0.037 C 
ENDBRANCH  46  48
ENDBRANCH  35  44
ENDBRANCH  29  30
ENDBRANCH   1  29
TORSDOF 14
ENDMDL
