MODEL 2
REMARK VINA RESULT: -11.195524299      0.537      1.111
REMARK  14 active torsions:
REMARK  status: ('A' for Active; 'I' for Inactive)
REMARK    1  A    between atoms: C2_2  and  C3_3 
REMARK    2  A    between atoms: C2_2  and  C9_9 
REMARK    3  A    between atoms: C9_9  and  C10_10 
REMARK    4  A    between atoms: C9_9  and  C30_39 
REMARK    5  A    between atoms: C10_10  and  C11_11 
REMARK    6  A    between atoms: C11_11  and  O1_12 
REMARK    7  A    between atoms: C11_11  and  C12_14 
REMARK    8  A    between atoms: C12_14  and  N1_15 
REMARK    9  A    between atoms: N2_18  and  C15_19 
REMARK   10  A    between atoms: C15_19  and  C16_20 
REMARK   11  A    between atoms: C24_30  and  C25_31 
REMARK       I    between atoms: C25_31  and  N3_33 
REMARK   12  A    between atoms: N3_33  and  C26_35 
REMARK       I    between atoms: C30_39  and  N4_41 
REMARK   13  A    between atoms: N4_41  and  C31_43 
REMARK   14  A    between atoms: C39_51  and  O6_52 
ROOT
HETATM    1  C11 UNL     1       5.286  -0.255  15.123  1.00  0.00     0.147 C 
ENDROOT
BRANCH   1   2
HETATM    2  C10 UNL     1       6.557  -0.296  14.316  1.00  0.00     0.048 C 
BRANCH   2   3
HETATM    3  C9  UNL     1       6.427   0.503  13.072  1.00  0.00     0.088 C 
BRANCH   3   4
HETATM    4  C2  UNL     1       7.627   0.579  12.188  1.00  0.00     0.027 C 
HETATM    5  C1  UNL     1       8.892   0.488  13.055  1.00  0.00     0.016 C 
BRANCH   4   6
HETATM    6  C3  UNL     1       7.722   1.812  11.370  1.00  0.00    -0.054 A 
HETATM    7  C4  UNL     1       7.889   1.763  10.003  1.00  0.00     0.007 A 
HETATM    8  C5  UNL     1       7.967   2.923   9.238  1.00  0.00     0.001 A 
HETATM    9  C6  UNL     1       7.872   4.129   9.897  1.00  0.00     0.000 A 
HETATM   10  C7  UNL     1       7.706   4.177  11.261  1.00  0.00     0.001 A 
HETATM   11  C8  UNL     1       7.630   3.027  12.013  1.00  0.00     0.007 A 
ENDBRANCH   4   6
ENDBRANCH   3   4
BRANCH   3  12
HETATM   12  C30 UNL     1       5.146   0.249  12.358  1.00  0.00     0.223 C 
HETATM   13  O5  UNL     1       4.871  -0.884  11.894  1.00  0.00    -0.273 OA
HETATM   14  N4  UNL     1       4.139   1.237  12.134  1.00  0.00    -0.350 N 
ATOM     15  H4  UNL     1       4.291   2.181  12.488  1.00  0.00     0.163 HD
BRANCH  14  16
HETATM   16  C31 UNL     1       2.923   0.951  11.432  1.00  0.00     0.147 C 
HETATM   17  C32 UNL     1       1.815   0.459  12.258  1.00  0.00    -0.027 A 
HETATM   18  C33 UNL     1       1.653  -0.217  13.464  1.00  0.00     0.010 A 
HETATM   19  C37 UNL     1       0.640   0.790  11.588  1.00  0.00    -0.047 A 
HETATM   20  C34 UNL     1       0.402  -0.538  13.959  1.00  0.00     0.001 A 
HETATM   21  C35 UNL     1      -0.739  -0.194  13.267  1.00  0.00     0.001 A 
HETATM   22  C36 UNL     1      -0.615   0.482  12.060  1.00  0.00     0.008 A 
HETATM   23  C38 UNL     1       0.969   1.515  10.314  1.00  0.00     0.073 C 
HETATM   24  C39 UNL     1       2.324   2.116  10.724  1.00  0.00     0.149 C 
BRANCH  24  25
HETATM   25  O6  UNL     1       2.018   3.170  11.585  1.00  0.00    -0.393 OA
ATOM     26  H6  UNL     1       1.297   3.703  11.270  1.00  0.00     0.210 HD
ENDBRANCH  24  25
ENDBRANCH  14  16
ENDBRANCH   3  12
ENDBRANCH   2   3
ENDBRANCH   1   2
BRANCH   1  27
HETATM   27  O1  UNL     1       4.923   0.963  15.614  1.00  0.00    -0.394 OA
ATOM     28  H1  UNL     1       5.536   1.375  16.212  1.00  0.00     0.210 HD
ENDBRANCH   1  27
BRANCH   1  29
HETATM   29  C12 UNL     1       5.343  -1.230  16.289  1.00  0.00     0.305 C 
BRANCH  29  30
HETATM   30  N1  UNL     1       5.079  -2.593  15.796  1.00  0.00     0.108 N 
HETATM   31  C13 UNL     1       3.647  -2.727  15.572  1.00  0.00     0.303 C 
HETATM   32  C14 UNL     1       3.463  -4.131  14.974  1.00  0.00     0.303 C 
HETATM   33  N2  UNL     1       3.689  -5.122  16.010  1.00  0.00     0.097 N 
HETATM   34  C23 UNL     1       4.448  -4.599  17.110  1.00  0.00     0.318 C 
HETATM   35  C24 UNL     1       5.491  -3.592  16.725  1.00  0.00     0.342 C 
BRANCH  33  36
HETATM   36  C15 UNL     1       4.190  -6.373  15.479  1.00  0.00     0.311 C 
BRANCH  36  37
HETATM   37  C16 UNL     1       3.728  -7.454  16.415  1.00  0.00    -0.027 A 
HETATM   38  C17 UNL     1       2.407  -7.620  16.764  1.00  0.00     0.012 A 
HETATM   39  C18 UNL     1       1.999  -8.629  17.640  1.00  0.00     0.040 A 
HETATM   40  C19 UNL     1       2.909  -9.488  18.181  1.00  0.00     0.105 A 
HETATM   41  C20 UNL     1       4.233  -9.340  17.846  1.00  0.00     0.105 A 
HETATM   42  O3  UNL     1       2.792 -10.553  19.055  1.00  0.00    -0.323 OA
HETATM   43  C21 UNL     1       4.647  -8.337  16.974  1.00  0.00     0.048 A 
HETATM   44  O2  UNL     1       4.912 -10.343  18.540  1.00  0.00    -0.323 OA
HETATM   45  C22 UNL     1       3.958 -11.314  18.981  1.00  0.00     0.352 C 
ENDBRANCH  36  37
ENDBRANCH  33  36
BRANCH  35  46
HETATM   46  C25 UNL     1       6.752  -4.251  16.269  1.00  0.00     0.253 C 
HETATM   47  O4  UNL     1       6.937  -4.472  15.046  1.00  0.00    -0.271 OA
HETATM   48  N3  UNL     1       7.793  -4.656  17.148  1.00  0.00    -0.351 N 
ATOM     49  H3  UNL     1       7.681  -4.494  18.148  1.00  0.00     0.163 HD
BRANCH  48  50
HETATM   50  C26 UNL     1       9.007  -5.292  16.678  1.00  0.00     0.022 C 
HETATM   51  C27 UNL     1       9.378  -4.946  15.275  1.00  0.00     0.037 C 
HETATM   52  C28 UNL     1      10.146  -4.907  17.621  1.00  0.00     0.037 C 
HETATM   53  C29 UNL     1       8.810  -6.790  16.764  1.00  0.00     0.037 C 
ENDBRANCH  48  50
ENDBRANCH  35  46
ENDBRANCH  29  30
ENDBRANCH   1  29
TORSDOF 14
ENDMDL
