MODEL 1
REMARK VINA RESULT: -11.317652558      0.000      0.000
REMARK  14 active torsions:
REMARK  status: ('A' for Active; 'I' for Inactive)
REMARK    1  A    between atoms: C2_2  and  C3_3 
REMARK    2  A    between atoms: C2_2  and  C9_9 
REMARK    3  A    between atoms: C9_9  and  C10_10 
REMARK    4  A    between atoms: C9_9  and  C30_39 
REMARK    5  A    between atoms: C10_10  and  C11_11 
REMARK    6  A    between atoms: C11_11  and  O1_12 
REMARK    7  A    between atoms: C11_11  and  C12_14 
REMARK    8  A    between atoms: C12_14  and  N1_15 
REMARK    9  A    between atoms: N2_18  and  C15_19 
REMARK   10  A    between atoms: C15_19  and  C16_20 
REMARK   11  A    between atoms: C24_30  and  C25_31 
REMARK       I    between atoms: C25_31  and  N3_33 
REMARK   12  A    between atoms: N3_33  and  C26_35 
REMARK       I    between atoms: C30_39  and  N4_41 
REMARK   13  A    between atoms: N4_41  and  C31_43 
REMARK   14  A    between atoms: C39_51  and  O6_52 
ROOT
HETATM    1  C11 UNL     1       5.222  -0.265  15.228  1.00  0.00     0.147 C 
ENDROOT
BRANCH   1   2
HETATM    2  C10 UNL     1       6.486  -0.349  14.412  1.00  0.00     0.048 C 
BRANCH   2   3
HETATM    3  C9  UNL     1       6.381   0.468  13.178  1.00  0.00     0.088 C 
BRANCH   3   4
HETATM    4  C2  UNL     1       7.596   0.548  12.315  1.00  0.00     0.027 C 
HETATM    5  C1  UNL     1       8.846   0.424  13.199  1.00  0.00     0.016 C 
BRANCH   4   6
HETATM    6  C3  UNL     1       7.718   1.797  11.524  1.00  0.00    -0.054 A 
HETATM    7  C4  UNL     1       7.570   3.038  12.102  1.00  0.00     0.007 A 
HETATM    8  C5  UNL     1       7.696   4.207  11.358  1.00  0.00     0.001 A 
HETATM    9  C6  UNL     1       7.975   4.081  10.016  1.00  0.00     0.000 A 
HETATM   10  C7  UNL     1       8.122   2.841   9.438  1.00  0.00     0.001 A 
HETATM   11  C8  UNL     1       7.996   1.688  10.179  1.00  0.00     0.007 A 
ENDBRANCH   4   6
ENDBRANCH   3   4
BRANCH   3  12
HETATM   12  C30 UNL     1       5.110   0.233  12.440  1.00  0.00     0.223 C 
HETATM   13  O5  UNL     1       4.821  -0.899  11.982  1.00  0.00    -0.273 OA
HETATM   14  N4  UNL     1       4.129   1.239  12.185  1.00  0.00    -0.350 N 
ATOM     15  H4  UNL     1       4.294   2.184  12.532  1.00  0.00     0.163 HD
BRANCH  14  16
HETATM   16  C31 UNL     1       2.923   0.972  11.460  1.00  0.00     0.147 C 
HETATM   17  C32 UNL     1       1.799   0.474  12.263  1.00  0.00    -0.027 A 
HETATM   18  C33 UNL     1       1.616  -0.220  13.455  1.00  0.00     0.010 A 
HETATM   19  C37 UNL     1       0.637   0.822  11.580  1.00  0.00    -0.047 A 
HETATM   20  C34 UNL     1       0.356  -0.541  13.927  1.00  0.00     0.001 A 
HETATM   21  C35 UNL     1      -0.773  -0.179  13.223  1.00  0.00     0.001 A 
HETATM   22  C36 UNL     1      -0.627   0.514  12.029  1.00  0.00     0.008 A 
HETATM   23  C38 UNL     1       0.989   1.564  10.322  1.00  0.00     0.073 C 
HETATM   24  C39 UNL     1       2.341   2.151  10.761  1.00  0.00     0.149 C 
BRANCH  24  25
HETATM   25  O6  UNL     1       2.028   3.193  11.634  1.00  0.00    -0.393 OA
ATOM     26  H6  UNL     1       1.202   3.612  11.423  1.00  0.00     0.210 HD
ENDBRANCH  24  25
ENDBRANCH  14  16
ENDBRANCH   3  12
ENDBRANCH   2   3
ENDBRANCH   1   2
BRANCH   1  27
HETATM   27  O1  UNL     1       4.908   0.962  15.727  1.00  0.00    -0.394 OA
ATOM     28  H1  UNL     1       4.020   1.263  15.574  1.00  0.00     0.210 HD
ENDBRANCH   1  27
BRANCH   1  29
HETATM   29  C12 UNL     1       5.250  -1.248  16.389  1.00  0.00     0.305 C 
BRANCH  29  30
HETATM   30  N1  UNL     1       5.095  -2.618  15.870  1.00  0.00     0.108 N 
HETATM   31  C13 UNL     1       3.749  -2.751  15.332  1.00  0.00     0.303 C 
HETATM   32  C14 UNL     1       3.695  -4.164  14.729  1.00  0.00     0.303 C 
HETATM   33  N2  UNL     1       3.676  -5.139  15.804  1.00  0.00     0.097 N 
HETATM   34  C23 UNL     1       4.172  -4.600  17.039  1.00  0.00     0.318 C 
HETATM   35  C24 UNL     1       5.282  -3.603  16.882  1.00  0.00     0.342 C 
BRANCH  33  36
HETATM   36  C15 UNL     1       4.275  -6.399  15.418  1.00  0.00     0.311 C 
BRANCH  36  37
HETATM   37  C16 UNL     1       3.752  -7.435  16.373  1.00  0.00    -0.027 A 
HETATM   38  C17 UNL     1       2.418  -7.540  16.698  1.00  0.00     0.012 A 
HETATM   39  C18 UNL     1       1.954  -8.507  17.593  1.00  0.00     0.040 A 
HETATM   40  C19 UNL     1       2.817  -9.386  18.176  1.00  0.00     0.105 A 
HETATM   41  C20 UNL     1       4.153  -9.299  17.865  1.00  0.00     0.105 A 
HETATM   42  O3  UNL     1       2.642 -10.421  19.076  1.00  0.00    -0.323 OA
HETATM   43  C21 UNL     1       4.624  -8.338  16.975  1.00  0.00     0.048 A 
HETATM   44  O2  UNL     1       4.778 -10.308  18.600  1.00  0.00    -0.323 OA
HETATM   45  C22 UNL     1       3.778 -11.228  19.047  1.00  0.00     0.352 C 
ENDBRANCH  36  37
ENDBRANCH  33  36
BRANCH  35  46
HETATM   46  C25 UNL     1       6.609  -4.273  16.731  1.00  0.00     0.253 C 
HETATM   47  O4  UNL     1       6.744  -5.478  17.060  1.00  0.00    -0.271 OA
HETATM   48  N3  UNL     1       7.767  -3.624  16.224  1.00  0.00    -0.351 N 
ATOM     49  H3  UNL     1       7.698  -2.645  15.945  1.00  0.00     0.163 HD
BRANCH  48  50
HETATM   50  C26 UNL     1       9.042  -4.299  16.087  1.00  0.00     0.022 C 
HETATM   51  C27 UNL     1       9.433  -5.118  17.270  1.00  0.00     0.037 C 
HETATM   52  C28 UNL     1       8.983  -5.185  14.844  1.00  0.00     0.037 C 
HETATM   53  C29 UNL     1      10.103  -3.244  15.865  1.00  0.00     0.037 C 
ENDBRANCH  48  50
ENDBRANCH  35  46
ENDBRANCH  29  30
ENDBRANCH   1  29
TORSDOF 14
ENDMDL
