MODEL 10
REMARK VINA RESULT: -10.106079693      2.569      4.798
REMARK  14 active torsions:
REMARK  status: ('A' for Active; 'I' for Inactive)
REMARK    1  A    between atoms: C2_2  and  C3_3 
REMARK    2  A    between atoms: C2_2  and  C9_9 
REMARK    3  A    between atoms: C9_9  and  C10_10 
REMARK    4  A    between atoms: C9_9  and  C30_39 
REMARK    5  A    between atoms: C10_10  and  C11_11 
REMARK    6  A    between atoms: C11_11  and  O1_12 
REMARK    7  A    between atoms: C11_11  and  C12_14 
REMARK    8  A    between atoms: C12_14  and  N1_15 
REMARK    9  A    between atoms: N2_18  and  C15_19 
REMARK   10  A    between atoms: C15_19  and  C16_20 
REMARK   11  A    between atoms: C24_30  and  C25_31 
REMARK       I    between atoms: C25_31  and  N3_33 
REMARK   12  A    between atoms: N3_33  and  C26_35 
REMARK       I    between atoms: C30_39  and  N4_41 
REMARK   13  A    between atoms: N4_41  and  C31_43 
REMARK   14  A    between atoms: C39_51  and  O6_52 
ROOT
HETATM    1  C11 UNL     1       6.297   1.094  13.283  1.00  0.00     0.147 C 
ENDROOT
BRANCH   1   2
HETATM    2  C10 UNL     1       7.426   2.036  12.955  1.00  0.00     0.048 C 
BRANCH   2   3
HETATM    3  C9  UNL     1       7.264   2.614  11.598  1.00  0.00     0.088 C 
BRANCH   3   4
HETATM    4  C2  UNL     1       7.692   1.768  10.447  1.00  0.00     0.027 C 
HETATM    5  C1  UNL     1       9.033   1.100  10.789  1.00  0.00     0.016 C 
BRANCH   4   6
HETATM    6  C3  UNL     1       7.857   2.495   9.165  1.00  0.00    -0.054 A 
HETATM    7  C4  UNL     1       8.658   3.611   9.064  1.00  0.00     0.007 A 
HETATM    8  C5  UNL     1       8.818   4.284   7.857  1.00  0.00     0.001 A 
HETATM    9  C6  UNL     1       8.146   3.794   6.759  1.00  0.00     0.000 A 
HETATM   10  C7  UNL     1       7.346   2.679   6.861  1.00  0.00     0.001 A 
HETATM   11  C8  UNL     1       7.191   2.018   8.058  1.00  0.00     0.007 A 
ENDBRANCH   4   6
ENDBRANCH   3   4
BRANCH   3  12
HETATM   12  C30 UNL     1       5.951   3.292  11.416  1.00  0.00     0.223 C 
HETATM   13  O5  UNL     1       5.811   4.517  11.650  1.00  0.00    -0.273 OA
HETATM   14  N4  UNL     1       4.760   2.636  10.978  1.00  0.00    -0.350 N 
ATOM     15  H4  UNL     1       4.799   1.640  10.765  1.00  0.00     0.163 HD
BRANCH  14  16
HETATM   16  C31 UNL     1       3.513   3.326  10.827  1.00  0.00     0.147 C 
HETATM   17  C32 UNL     1       3.253   3.878   9.492  1.00  0.00    -0.027 A 
HETATM   18  C33 UNL     1       3.994   4.315   8.398  1.00  0.00     0.010 A 
HETATM   19  C37 UNL     1       1.870   3.965   9.359  1.00  0.00    -0.047 A 
HETATM   20  C34 UNL     1       3.389   4.804   7.255  1.00  0.00     0.001 A 
HETATM   21  C35 UNL     1       2.016   4.874   7.159  1.00  0.00     0.001 A 
HETATM   22  C36 UNL     1       1.245   4.447   8.232  1.00  0.00     0.008 A 
HETATM   23  C38 UNL     1       1.207   3.456  10.608  1.00  0.00     0.073 C 
HETATM   24  C39 UNL     1       2.306   2.495  11.089  1.00  0.00     0.149 C 
BRANCH  24  25
HETATM   25  O6  UNL     1       2.223   1.386  10.246  1.00  0.00    -0.393 OA
ATOM     26  H6  UNL     1       1.481   1.430   9.654  1.00  0.00     0.210 HD
ENDBRANCH  24  25
ENDBRANCH  14  16
ENDBRANCH   3  12
ENDBRANCH   2   3
ENDBRANCH   1   2
BRANCH   1  27
HETATM   27  O1  UNL     1       5.862   1.101  14.574  1.00  0.00    -0.394 OA
ATOM     28  H1  UNL     1       5.398   0.325  14.865  1.00  0.00     0.210 HD
ENDBRANCH   1  27
BRANCH   1  29
HETATM   29  C12 UNL     1       6.653  -0.339  12.919  1.00  0.00     0.305 C 
BRANCH  29  30
HETATM   30  N1  UNL     1       6.862  -1.118  14.152  1.00  0.00     0.108 N 
HETATM   31  C13 UNL     1       8.295  -1.274  14.354  1.00  0.00     0.303 C 
HETATM   32  C14 UNL     1       8.434  -2.007  15.698  1.00  0.00     0.303 C 
HETATM   33  N2  UNL     1       8.013  -3.386  15.533  1.00  0.00     0.097 N 
HETATM   34  C23 UNL     1       7.176  -3.567  14.381  1.00  0.00     0.318 C 
HETATM   35  C24 UNL     1       6.267  -2.410  14.083  1.00  0.00     0.342 C 
BRANCH  33  36
HETATM   36  C15 UNL     1       7.478  -3.950  16.754  1.00  0.00     0.311 C 
BRANCH  36  37
HETATM   37  C16 UNL     1       8.123  -5.297  16.925  1.00  0.00    -0.027 A 
HETATM   38  C17 UNL     1       9.382  -5.584  16.446  1.00  0.00     0.012 A 
HETATM   39  C18 UNL     1       9.960  -6.845  16.611  1.00  0.00     0.040 A 
HETATM   40  C19 UNL     1       9.289  -7.838  17.258  1.00  0.00     0.105 A 
HETATM   41  C20 UNL     1       8.032  -7.573  17.745  1.00  0.00     0.105 A 
HETATM   42  O3  UNL     1       9.609  -9.150  17.559  1.00  0.00    -0.323 OA
HETATM   43  C21 UNL     1       7.447  -6.320  17.585  1.00  0.00     0.048 A 
HETATM   44  O2  UNL     1       7.602  -8.757  18.347  1.00  0.00    -0.323 OA
HETATM   45  C22 UNL     1       8.740  -9.599  18.552  1.00  0.00     0.352 C 
ENDBRANCH  36  37
ENDBRANCH  33  36
BRANCH  35  46
HETATM   46  C25 UNL     1       5.019  -2.463  14.902  1.00  0.00     0.253 C 
HETATM   47  O4  UNL     1       4.724  -1.505  15.659  1.00  0.00    -0.271 OA
HETATM   48  N3  UNL     1       4.109  -3.555  14.884  1.00  0.00    -0.351 N 
ATOM     49  H3  UNL     1       4.313  -4.353  14.282  1.00  0.00     0.163 HD
BRANCH  48  50
HETATM   50  C26 UNL     1       2.905  -3.579  15.689  1.00  0.00     0.022 C 
HETATM   51  C27 UNL     1       3.143  -3.467  17.157  1.00  0.00     0.037 C 
HETATM   52  C28 UNL     1       1.998  -2.439  15.227  1.00  0.00     0.037 C 
HETATM   53  C29 UNL     1       2.193  -4.887  15.419  1.00  0.00     0.037 C 
ENDBRANCH  48  50
ENDBRANCH  35  46
ENDBRANCH  29  30
ENDBRANCH   1  29
TORSDOF 14
ENDMDL
