MODEL 12
REMARK VINA RESULT: -10.046248143      1.746      4.880
REMARK  14 active torsions:
REMARK  status: ('A' for Active; 'I' for Inactive)
REMARK    1  A    between atoms: C2_2  and  C3_3 
REMARK    2  A    between atoms: C2_2  and  C9_9 
REMARK    3  A    between atoms: C9_9  and  C10_10 
REMARK    4  A    between atoms: C9_9  and  C30_39 
REMARK    5  A    between atoms: C10_10  and  C11_11 
REMARK    6  A    between atoms: C11_11  and  O1_12 
REMARK    7  A    between atoms: C11_11  and  C12_14 
REMARK    8  A    between atoms: C12_14  and  N1_15 
REMARK    9  A    between atoms: N2_18  and  C15_19 
REMARK   10  A    between atoms: C15_19  and  C16_20 
REMARK   11  A    between atoms: C24_30  and  C25_31 
REMARK       I    between atoms: C25_31  and  N3_33 
REMARK   12  A    between atoms: N3_33  and  C26_35 
REMARK       I    between atoms: C30_39  and  N4_41 
REMARK   13  A    between atoms: N4_41  and  C31_43 
REMARK   14  A    between atoms: C39_51  and  O6_52 
ROOT
HETATM    1  C11 UNL     1       5.720  -2.541  13.181  1.00  0.00     0.147 C 
ENDROOT
BRANCH   1   2
HETATM    2  C10 UNL     1       6.279  -1.178  13.497  1.00  0.00     0.048 C 
BRANCH   2   3
HETATM    3  C9  UNL     1       5.732  -0.148  12.579  1.00  0.00     0.088 C 
BRANCH   3   4
HETATM    4  C2  UNL     1       4.639   0.719  13.109  1.00  0.00     0.027 C 
HETATM    5  C1  UNL     1       4.534   0.518  14.628  1.00  0.00     0.016 C 
BRANCH   4   6
HETATM    6  C3  UNL     1       3.301   0.467  12.521  1.00  0.00    -0.054 A 
HETATM    7  C4  UNL     1       2.187   0.283  13.310  1.00  0.00     0.007 A 
HETATM    8  C5  UNL     1       0.932   0.056  12.753  1.00  0.00     0.001 A 
HETATM    9  C6  UNL     1       0.840   0.022  11.380  1.00  0.00     0.000 A 
HETATM   10  C7  UNL     1       1.953   0.205  10.593  1.00  0.00     0.001 A 
HETATM   11  C8  UNL     1       3.192   0.429  11.148  1.00  0.00     0.007 A 
ENDBRANCH   4   6
ENDBRANCH   3   4
BRANCH   3  12
HETATM   12  C30 UNL     1       6.795   0.578  11.832  1.00  0.00     0.223 C 
HETATM   13  O5  UNL     1       7.920   0.060  11.629  1.00  0.00    -0.273 OA
HETATM   14  N4  UNL     1       6.647   1.893  11.296  1.00  0.00    -0.350 N 
ATOM     15  H4  UNL     1       5.757   2.376  11.419  1.00  0.00     0.163 HD
BRANCH  14  16
HETATM   16  C31 UNL     1       7.702   2.561  10.593  1.00  0.00     0.147 C 
HETATM   17  C32 UNL     1       7.637   2.480   9.129  1.00  0.00    -0.027 A 
HETATM   18  C33 UNL     1       7.105   1.624   8.169  1.00  0.00     0.010 A 
HETATM   19  C37 UNL     1       8.317   3.592   8.638  1.00  0.00    -0.047 A 
HETATM   20  C34 UNL     1       7.247   1.867   6.815  1.00  0.00     0.001 A 
HETATM   21  C35 UNL     1       7.927   2.978   6.366  1.00  0.00     0.001 A 
HETATM   22  C36 UNL     1       8.471   3.855   7.296  1.00  0.00     0.008 A 
HETATM   23  C38 UNL     1       8.828   4.421   9.782  1.00  0.00     0.073 C 
HETATM   24  C39 UNL     1       7.791   4.026  10.846  1.00  0.00     0.149 C 
BRANCH  24  25
HETATM   25  O6  UNL     1       6.623   4.704  10.497  1.00  0.00    -0.393 OA
ATOM     26  H6  UNL     1       6.776   5.394   9.862  1.00  0.00     0.210 HD
ENDBRANCH  24  25
ENDBRANCH  14  16
ENDBRANCH   3  12
ENDBRANCH   2   3
ENDBRANCH   1   2
BRANCH   1  27
HETATM   27  O1  UNL     1       5.348  -2.754  11.888  1.00  0.00    -0.394 OA
ATOM     28  H1  UNL     1       5.926  -3.301  11.370  1.00  0.00     0.210 HD
ENDBRANCH   1  27
BRANCH   1  29
HETATM   29  C12 UNL     1       4.530  -2.867  14.069  1.00  0.00     0.305 C 
BRANCH  29  30
HETATM   30  N1  UNL     1       4.745  -4.176  14.711  1.00  0.00     0.108 N 
HETATM   31  C13 UNL     1       3.501  -4.929  14.637  1.00  0.00     0.303 C 
HETATM   32  C14 UNL     1       3.829  -6.307  15.235  1.00  0.00     0.303 C 
HETATM   33  N2  UNL     1       4.003  -6.173  16.670  1.00  0.00     0.097 N 
HETATM   34  C23 UNL     1       4.291  -4.822  17.061  1.00  0.00     0.318 C 
HETATM   35  C24 UNL     1       5.124  -4.053  16.078  1.00  0.00     0.342 C 
BRANCH  33  36
HETATM   36  C15 UNL     1       4.915  -7.159  17.211  1.00  0.00     0.311 C 
BRANCH  36  37
HETATM   37  C16 UNL     1       4.118  -8.416  17.417  1.00  0.00    -0.027 A 
HETATM   38  C17 UNL     1       4.655  -9.672  17.248  1.00  0.00     0.012 A 
HETATM   39  C18 UNL     1       3.894 -10.828  17.440  1.00  0.00     0.040 A 
HETATM   40  C19 UNL     1       2.584 -10.745  17.805  1.00  0.00     0.105 A 
HETATM   41  C20 UNL     1       2.028  -9.501  17.979  1.00  0.00     0.105 A 
HETATM   42  O3  UNL     1       1.615 -11.699  18.057  1.00  0.00    -0.323 OA
HETATM   43  C21 UNL     1       2.778  -8.344  17.789  1.00  0.00     0.048 A 
HETATM   44  O2  UNL     1       0.699  -9.728  18.343  1.00  0.00    -0.323 OA
HETATM   45  C22 UNL     1       0.570 -11.093  18.753  1.00  0.00     0.352 C 
ENDBRANCH  36  37
ENDBRANCH  33  36
BRANCH  35  46
HETATM   46  C25 UNL     1       6.582  -4.331  16.251  1.00  0.00     0.253 C 
HETATM   47  O4  UNL     1       7.144  -4.069  17.344  1.00  0.00    -0.271 OA
HETATM   48  N3  UNL     1       7.404  -4.892  15.237  1.00  0.00    -0.351 N 
ATOM     49  H3  UNL     1       6.984  -5.119  14.335  1.00  0.00     0.163 HD
BRANCH  48  50
HETATM   50  C26 UNL     1       8.815  -5.153  15.433  1.00  0.00     0.022 C 
HETATM   51  C27 UNL     1       9.621  -3.946  15.778  1.00  0.00     0.037 C 
HETATM   52  C28 UNL     1       8.960  -6.200  16.536  1.00  0.00     0.037 C 
HETATM   53  C29 UNL     1       9.361  -5.740  14.150  1.00  0.00     0.037 C 
ENDBRANCH  48  50
ENDBRANCH  35  46
ENDBRANCH  29  30
ENDBRANCH   1  29
TORSDOF 14
ENDMDL
