MODEL 4
REMARK VINA RESULT: -10.408841193      2.961      4.890
REMARK  14 active torsions:
REMARK  status: ('A' for Active; 'I' for Inactive)
REMARK    1  A    between atoms: C2_2  and  C3_3 
REMARK    2  A    between atoms: C2_2  and  C9_9 
REMARK    3  A    between atoms: C9_9  and  C10_10 
REMARK    4  A    between atoms: C9_9  and  C30_39 
REMARK    5  A    between atoms: C10_10  and  C11_11 
REMARK    6  A    between atoms: C11_11  and  O1_12 
REMARK    7  A    between atoms: C11_11  and  C12_14 
REMARK    8  A    between atoms: C12_14  and  N1_15 
REMARK    9  A    between atoms: N2_18  and  C15_19 
REMARK   10  A    between atoms: C15_19  and  C16_20 
REMARK   11  A    between atoms: C24_30  and  C25_31 
REMARK       I    between atoms: C25_31  and  N3_33 
REMARK   12  A    between atoms: N3_33  and  C26_35 
REMARK       I    between atoms: C30_39  and  N4_41 
REMARK   13  A    between atoms: N4_41  and  C31_43 
REMARK   14  A    between atoms: C39_51  and  O6_52 
ROOT
HETATM    1  C11 UNL     1       4.026  -3.593  16.773  1.00  0.00     0.147 C 
ENDROOT
BRANCH   1   2
HETATM    2  C10 UNL     1       5.400  -3.681  16.161  1.00  0.00     0.048 C 
BRANCH   2   3
HETATM    3  C9  UNL     1       5.805  -2.383  15.567  1.00  0.00     0.088 C 
BRANCH   3   4
HETATM    4  C2  UNL     1       7.269  -2.099  15.498  1.00  0.00     0.027 C 
HETATM    5  C1  UNL     1       7.547  -1.210  14.276  1.00  0.00     0.016 C 
BRANCH   4   6
HETATM    6  C3  UNL     1       8.133  -3.299  15.395  1.00  0.00    -0.054 A 
HETATM    7  C4  UNL     1       7.999  -4.203  14.363  1.00  0.00     0.007 A 
HETATM    8  C5  UNL     1       8.820  -5.322  14.266  1.00  0.00     0.001 A 
HETATM    9  C6  UNL     1       9.776  -5.498  15.241  1.00  0.00     0.000 A 
HETATM   10  C7  UNL     1       9.909  -4.597  16.271  1.00  0.00     0.001 A 
HETATM   11  C8  UNL     1       9.095  -3.491  16.363  1.00  0.00     0.007 A 
ENDBRANCH   4   6
ENDBRANCH   3   4
BRANCH   3  12
HETATM   12  C30 UNL     1       5.050  -2.058  14.326  1.00  0.00     0.223 C 
HETATM   13  O5  UNL     1       4.912  -2.902  13.407  1.00  0.00    -0.273 OA
HETATM   14  N4  UNL     1       4.433  -0.797  14.066  1.00  0.00    -0.350 N 
ATOM     15  H4  UNL     1       4.500  -0.063  14.771  1.00  0.00     0.163 HD
BRANCH  14  16
HETATM   16  C31 UNL     1       3.724  -0.524  12.851  1.00  0.00     0.147 C 
HETATM   17  C32 UNL     1       2.288  -0.263  13.002  1.00  0.00    -0.027 A 
HETATM   18  C33 UNL     1       1.273  -0.584  13.898  1.00  0.00     0.010 A 
HETATM   19  C37 UNL     1       1.908   0.518  11.913  1.00  0.00    -0.047 A 
HETATM   20  C34 UNL     1      -0.028  -0.153  13.714  1.00  0.00     0.001 A 
HETATM   21  C35 UNL     1      -0.367   0.619  12.624  1.00  0.00     0.001 A 
HETATM   22  C36 UNL     1       0.621   0.960  11.709  1.00  0.00     0.008 A 
HETATM   23  C38 UNL     1       3.101   0.787  11.040  1.00  0.00     0.073 C 
HETATM   24  C39 UNL     1       4.206   0.669  12.102  1.00  0.00     0.149 C 
BRANCH  24  25
HETATM   25  O6  UNL     1       4.127   1.843  12.852  1.00  0.00    -0.393 OA
ATOM     26  H6  UNL     1       4.738   1.854  13.580  1.00  0.00     0.210 HD
ENDBRANCH  24  25
ENDBRANCH  14  16
ENDBRANCH   3  12
ENDBRANCH   2   3
ENDBRANCH   1   2
BRANCH   1  27
HETATM   27  O1  UNL     1       3.739  -2.446  17.449  1.00  0.00    -0.394 OA
ATOM     28  H1  UNL     1       3.618  -2.531  18.387  1.00  0.00     0.210 HD
ENDBRANCH   1  27
BRANCH   1  29
HETATM   29  C12 UNL     1       3.763  -4.764  17.707  1.00  0.00     0.305 C 
BRANCH  29  30
HETATM   30  N1  UNL     1       4.073  -6.024  17.008  1.00  0.00     0.108 N 
HETATM   31  C13 UNL     1       2.879  -6.454  16.295  1.00  0.00     0.303 C 
HETATM   32  C14 UNL     1       3.304  -7.712  15.521  1.00  0.00     0.303 C 
HETATM   33  N2  UNL     1       3.494  -8.805  16.456  1.00  0.00     0.097 N 
HETATM   34  C23 UNL     1       3.702  -8.344  17.800  1.00  0.00     0.318 C 
HETATM   35  C24 UNL     1       4.466  -7.057  17.906  1.00  0.00     0.342 C 
BRANCH  33  36
HETATM   36  C15 UNL     1       4.476  -9.764  15.995  1.00  0.00     0.311 C 
BRANCH  36  37
HETATM   37  C16 UNL     1       3.774 -10.664  15.018  1.00  0.00    -0.027 A 
HETATM   38  C17 UNL     1       3.930 -10.546  13.655  1.00  0.00     0.012 A 
HETATM   39  C18 UNL     1       3.263 -11.391  12.764  1.00  0.00     0.040 A 
HETATM   40  C19 UNL     1       2.430 -12.367  13.223  1.00  0.00     0.105 A 
HETATM   41  C20 UNL     1       2.261 -12.502  14.580  1.00  0.00     0.105 A 
HETATM   42  O3  UNL     1       1.660 -13.323  12.586  1.00  0.00    -0.323 OA
HETATM   43  C21 UNL     1       2.921 -11.665  15.475  1.00  0.00     0.048 A 
HETATM   44  O2  UNL     1       1.369 -13.563  14.745  1.00  0.00    -0.323 OA
HETATM   45  C22 UNL     1       1.307 -14.297  13.519  1.00  0.00     0.352 C 
ENDBRANCH  36  37
ENDBRANCH  33  36
BRANCH  35  46
HETATM   46  C25 UNL     1       5.942  -7.284  17.838  1.00  0.00     0.253 C 
HETATM   47  O4  UNL     1       6.661  -6.526  17.141  1.00  0.00    -0.271 OA
HETATM   48  N3  UNL     1       6.612  -8.329  18.530  1.00  0.00    -0.351 N 
ATOM     49  H3  UNL     1       6.063  -8.966  19.107  1.00  0.00     0.163 HD
BRANCH  48  50
HETATM   50  C26 UNL     1       8.045  -8.525  18.447  1.00  0.00     0.022 C 
HETATM   51  C27 UNL     1       8.846  -7.278  18.614  1.00  0.00     0.037 C 
HETATM   52  C28 UNL     1       8.452  -9.543  19.512  1.00  0.00     0.037 C 
HETATM   53  C29 UNL     1       8.355  -9.114  17.089  1.00  0.00     0.037 C 
ENDBRANCH  48  50
ENDBRANCH  35  46
ENDBRANCH  29  30
ENDBRANCH   1  29
TORSDOF 14
ENDMDL
