MODEL 3
REMARK VINA RESULT: -6.708704291      1.745      3.398
REMARK  4 active torsions:
REMARK  status: ('A' for Active; 'I' for Inactive)
REMARK    1  A    between atoms: C6_10  and  C7_11 
REMARK    2  A    between atoms: C7_11  and  O2_12 
REMARK    3  A    between atoms: C8_14  and  O3_15 
REMARK    4  A    between atoms: C9_17  and  O4_18 
ROOT
HETATM    1  C1  UNL     1     144.233  71.803  65.642  1.00  0.00     0.158 C 
HETATM    2  N1  UNL     1     144.418  70.399  65.248  1.00  0.00    -0.334 N 
HETATM    3  C2  UNL     1     143.729  69.949  64.152  1.00  0.00     0.184 A 
HETATM    4  N2  UNL     1     143.870  68.662  63.831  1.00  0.00    -0.348 N 
ATOM      5  H2  UNL     1     143.370  68.305  63.018  1.00  0.00     0.167 HD
HETATM    6  C3  UNL     1     144.637  67.823  64.527  1.00  0.00     0.096 A 
HETATM    7  C4  UNL     1     144.853  66.451  64.407  1.00  0.00     0.109 A 
HETATM    8  C5  UNL     1     144.498  65.657  63.289  1.00  0.00     0.108 C 
HETATM    9  O1  UNL     1     144.439  66.162  62.012  1.00  0.00    -0.340 OA
HETATM   10  C6  UNL     1     144.509  64.917  61.308  1.00  0.00     0.183 C 
HETATM   11  C8  UNL     1     143.456  64.036  61.929  1.00  0.00     0.184 C 
HETATM   12  C9  UNL     1     143.438  64.617  63.369  1.00  0.00     0.208 C 
HETATM   13  N3  UNL     1     145.660  66.105  65.442  1.00  0.00    -0.295 N 
ATOM     14  H3  UNL     1     145.998  65.164  65.644  1.00  0.00     0.187 HD
HETATM   15  N4  UNL     1     145.937  67.198  66.149  1.00  0.00    -0.295 N 
ATOM     16  H4  UNL     1     146.533  67.211  66.977  1.00  0.00     0.187 HD
HETATM   17  C10 UNL     1     145.337  68.276  65.640  1.00  0.00     0.118 A 
HETATM   18  C11 UNL     1     145.201  69.609  65.976  1.00  0.00     0.149 A 
HETATM   19  N5  UNL     1     145.966  70.101  67.076  1.00  0.00    -0.080 NA
ENDROOT
BRANCH  12  20
HETATM   20  O4  UNL     1     143.535  63.684  64.360  1.00  0.00    -0.386 OA
ATOM     21  H4  UNL     1     144.385  63.291  64.518  1.00  0.00     0.210 HD
ENDBRANCH  12  20
BRANCH  10  22
HETATM   22  C7  UNL     1     144.470  65.112  59.838  1.00  0.00     0.199 C 
BRANCH  22  23
HETATM   23  O2  UNL     1     143.101  65.148  59.432  1.00  0.00    -0.398 OA
ATOM     24  H2  UNL     1     142.619  65.658  60.072  1.00  0.00     0.209 HD
ENDBRANCH  22  23
ENDBRANCH  10  22
BRANCH  11  25
HETATM   25  O3  UNL     1     143.891  62.748  62.010  1.00  0.00    -0.390 OA
ATOM     26  H3  UNL     1     143.207  62.182  62.349  1.00  0.00     0.210 HD
ENDBRANCH  11  25
TORSDOF 4
ENDMDL
