MODEL 5
REMARK VINA RESULT: -6.515001075      6.725      9.847
REMARK  4 active torsions:
REMARK  status: ('A' for Active; 'I' for Inactive)
REMARK    1  A    between atoms: C6_10  and  C7_11 
REMARK    2  A    between atoms: C7_11  and  O2_12 
REMARK    3  A    between atoms: C8_14  and  O3_15 
REMARK    4  A    between atoms: C9_17  and  O4_18 
ROOT
HETATM    1  C1  UNL     1     144.328  68.003  65.472  1.00  0.00     0.158 C 
HETATM    2  N1  UNL     1     144.902  69.352  65.367  1.00  0.00    -0.334 N 
HETATM    3  C2  UNL     1     146.004  69.636  66.131  1.00  0.00     0.184 A 
HETATM    4  N2  UNL     1     146.489  70.877  66.060  1.00  0.00    -0.348 N 
ATOM      5  H2  UNL     1     147.310  71.112  66.617  1.00  0.00     0.167 HD
HETATM    6  C3  UNL     1     145.947  71.823  65.293  1.00  0.00     0.096 A 
HETATM    7  C4  UNL     1     146.248  73.176  65.141  1.00  0.00     0.109 A 
HETATM    8  C5  UNL     1     147.434  73.811  65.587  1.00  0.00     0.108 C 
HETATM    9  O1  UNL     1     148.632  73.148  65.692  1.00  0.00    -0.340 OA
HETATM   10  C6  UNL     1     149.487  74.295  65.711  1.00  0.00     0.183 C 
HETATM   11  C8  UNL     1     148.921  75.210  66.765  1.00  0.00     0.184 C 
HETATM   12  C9  UNL     1     147.422  74.815  66.684  1.00  0.00     0.208 C 
HETATM   13  N3  UNL     1     145.312  73.677  64.295  1.00  0.00    -0.295 N 
ATOM     14  H3  UNL     1     145.247  74.647  63.987  1.00  0.00     0.187 HD
HETATM   15  N4  UNL     1     144.492  72.692  63.936  1.00  0.00    -0.295 N 
ATOM     16  H4  UNL     1     143.705  72.804  63.297  1.00  0.00     0.187 HD
HETATM   17  C10 UNL     1     144.829  71.539  64.517  1.00  0.00     0.118 A 
HETATM   18  C11 UNL     1     144.324  70.254  64.579  1.00  0.00     0.149 A 
HETATM   19  N5  UNL     1     143.217  69.931  63.739  1.00  0.00    -0.080 NA
ENDROOT
BRANCH  12  20
HETATM   20  O4  UNL     1     146.560  75.867  66.573  1.00  0.00    -0.386 OA
ATOM     21  H4  UNL     1     145.677  75.755  66.906  1.00  0.00     0.210 HD
ENDBRANCH  12  20
BRANCH  10  22
HETATM   22  C7  UNL     1     150.918  73.917  65.819  1.00  0.00     0.199 C 
BRANCH  22  23
HETATM   23  O2  UNL     1     150.989  72.498  65.971  1.00  0.00    -0.398 OA
ATOM     24  H2  UNL     1     150.183  72.206  66.378  1.00  0.00     0.209 HD
ENDBRANCH  22  23
ENDBRANCH  10  22
BRANCH  11  25
HETATM   25  O3  UNL     1     149.025  76.513  66.381  1.00  0.00    -0.390 OA
ATOM     26  H3  UNL     1     149.910  76.834  66.516  1.00  0.00     0.210 HD
ENDBRANCH  11  25
TORSDOF 4
ENDMDL
