MODEL 2
REMARK VINA RESULT: -6.709836893      7.311      9.973
REMARK  4 active torsions:
REMARK  status: ('A' for Active; 'I' for Inactive)
REMARK    1  A    between atoms: C6_10  and  C7_11 
REMARK    2  A    between atoms: C7_11  and  O2_12 
REMARK    3  A    between atoms: C8_14  and  O3_15 
REMARK    4  A    between atoms: C9_17  and  O4_18 
ROOT
HETATM    1  C1  UNL     1     142.641  72.254  62.882  1.00  0.00     0.158 C 
HETATM    2  N1  UNL     1     143.795  72.112  63.782  1.00  0.00    -0.334 N 
HETATM    3  C2  UNL     1     144.611  73.201  63.946  1.00  0.00     0.184 A 
HETATM    4  N2  UNL     1     145.679  73.047  64.730  1.00  0.00    -0.348 N 
ATOM      5  H2  UNL     1     146.301  73.844  64.870  1.00  0.00     0.167 HD
HETATM    6  C3  UNL     1     145.970  71.897  65.339  1.00  0.00     0.096 A 
HETATM    7  C4  UNL     1     147.059  71.514  66.121  1.00  0.00     0.109 A 
HETATM    8  C5  UNL     1     148.010  72.393  66.695  1.00  0.00     0.108 C 
HETATM    9  O1  UNL     1     147.702  73.684  67.051  1.00  0.00    -0.340 OA
HETATM   10  C6  UNL     1     148.799  73.906  67.943  1.00  0.00     0.183 C 
HETATM   11  C8  UNL     1     150.035  73.499  67.183  1.00  0.00     0.184 C 
HETATM   12  C9  UNL     1     149.429  72.416  66.250  1.00  0.00     0.208 C 
HETATM   13  N3  UNL     1     146.877  70.198  66.400  1.00  0.00    -0.295 N 
ATOM     14  H3  UNL     1     147.508  69.614  66.949  1.00  0.00     0.187 HD
HETATM   15  N4  UNL     1     145.739  69.797  65.838  1.00  0.00    -0.295 N 
ATOM     16  H4  UNL     1     145.367  68.850  65.906  1.00  0.00     0.187 HD
HETATM   17  C10 UNL     1     145.145  70.791  65.175  1.00  0.00     0.118 A 
HETATM   18  C11 UNL     1     144.032  70.943  64.369  1.00  0.00     0.149 A 
HETATM   19  N5  UNL     1     143.142  69.835  64.244  1.00  0.00    -0.080 NA
ENDROOT
BRANCH  12  20
HETATM   20  O4  UNL     1     150.110  71.233  66.233  1.00  0.00    -0.386 OA
ATOM     21  H4  UNL     1     150.980  71.217  66.614  1.00  0.00     0.210 HD
ENDBRANCH  12  20
BRANCH  10  22
HETATM   22  C7  UNL     1     148.766  75.267  68.533  1.00  0.00     0.199 C 
BRANCH  22  23
HETATM   23  O2  UNL     1     149.653  75.286  69.652  1.00  0.00    -0.398 OA
ATOM     24  H2  UNL     1     149.707  76.179  69.969  1.00  0.00     0.209 HD
ENDBRANCH  22  23
ENDBRANCH  10  22
BRANCH  11  25
HETATM   25  O3  UNL     1     150.927  72.881  68.007  1.00  0.00    -0.390 OA
ATOM     26  H3  UNL     1     151.791  72.861  67.611  1.00  0.00     0.210 HD
ENDBRANCH  11  25
TORSDOF 4
ENDMDL
