MODEL 4
REMARK VINA RESULT: -6.523925855      6.955      9.108
REMARK  4 active torsions:
REMARK  status: ('A' for Active; 'I' for Inactive)
REMARK    1  A    between atoms: C6_10  and  C7_11 
REMARK    2  A    between atoms: C7_11  and  O2_12 
REMARK    3  A    between atoms: C8_14  and  O3_15 
REMARK    4  A    between atoms: C9_17  and  O4_18 
ROOT
HETATM    1  C1  UNL     1     149.755  77.156  67.573  1.00  0.00     0.158 C 
HETATM    2  N1  UNL     1     149.191  75.865  67.154  1.00  0.00    -0.334 N 
HETATM    3  C2  UNL     1     147.834  75.792  66.974  1.00  0.00     0.184 A 
HETATM    4  N2  UNL     1     147.329  74.605  66.637  1.00  0.00    -0.348 N 
ATOM      5  H2  UNL     1     146.322  74.525  66.495  1.00  0.00     0.167 HD
HETATM    6  C3  UNL     1     148.082  73.517  66.477  1.00  0.00     0.096 A 
HETATM    7  C4  UNL     1     147.747  72.190  66.208  1.00  0.00     0.109 A 
HETATM    8  C5  UNL     1     146.485  71.736  65.752  1.00  0.00     0.108 C 
HETATM    9  O1  UNL     1     145.650  72.518  64.990  1.00  0.00    -0.340 OA
HETATM   10  C6  UNL     1     144.830  71.469  64.464  1.00  0.00     0.183 C 
HETATM   11  C8  UNL     1     144.392  70.656  65.654  1.00  0.00     0.184 C 
HETATM   12  C9  UNL     1     145.600  70.893  66.599  1.00  0.00     0.208 C 
HETATM   13  N3  UNL     1     148.912  71.494  66.244  1.00  0.00    -0.295 N 
ATOM     14  H3  UNL     1     149.008  70.489  66.096  1.00  0.00     0.187 HD
HETATM   15  N4  UNL     1     149.906  72.339  66.503  1.00  0.00    -0.295 N 
ATOM     16  H4  UNL     1     150.887  72.069  66.574  1.00  0.00     0.187 HD
HETATM   17  C10 UNL     1     149.459  73.587  66.658  1.00  0.00     0.118 A 
HETATM   18  C11 UNL     1     149.992  74.815  67.002  1.00  0.00     0.149 A 
HETATM   19  N5  UNL     1     151.410  74.916  67.127  1.00  0.00    -0.080 NA
ENDROOT
BRANCH  12  20
HETATM   20  O4  UNL     1     146.131  69.759  67.141  1.00  0.00    -0.386 OA
ATOM     21  H4  UNL     1     146.411  69.790  68.049  1.00  0.00     0.210 HD
ENDBRANCH  12  20
BRANCH  10  22
HETATM   22  C7  UNL     1     143.779  71.992  63.556  1.00  0.00     0.199 C 
BRANCH  22  23
HETATM   23  O2  UNL     1     143.120  70.876  62.955  1.00  0.00    -0.398 OA
ATOM     24  H2  UNL     1     142.234  70.841  63.295  1.00  0.00     0.209 HD
ENDBRANCH  22  23
ENDBRANCH  10  22
BRANCH  11  25
HETATM   25  O3  UNL     1     144.363  69.328  65.347  1.00  0.00    -0.390 OA
ATOM     26  H3  UNL     1     143.971  68.828  66.054  1.00  0.00     0.210 HD
ENDBRANCH  11  25
TORSDOF 4
ENDMDL
