MODEL 2
REMARK VINA RESULT: -9.662078903      1.767      1.984
REMARK  7 active torsions:
REMARK  status: ('A' for Active; 'I' for Inactive)
REMARK    1  A    between atoms: P1_2  and  C1_5 
REMARK    2  A    between atoms: C1_5  and  C2_8 
REMARK    3  A    between atoms: C5_11  and  C6_12 
REMARK    4  A    between atoms: C7_13  and  C8_14 
REMARK    5  A    between atoms: C9_15  and  C10_16 
REMARK    6  A    between atoms: C13_19  and  C14_20 
REMARK    7  A    between atoms: C14_20  and  P2_23 
ROOT
HETATM    1  C6  UNL     1      34.589  10.190  91.780  1.00  0.00     0.011 C 
HETATM    2  C7  UNL     1      34.833   9.680  90.595  1.00  0.00     0.001 C 
ENDROOT
BRANCH   2   3
HETATM    3  C8  UNL     1      33.834   9.763  89.518  1.00  0.00     0.001 C 
HETATM    4  C9  UNL     1      32.661  10.301  89.785  1.00  0.00     0.011 C 
BRANCH   4   5
HETATM    5  C10 UNL     1      31.575  10.423  88.853  1.00  0.00    -0.036 A 
HETATM    6  C11 UNL     1      30.915  11.642  88.752  1.00  0.00     0.012 A 
HETATM    7  C12 UNL     1      29.951  11.855  87.768  1.00  0.00     0.015 A 
HETATM    8  C13 UNL     1      29.656  10.834  86.888  1.00  0.00     0.027 A 
HETATM    9  C15 UNL     1      30.345   9.621  87.031  1.00  0.00     0.015 A 
HETATM   10  C16 UNL     1      31.280   9.403  87.978  1.00  0.00     0.012 A 
BRANCH   8  11
HETATM   11  C14 UNL     1      28.688  11.074  85.784  1.00  0.00     0.380 C 
HETATM   12  F3  UNL     1      28.495  12.487  85.861  1.00  0.00    -0.185 F 
HETATM   13  F4  UNL     1      29.437  10.936  84.618  1.00  0.00    -0.185 F 
BRANCH  11  14
HETATM   14  P2  UNL     1      27.252  10.250  85.862  1.00  0.00     0.339 P 
HETATM   15  O4  UNL     1      25.934   9.465  86.002  1.00  0.00    -0.635 OA
HETATM   16  O5  UNL     1      26.734  10.945  84.505  1.00  0.00    -0.635 OA
HETATM   17  O6  UNL     1      26.900  10.971  87.308  1.00  0.00    -0.635 OA
ENDBRANCH  11  14
ENDBRANCH   8  11
ENDBRANCH   4   5
ENDBRANCH   2   3
BRANCH   1  18
HETATM   18  C5  UNL     1      35.600  10.146  92.845  1.00  0.00    -0.036 A 
HETATM   19  C4  UNL     1      35.292  10.563  94.082  1.00  0.00     0.012 A 
HETATM   20  C3  UNL     1      36.342  10.957  94.928  1.00  0.00     0.015 A 
HETATM   21  C2  UNL     1      37.652  10.907  94.484  1.00  0.00     0.027 A 
HETATM   22  C18 UNL     1      37.958  10.465  93.220  1.00  0.00     0.015 A 
HETATM   23  C17 UNL     1      36.928  10.081  92.406  1.00  0.00     0.012 A 
BRANCH  21  24
HETATM   24  C1  UNL     1      38.655  11.566  95.380  1.00  0.00     0.380 C 
HETATM   25  F1  UNL     1      39.831  11.482  94.585  1.00  0.00    -0.185 F 
HETATM   26  F2  UNL     1      38.339  12.881  95.457  1.00  0.00    -0.185 F 
BRANCH  24  27
HETATM   27  P1  UNL     1      38.815  10.892  96.977  1.00  0.00     0.339 P 
HETATM   28  O1  UNL     1      39.383  11.916  98.217  1.00  0.00    -0.635 OA
HETATM   29  O2  UNL     1      38.282   9.414  97.418  1.00  0.00    -0.635 OA
HETATM   30  O3  UNL     1      40.284  10.413  96.883  1.00  0.00    -0.635 OA
ENDBRANCH  24  27
ENDBRANCH  21  24
ENDBRANCH   1  18
TORSDOF 7
ENDMDL
