MODEL 14
REMARK VINA RESULT: -8.766199141      2.891      3.163
REMARK  7 active torsions:
REMARK  status: ('A' for Active; 'I' for Inactive)
REMARK    1  A    between atoms: P1_2  and  C1_5 
REMARK    2  A    between atoms: C1_5  and  C2_8 
REMARK    3  A    between atoms: C5_11  and  C6_12 
REMARK    4  A    between atoms: C7_13  and  C8_14 
REMARK    5  A    between atoms: C9_15  and  C10_16 
REMARK    6  A    between atoms: C13_19  and  C14_20 
REMARK    7  A    between atoms: C14_20  and  P2_23 
ROOT
HETATM    1  C6  UNL     1      34.504  10.519  91.846  1.00  0.00     0.011 C 
HETATM    2  C7  UNL     1      34.672   9.759  90.788  1.00  0.00     0.001 C 
ENDROOT
BRANCH   2   3
HETATM    3  C8  UNL     1      33.680   9.747  89.702  1.00  0.00     0.001 C 
HETATM    4  C9  UNL     1      32.599  10.490  89.827  1.00  0.00     0.011 C 
BRANCH   4   5
HETATM    5  C10 UNL     1      31.527  10.561  88.872  1.00  0.00    -0.036 A 
HETATM    6  C11 UNL     1      30.839  11.758  88.729  1.00  0.00     0.012 A 
HETATM    7  C12 UNL     1      29.888  11.922  87.722  1.00  0.00     0.015 A 
HETATM    8  C13 UNL     1      29.636  10.871  86.863  1.00  0.00     0.027 A 
HETATM    9  C15 UNL     1      30.353   9.680  87.050  1.00  0.00     0.015 A 
HETATM   10  C16 UNL     1      31.276   9.511  88.019  1.00  0.00     0.012 A 
BRANCH   8  11
HETATM   11  C14 UNL     1      28.683  11.058  85.736  1.00  0.00     0.380 C 
HETATM   12  F3  UNL     1      28.510  12.475  85.726  1.00  0.00    -0.185 F 
HETATM   13  F4  UNL     1      29.442  10.839  84.589  1.00  0.00    -0.185 F 
BRANCH  11  14
HETATM   14  P2  UNL     1      27.234  10.260  85.848  1.00  0.00     0.339 P 
HETATM   15  O4  UNL     1      25.906   9.500  86.019  1.00  0.00    -0.635 OA
HETATM   16  O5  UNL     1      26.707  10.947  84.490  1.00  0.00    -0.635 OA
HETATM   17  O6  UNL     1      26.918  11.005  87.290  1.00  0.00    -0.635 OA
ENDBRANCH  11  14
ENDBRANCH   8  11
ENDBRANCH   4   5
ENDBRANCH   2   3
BRANCH   1  18
HETATM   18  C5  UNL     1      35.513  10.564  92.912  1.00  0.00    -0.036 A 
HETATM   19  C4  UNL     1      36.117   9.437  93.316  1.00  0.00     0.012 A 
HETATM   20  C3  UNL     1      36.691   9.416  94.598  1.00  0.00     0.015 A 
HETATM   21  C2  UNL     1      36.629  10.536  95.408  1.00  0.00     0.027 A 
HETATM   22  C18 UNL     1      36.021  11.691  94.980  1.00  0.00     0.015 A 
HETATM   23  C17 UNL     1      35.468  11.702  93.729  1.00  0.00     0.012 A 
BRANCH  21  24
HETATM   24  C1  UNL     1      37.062  10.324  96.826  1.00  0.00     0.380 C 
HETATM   25  F1  UNL     1      38.467  10.511  96.715  1.00  0.00    -0.185 F 
HETATM   26  F2  UNL     1      36.595  11.361  97.561  1.00  0.00    -0.185 F 
BRANCH  24  27
HETATM   27  P1  UNL     1      36.591   8.813  97.552  1.00  0.00     0.339 P 
HETATM   28  O1  UNL     1      34.989   8.672  98.121  1.00  0.00    -0.635 OA
HETATM   29  O2  UNL     1      37.504   7.461  97.554  1.00  0.00    -0.635 OA
HETATM   30  O3  UNL     1      36.944   9.140  99.023  1.00  0.00    -0.635 OA
ENDBRANCH  24  27
ENDBRANCH  21  24
ENDBRANCH   1  18
TORSDOF 7
ENDMDL
