MODEL 6
REMARK VINA RESULT: -9.025818085      2.562     11.928
REMARK  7 active torsions:
REMARK  status: ('A' for Active; 'I' for Inactive)
REMARK    1  A    between atoms: P1_2  and  C1_5 
REMARK    2  A    between atoms: C1_5  and  C2_8 
REMARK    3  A    between atoms: C5_11  and  C6_12 
REMARK    4  A    between atoms: C7_13  and  C8_14 
REMARK    5  A    between atoms: C9_15  and  C10_16 
REMARK    6  A    between atoms: C13_19  and  C14_20 
REMARK    7  A    between atoms: C14_20  and  P2_23 
ROOT
HETATM    1  C6  UNL     1      32.819  10.555  90.154  1.00  0.00     0.011 C 
HETATM    2  C7  UNL     1      33.895   9.806  90.088  1.00  0.00     0.001 C 
ENDROOT
BRANCH   2   3
HETATM    3  C8  UNL     1      34.739   9.589  91.274  1.00  0.00     0.001 C 
HETATM    4  C9  UNL     1      35.105  10.636  91.987  1.00  0.00     0.011 C 
BRANCH   4   5
HETATM    5  C10 UNL     1      35.950  10.592  93.148  1.00  0.00    -0.036 A 
HETATM    6  C11 UNL     1      37.298  10.896  93.004  1.00  0.00     0.012 A 
HETATM    7  C12 UNL     1      38.130  11.006  94.118  1.00  0.00     0.015 A 
HETATM    8  C13 UNL     1      37.596  10.807  95.374  1.00  0.00     0.027 A 
HETATM    9  C15 UNL     1      36.231  10.498  95.469  1.00  0.00     0.015 A 
HETATM   10  C16 UNL     1      35.416  10.390  94.400  1.00  0.00     0.012 A 
BRANCH   8  11
HETATM   11  C14 UNL     1      38.453  10.999  96.574  1.00  0.00     0.380 C 
HETATM   12  F3  UNL     1      39.763  10.808  96.037  1.00  0.00    -0.185 F 
HETATM   13  F4  UNL     1      38.425  12.371  96.815  1.00  0.00    -0.185 F 
BRANCH  11  14
HETATM   14  P2  UNL     1      38.163   9.999  97.864  1.00  0.00     0.339 P 
HETATM   15  O4  UNL     1      37.920   9.015  99.023  1.00  0.00    -0.635 OA
HETATM   16  O5  UNL     1      37.899  11.259  98.832  1.00  0.00    -0.635 OA
HETATM   17  O6  UNL     1      39.696   9.389  97.754  1.00  0.00    -0.635 OA
ENDBRANCH  11  14
ENDBRANCH   8  11
ENDBRANCH   4   5
ENDBRANCH   2   3
BRANCH   1  18
HETATM   18  C5  UNL     1      31.952  10.739  88.983  1.00  0.00    -0.036 A 
HETATM   19  C4  UNL     1      31.104  11.777  88.930  1.00  0.00     0.012 A 
HETATM   20  C3  UNL     1      29.992  11.680  88.078  1.00  0.00     0.015 A 
HETATM   21  C2  UNL     1      29.791  10.540  87.319  1.00  0.00     0.027 A 
HETATM   22  C18 UNL     1      30.673   9.488  87.369  1.00  0.00     0.015 A 
HETATM   23  C17 UNL     1      31.754   9.594  88.200  1.00  0.00     0.012 A 
BRANCH  21  24
HETATM   24  C1  UNL     1      28.463  10.455  86.634  1.00  0.00     0.380 C 
HETATM   25  F1  UNL     1      28.173   9.069  86.768  1.00  0.00    -0.185 F 
HETATM   26  F2  UNL     1      27.559  11.110  87.402  1.00  0.00    -0.185 F 
BRANCH  24  27
HETATM   27  P1  UNL     1      28.404  11.048  84.998  1.00  0.00     0.339 P 
HETATM   28  O1  UNL     1      29.847  11.009  84.088  1.00  0.00    -0.635 OA
HETATM   29  O2  UNL     1      27.037  11.458  84.209  1.00  0.00    -0.635 OA
HETATM   30  O3  UNL     1      28.774  12.526  85.272  1.00  0.00    -0.635 OA
ENDBRANCH  24  27
ENDBRANCH  21  24
ENDBRANCH   1  18
TORSDOF 7
ENDMDL
