MODEL 13
REMARK VINA RESULT: -8.797736901      1.995      2.439
REMARK  7 active torsions:
REMARK  status: ('A' for Active; 'I' for Inactive)
REMARK    1  A    between atoms: P1_2  and  C1_5 
REMARK    2  A    between atoms: C1_5  and  C2_8 
REMARK    3  A    between atoms: C5_11  and  C6_12 
REMARK    4  A    between atoms: C7_13  and  C8_14 
REMARK    5  A    between atoms: C9_15  and  C10_16 
REMARK    6  A    between atoms: C13_19  and  C14_20 
REMARK    7  A    between atoms: C14_20  and  P2_23 
ROOT
HETATM    1  C6  UNL     1      35.207   9.465  92.265  1.00  0.00     0.011 C 
HETATM    2  C7  UNL     1      35.351   9.825  91.011  1.00  0.00     0.001 C 
ENDROOT
BRANCH   2   3
HETATM    3  C8  UNL     1      34.286   9.575  90.027  1.00  0.00     0.001 C 
HETATM    4  C9  UNL     1      33.226  10.358  90.032  1.00  0.00     0.011 C 
BRANCH   4   5
HETATM    5  C10 UNL     1      32.092  10.223  89.160  1.00  0.00    -0.036 A 
HETATM    6  C11 UNL     1      31.217  11.294  89.031  1.00  0.00     0.012 A 
HETATM    7  C12 UNL     1      30.183  11.266  88.095  1.00  0.00     0.015 A 
HETATM    8  C13 UNL     1      30.038  10.153  87.292  1.00  0.00     0.027 A 
HETATM    9  C15 UNL     1      30.943   9.095  87.462  1.00  0.00     0.015 A 
HETATM   10  C16 UNL     1      31.947   9.111  88.363  1.00  0.00     0.012 A 
BRANCH   8  11
HETATM   11  C14 UNL     1      28.990  10.143  86.236  1.00  0.00     0.380 C 
HETATM   12  F3  UNL     1      29.443   9.094  85.380  1.00  0.00    -0.185 F 
HETATM   13  F4  UNL     1      27.876   9.573  86.848  1.00  0.00    -0.185 F 
BRANCH  11  14
HETATM   14  P2  UNL     1      28.756  11.559  85.408  1.00  0.00     0.339 P 
HETATM   15  O4  UNL     1      28.610  12.880  84.630  1.00  0.00    -0.635 OA
HETATM   16  O5  UNL     1      27.177  11.271  85.284  1.00  0.00    -0.635 OA
HETATM   17  O6  UNL     1      29.757  11.035  84.200  1.00  0.00    -0.635 OA
ENDBRANCH  11  14
ENDBRANCH   8  11
ENDBRANCH   4   5
ENDBRANCH   2   3
BRANCH   1  18
HETATM   18  C5  UNL     1      36.251   9.751  93.258  1.00  0.00    -0.036 A 
HETATM   19  C4  UNL     1      35.931   9.864  94.556  1.00  0.00     0.012 A 
HETATM   20  C3  UNL     1      36.803  10.583  95.392  1.00  0.00     0.015 A 
HETATM   21  C2  UNL     1      37.956  11.148  94.877  1.00  0.00     0.027 A 
HETATM   22  C18 UNL     1      38.282  11.014  93.549  1.00  0.00     0.015 A 
HETATM   23  C17 UNL     1      37.428  10.311  92.744  1.00  0.00     0.012 A 
BRANCH  21  24
HETATM   24  C1  UNL     1      38.679  12.078  95.801  1.00  0.00     0.380 C 
HETATM   25  F1  UNL     1      39.308  12.954  94.874  1.00  0.00    -0.185 F 
HETATM   26  F2  UNL     1      37.750  12.816  96.454  1.00  0.00    -0.185 F 
BRANCH  24  27
HETATM   27  P1  UNL     1      39.765  11.335  96.940  1.00  0.00     0.339 P 
HETATM   28  O1  UNL     1      40.890  12.341  97.737  1.00  0.00    -0.635 OA
HETATM   29  O2  UNL     1      39.661   9.788  97.447  1.00  0.00    -0.635 OA
HETATM   30  O3  UNL     1      40.934  11.016  95.977  1.00  0.00    -0.635 OA
ENDBRANCH  24  27
ENDBRANCH  21  24
ENDBRANCH   1  18
TORSDOF 7
ENDMDL
