MODEL 9
REMARK VINA RESULT: -9.007045080      1.954     11.974
REMARK  7 active torsions:
REMARK  status: ('A' for Active; 'I' for Inactive)
REMARK    1  A    between atoms: P1_2  and  C1_5 
REMARK    2  A    between atoms: C1_5  and  C2_8 
REMARK    3  A    between atoms: C5_11  and  C6_12 
REMARK    4  A    between atoms: C7_13  and  C8_14 
REMARK    5  A    between atoms: C9_15  and  C10_16 
REMARK    6  A    between atoms: C13_19  and  C14_20 
REMARK    7  A    between atoms: C14_20  and  P2_23 
ROOT
HETATM    1  C6  UNL     1      32.864  10.511  90.088  1.00  0.00     0.011 C 
HETATM    2  C7  UNL     1      33.943   9.768  89.997  1.00  0.00     0.001 C 
ENDROOT
BRANCH   2   3
HETATM    3  C8  UNL     1      34.800   9.535  91.170  1.00  0.00     0.001 C 
HETATM    4  C9  UNL     1      35.011  10.532  92.005  1.00  0.00     0.011 C 
BRANCH   4   5
HETATM    5  C10 UNL     1      35.846  10.472  93.173  1.00  0.00    -0.036 A 
HETATM    6  C11 UNL     1      37.188  10.810  93.052  1.00  0.00     0.012 A 
HETATM    7  C12 UNL     1      38.007  10.905  94.177  1.00  0.00     0.015 A 
HETATM    8  C13 UNL     1      37.465  10.656  95.422  1.00  0.00     0.027 A 
HETATM    9  C15 UNL     1      36.106  10.314  95.493  1.00  0.00     0.015 A 
HETATM   10  C16 UNL     1      35.304  10.220  94.413  1.00  0.00     0.012 A 
BRANCH   8  11
HETATM   11  C14 UNL     1      38.307  10.830  96.636  1.00  0.00     0.380 C 
HETATM   12  F3  UNL     1      37.585  11.830  97.356  1.00  0.00    -0.185 F 
HETATM   13  F4  UNL     1      38.075   9.686  97.396  1.00  0.00    -0.185 F 
BRANCH  11  14
HETATM   14  P2  UNL     1      39.887  11.267  96.389  1.00  0.00     0.339 P 
HETATM   15  O4  UNL     1      41.331  11.732  96.128  1.00  0.00    -0.635 OA
HETATM   16  O5  UNL     1      40.402  10.111  97.386  1.00  0.00    -0.635 OA
HETATM   17  O6  UNL     1      39.582  12.770  97.006  1.00  0.00    -0.635 OA
ENDBRANCH  11  14
ENDBRANCH   8  11
ENDBRANCH   4   5
ENDBRANCH   2   3
BRANCH   1  18
HETATM   18  C5  UNL     1      31.983  10.711  88.930  1.00  0.00    -0.036 A 
HETATM   19  C4  UNL     1      31.146  11.759  88.894  1.00  0.00     0.012 A 
HETATM   20  C3  UNL     1      30.022  11.678  88.056  1.00  0.00     0.015 A 
HETATM   21  C2  UNL     1      29.799  10.546  87.293  1.00  0.00     0.027 A 
HETATM   22  C18 UNL     1      30.670   9.484  87.325  1.00  0.00     0.015 A 
HETATM   23  C17 UNL     1      31.763   9.573  88.143  1.00  0.00     0.012 A 
BRANCH  21  24
HETATM   24  C1  UNL     1      28.461  10.479  86.625  1.00  0.00     0.380 C 
HETATM   25  F1  UNL     1      28.144   9.101  86.781  1.00  0.00    -0.185 F 
HETATM   26  F2  UNL     1      27.581  11.163  87.395  1.00  0.00    -0.185 F 
BRANCH  24  27
HETATM   27  P1  UNL     1      28.394  11.052  84.983  1.00  0.00     0.339 P 
HETATM   28  O1  UNL     1      29.835  11.010  84.069  1.00  0.00    -0.635 OA
HETATM   29  O2  UNL     1      27.022  11.444  84.192  1.00  0.00    -0.635 OA
HETATM   30  O3  UNL     1      28.756  12.535  85.238  1.00  0.00    -0.635 OA
ENDBRANCH  24  27
ENDBRANCH  21  24
ENDBRANCH   1  18
TORSDOF 7
ENDMDL
