MODEL 7
REMARK VINA RESULT: -4.719834233      1.930      4.169
REMARK  3 active torsions:
REMARK  status: ('A' for Active; 'I' for Inactive)
REMARK    1  A    between atoms: C1_2  and  C2_4 
REMARK    2  A    between atoms: C2_4  and  C3_6 
REMARK    3  A    between atoms: C3_6  and  P1_7 
ROOT
HETATM    1  C2  UNL     1      19.243   6.033   2.120  1.00  0.00     0.237 C 
HETATM    2  O3  UNL     1      18.607   6.434   3.115  1.00  0.00    -0.285 OA
ENDROOT
BRANCH   1   3
HETATM    3  C1  UNL     1      19.785   4.696   2.149  1.00  0.00     0.247 C 
HETATM    4  O1  UNL     1      19.069   3.759   2.545  1.00  0.00    -0.642 OA
HETATM    5  O2  UNL     1      21.084   4.407   1.748  1.00  0.00    -0.642 OA
ENDBRANCH   1   3
BRANCH   1   6
HETATM    6  C3  UNL     1      19.455   6.880   0.926  1.00  0.00     0.236 C 
BRANCH   6   7
HETATM    7  P1  UNL     1      20.665   8.098   0.964  1.00  0.00     0.267 P 
HETATM    8  O4  UNL     1      22.116   7.870   0.187  1.00  0.00    -0.639 OA
HETATM    9  O5  UNL     1      20.306   9.613   1.620  1.00  0.00    -0.639 OA
HETATM   10  O6  UNL     1      21.347   7.776   2.308  1.00  0.00    -0.639 OA
ENDBRANCH   6   7
ENDBRANCH   1   6
TORSDOF 3
ENDMDL
