MODEL 3
REMARK VINA RESULT: -4.763720896      1.616      4.408
REMARK  3 active torsions:
REMARK  status: ('A' for Active; 'I' for Inactive)
REMARK    1  A    between atoms: C1_2  and  C2_4 
REMARK    2  A    between atoms: C2_4  and  C3_6 
REMARK    3  A    between atoms: C3_6  and  P1_7 
ROOT
HETATM    1  C2  UNL     1      18.581   6.353   1.997  1.00  0.00     0.237 C 
HETATM    2  O3  UNL     1      18.629   6.842   3.143  1.00  0.00    -0.285 OA
ENDROOT
BRANCH   1   3
HETATM    3  C1  UNL     1      17.390   5.636   1.609  1.00  0.00     0.247 C 
HETATM    4  O1  UNL     1      17.001   5.699   0.430  1.00  0.00    -0.642 OA
HETATM    5  O2  UNL     1      16.654   4.869   2.506  1.00  0.00    -0.642 OA
ENDBRANCH   1   3
BRANCH   1   6
HETATM    6  C3  UNL     1      19.698   6.486   1.036  1.00  0.00     0.236 C 
BRANCH   6   7
HETATM    7  P1  UNL     1      20.658   7.909   1.055  1.00  0.00     0.267 P 
HETATM    8  O4  UNL     1      22.115   7.956   0.257  1.00  0.00    -0.639 OA
HETATM    9  O5  UNL     1      20.031   9.332   1.716  1.00  0.00    -0.639 OA
HETATM   10  O6  UNL     1      21.408   7.725   2.389  1.00  0.00    -0.639 OA
ENDBRANCH   6   7
ENDBRANCH   1   6
TORSDOF 3
ENDMDL
