MODEL 1
REMARK VINA RESULT: -4.945697246      0.000      0.000
REMARK  3 active torsions:
REMARK  status: ('A' for Active; 'I' for Inactive)
REMARK    1  A    between atoms: C1_2  and  C2_4 
REMARK    2  A    between atoms: C2_4  and  C3_6 
REMARK    3  A    between atoms: C3_6  and  P1_7 
ROOT
HETATM    1  C2  UNL     1      20.336   7.012   1.642  1.00  0.00     0.237 C 
HETATM    2  O3  UNL     1      20.669   6.577   2.761  1.00  0.00    -0.285 OA
ENDROOT
BRANCH   1   3
HETATM    3  C1  UNL     1      20.940   8.238   1.177  1.00  0.00     0.247 C 
HETATM    4  O1  UNL     1      20.393   9.323   1.444  1.00  0.00    -0.642 OA
HETATM    5  O2  UNL     1      22.117   8.259   0.439  1.00  0.00    -0.642 OA
ENDBRANCH   1   3
BRANCH   1   6
HETATM    6  C3  UNL     1      19.351   6.314   0.786  1.00  0.00     0.236 C 
BRANCH   6   7
HETATM    7  P1  UNL     1      17.788   5.975   1.410  1.00  0.00     0.267 P 
HETATM    8  O4  UNL     1      17.314   6.588   2.880  1.00  0.00    -0.639 OA
HETATM    9  O5  UNL     1      16.654   5.183   0.439  1.00  0.00    -0.639 OA
HETATM   10  O6  UNL     1      18.041   4.608   2.075  1.00  0.00    -0.639 OA
ENDBRANCH   6   7
ENDBRANCH   1   6
TORSDOF 3
ENDMDL
