MODEL 9
REMARK VINA RESULT: -4.603554320      6.316      7.357
REMARK  3 active torsions:
REMARK  status: ('A' for Active; 'I' for Inactive)
REMARK    1  A    between atoms: C1_2  and  C2_4 
REMARK    2  A    between atoms: C2_4  and  C3_6 
REMARK    3  A    between atoms: C3_6  and  P1_7 
ROOT
HETATM    1  C2  UNL     1      13.118   6.853   5.076  1.00  0.00     0.237 C 
HETATM    2  O3  UNL     1      13.887   7.188   5.998  1.00  0.00    -0.285 OA
ENDROOT
BRANCH   1   3
HETATM    3  C1  UNL     1      12.545   7.890   4.253  1.00  0.00     0.247 C 
HETATM    4  O1  UNL     1      13.287   8.770   3.780  1.00  0.00    -0.642 OA
HETATM    5  O2  UNL     1      11.187   7.948   3.962  1.00  0.00    -0.642 OA
ENDBRANCH   1   3
BRANCH   1   6
HETATM    6  C3  UNL     1      12.781   5.438   4.807  1.00  0.00     0.236 C 
BRANCH   6   7
HETATM    7  P1  UNL     1      14.016   4.364   4.286  1.00  0.00     0.267 P 
HETATM    8  O4  UNL     1      13.673   2.767   3.983  1.00  0.00    -0.639 OA
HETATM    9  O5  UNL     1      15.539   4.974   3.885  1.00  0.00    -0.639 OA
HETATM   10  O6  UNL     1      14.630   3.964   5.641  1.00  0.00    -0.639 OA
ENDBRANCH   6   7
ENDBRANCH   1   6
TORSDOF 3
ENDMDL
