MODEL 10
REMARK VINA RESULT: -9.415875153      1.593      2.733
REMARK  1 active torsions:
REMARK  status: ('A' for Active; 'I' for Inactive)
REMARK    1  A    between atoms: C19_20  and  O2_21 
ROOT
HETATM    1  C1  UNL     1      20.085   8.423  33.427  1.00  0.00     0.018 C 
HETATM    2  C2  UNL     1      19.696   9.502  32.443  1.00  0.00    -0.014 C 
HETATM    3  C3  UNL     1      20.447   9.362  31.183  1.00  0.00     0.012 C 
HETATM    4  C4  UNL     1      21.809   9.951  31.156  1.00  0.00     0.007 C 
HETATM    5  C5  UNL     1      22.052  11.114  32.027  1.00  0.00    -0.002 C 
HETATM    6  C6  UNL     1      21.321  11.057  33.363  1.00  0.00    -0.005 C 
HETATM    7  C7  UNL     1      21.499  12.416  34.035  1.00  0.00     0.006 C 
HETATM    8  C8  UNL     1      22.943  12.577  34.366  1.00  0.00     0.006 C 
HETATM    9  C9  UNL     1      23.708  12.645  33.044  1.00  0.00     0.001 C 
HETATM   10  C10 UNL     1      25.153  12.930  33.296  1.00  0.00     0.083 C 
HETATM   11  C11 UNL     1      26.072  12.181  32.400  1.00  0.00     0.127 C 
HETATM   12  O1  UNL     1      27.205  11.962  32.782  1.00  0.00    -0.298 OA
HETATM   13  C12 UNL     1      25.688  11.682  31.057  1.00  0.00     0.079 C 
HETATM   14  C13 UNL     1      24.177  11.599  30.899  1.00  0.00     0.017 C 
HETATM   15  C14 UNL     1      23.513  11.362  32.241  1.00  0.00    -0.036 C 
HETATM   16  C15 UNL     1      24.177  10.231  32.962  1.00  0.00     0.016 C 
HETATM   17  C16 UNL     1      19.887  10.893  33.046  1.00  0.00     0.001 C 
HETATM   18  C17 UNL     1      18.944  10.879  34.180  1.00  0.00     0.008 C 
HETATM   19  C18 UNL     1      17.776  10.023  33.682  1.00  0.00     0.033 C 
HETATM   20  C19 UNL     1      18.205   9.498  32.318  1.00  0.00     0.126 C 
ENDROOT
BRANCH  20  21
HETATM   21  O2  UNL     1      17.664   8.273  32.021  1.00  0.00    -0.395 OA
ATOM     22  H2  UNL     1      17.895   7.940  31.162  1.00  0.00     0.210 HD
ENDBRANCH  20  21
TORSDOF 1
ENDMDL
