MODEL 7
REMARK VINA RESULT: -9.824749819      1.578      2.788
REMARK  1 active torsions:
REMARK  status: ('A' for Active; 'I' for Inactive)
REMARK    1  A    between atoms: C19_20  and  O2_21 
ROOT
HETATM    1  C1  UNL     1      21.380   7.806  35.210  1.00  0.00     0.018 C 
HETATM    2  C2  UNL     1      20.643   8.418  34.042  1.00  0.00    -0.014 C 
HETATM    3  C3  UNL     1      21.246   8.003  32.762  1.00  0.00     0.012 C 
HETATM    4  C4  UNL     1      22.429   8.776  32.308  1.00  0.00     0.007 C 
HETATM    5  C5  UNL     1      22.512  10.184  32.733  1.00  0.00    -0.002 C 
HETATM    6  C6  UNL     1      21.982  10.445  34.137  1.00  0.00    -0.005 C 
HETATM    7  C7  UNL     1      21.934  11.958  34.330  1.00  0.00     0.006 C 
HETATM    8  C8  UNL     1      23.335  12.464  34.323  1.00  0.00     0.006 C 
HETATM    9  C9  UNL     1      23.899  12.225  32.921  1.00  0.00     0.001 C 
HETATM   10  C10 UNL     1      25.264  12.820  32.803  1.00  0.00     0.083 C 
HETATM   11  C11 UNL     1      26.209  11.989  32.015  1.00  0.00     0.127 C 
HETATM   12  O1  UNL     1      27.400  12.105  32.226  1.00  0.00    -0.298 OA
HETATM   13  C12 UNL     1      25.784  11.018  30.977  1.00  0.00     0.079 C 
HETATM   14  C13 UNL     1      24.322  10.629  31.136  1.00  0.00     0.017 C 
HETATM   15  C14 UNL     1      23.897  10.736  32.587  1.00  0.00    -0.036 C 
HETATM   16  C15 UNL     1      24.879  10.036  33.474  1.00  0.00     0.016 C 
HETATM   17  C16 UNL     1      20.592   9.941  34.157  1.00  0.00     0.001 C 
HETATM   18  C17 UNL     1      19.822  10.139  35.399  1.00  0.00     0.008 C 
HETATM   19  C18 UNL     1      18.822   8.979  35.405  1.00  0.00     0.033 C 
HETATM   20  C19 UNL     1      19.186   8.117  34.204  1.00  0.00     0.126 C 
ENDROOT
BRANCH  20  21
HETATM   21  O2  UNL     1      18.900   6.789  34.390  1.00  0.00    -0.395 OA
ATOM     22  H2  UNL     1      19.389   6.199  33.829  1.00  0.00     0.210 HD
ENDBRANCH  20  21
TORSDOF 1
ENDMDL
