MODEL 5
REMARK VINA RESULT: -10.679191876      1.279      6.149
REMARK  1 active torsions:
REMARK  status: ('A' for Active; 'I' for Inactive)
REMARK    1  A    between atoms: C19_20  and  O2_21 
ROOT
HETATM    1  C1  UNL     1      25.056  10.004  33.440  1.00  0.00     0.018 C 
HETATM    2  C2  UNL     1      24.622  11.286  32.769  1.00  0.00    -0.014 C 
HETATM    3  C3  UNL     1      24.093  12.245  33.755  1.00  0.00     0.012 C 
HETATM    4  C4  UNL     1      22.672  12.072  34.147  1.00  0.00     0.007 C 
HETATM    5  C5  UNL     1      21.769  11.480  33.144  1.00  0.00    -0.002 C 
HETATM    6  C6  UNL     1      22.412  10.397  32.286  1.00  0.00    -0.005 C 
HETATM    7  C7  UNL     1      21.426  10.055  31.173  1.00  0.00     0.006 C 
HETATM    8  C8  UNL     1      20.232   9.423  31.799  1.00  0.00     0.006 C 
HETATM    9  C9  UNL     1      19.554  10.486  32.665  1.00  0.00     0.001 C 
HETATM   10  C10 UNL     1      18.276   9.957  33.229  1.00  0.00     0.083 C 
HETATM   11  C11 UNL     1      18.023  10.383  34.630  1.00  0.00     0.127 C 
HETATM   12  O1  UNL     1      17.313   9.687  35.329  1.00  0.00    -0.298 OA
HETATM   13  C12 UNL     1      18.589  11.615  35.231  1.00  0.00     0.079 C 
HETATM   14  C13 UNL     1      19.791  12.122  34.449  1.00  0.00     0.017 C 
HETATM   15  C14 UNL     1      20.500  10.973  33.759  1.00  0.00    -0.036 C 
HETATM   16  C15 UNL     1      20.748   9.855  34.722  1.00  0.00     0.016 C 
HETATM   17  C16 UNL     1      23.603  11.014  31.664  1.00  0.00     0.001 C 
HETATM   18  C17 UNL     1      24.374  10.185  30.718  1.00  0.00     0.008 C 
HETATM   19  C18 UNL     1      25.800  10.735  30.818  1.00  0.00     0.033 C 
HETATM   20  C19 UNL     1      25.760  11.776  31.929  1.00  0.00     0.126 C 
ENDROOT
BRANCH  20  21
HETATM   21  O2  UNL     1      26.951  11.891  32.599  1.00  0.00    -0.395 OA
ATOM     22  H2  UNL     1      27.146  11.165  33.180  1.00  0.00     0.210 HD
ENDBRANCH  20  21
TORSDOF 1
ENDMDL
