MODEL 9
REMARK VINA RESULT: -9.659366948      1.424      6.202
REMARK  1 active torsions:
REMARK  status: ('A' for Active; 'I' for Inactive)
REMARK    1  A    between atoms: C19_20  and  O2_21 
ROOT
HETATM    1  C1  UNL     1      24.122  11.655  32.357  1.00  0.00     0.018 C 
HETATM    2  C2  UNL     1      23.741  10.440  31.543  1.00  0.00    -0.014 C 
HETATM    3  C3  UNL     1      22.499  10.680  30.786  1.00  0.00     0.012 C 
HETATM    4  C4  UNL     1      21.226  10.477  31.523  1.00  0.00     0.007 C 
HETATM    5  C5  UNL     1      21.237   9.490  32.617  1.00  0.00    -0.002 C 
HETATM    6  C6  UNL     1      22.538   9.450  33.409  1.00  0.00    -0.005 C 
HETATM    7  C7  UNL     1      22.465   8.243  34.340  1.00  0.00     0.006 C 
HETATM    8  C8  UNL     1      21.388   8.500  35.337  1.00  0.00     0.006 C 
HETATM    9  C9  UNL     1      20.062   8.540  34.576  1.00  0.00     0.001 C 
HETATM   10  C10 UNL     1      18.921   8.672  35.531  1.00  0.00     0.083 C 
HETATM   11  C11 UNL     1      17.841   9.569  35.046  1.00  0.00     0.127 C 
HETATM   12  O1  UNL     1      17.125  10.112  35.865  1.00  0.00    -0.298 OA
HETATM   13  C12 UNL     1      17.581   9.845  33.612  1.00  0.00     0.079 C 
HETATM   14  C13 UNL     1      18.786   9.509  32.747  1.00  0.00     0.017 C 
HETATM   15  C14 UNL     1      20.069   9.659  33.540  1.00  0.00    -0.036 C 
HETATM   16  C15 UNL     1      20.097  10.978  34.247  1.00  0.00     0.016 C 
HETATM   17  C16 UNL     1      23.615   9.200  32.427  1.00  0.00     0.001 C 
HETATM   18  C17 UNL     1      24.984   9.046  32.954  1.00  0.00     0.008 C 
HETATM   19  C18 UNL     1      25.879   9.519  31.805  1.00  0.00     0.033 C 
HETATM   20  C19 UNL     1      24.931  10.035  30.731  1.00  0.00     0.126 C 
ENDROOT
BRANCH  20  21
HETATM   21  O2  UNL     1      25.472  11.044  29.978  1.00  0.00    -0.395 OA
ATOM     22  H2  UNL     1      25.931  11.708  30.480  1.00  0.00     0.210 HD
ENDBRANCH  20  21
TORSDOF 1
ENDMDL
