MODEL 2
REMARK VINA RESULT: -11.298540349      1.241      2.554
REMARK  1 active torsions:
REMARK  status: ('A' for Active; 'I' for Inactive)
REMARK    1  A    between atoms: C19_20  and  O2_21 
ROOT
HETATM    1  C1  UNL     1      19.964   9.163  35.026  1.00  0.00     0.018 C 
HETATM    2  C2  UNL     1      19.500   9.905  33.795  1.00  0.00    -0.014 C 
HETATM    3  C3  UNL     1      20.106   9.337  32.577  1.00  0.00     0.012 C 
HETATM    4  C4  UNL     1      21.473   9.806  32.238  1.00  0.00     0.007 C 
HETATM    5  C5  UNL     1      21.839  11.166  32.672  1.00  0.00    -0.002 C 
HETATM    6  C6  UNL     1      21.256  11.570  34.020  1.00  0.00    -0.005 C 
HETATM    7  C7  UNL     1      21.542  13.057  34.211  1.00  0.00     0.006 C 
HETATM    8  C8  UNL     1      23.017  13.226  34.337  1.00  0.00     0.006 C 
HETATM    9  C9  UNL     1      23.637  12.836  32.995  1.00  0.00     0.001 C 
HETATM   10  C10 UNL     1      25.107  13.098  33.007  1.00  0.00     0.083 C 
HETATM   11  C11 UNL     1      25.904  12.056  32.309  1.00  0.00     0.127 C 
HETATM   12  O1  UNL     1      27.065  11.899  32.633  1.00  0.00    -0.298 OA
HETATM   13  C12 UNL     1      25.363  11.188  31.235  1.00  0.00     0.079 C 
HETATM   14  C13 UNL     1      23.843  11.150  31.254  1.00  0.00     0.017 C 
HETATM   15  C14 UNL     1      23.322  11.381  32.658  1.00  0.00    -0.036 C 
HETATM   16  C15 UNL     1      24.029  10.492  33.633  1.00  0.00     0.016 C 
HETATM   17  C16 UNL     1      19.792  11.400  33.908  1.00  0.00     0.001 C 
HETATM   18  C17 UNL     1      18.977  11.795  35.072  1.00  0.00     0.008 C 
HETATM   19  C18 UNL     1      17.740  10.897  34.982  1.00  0.00     0.033 C 
HETATM   20  C19 UNL     1      18.005   9.950  33.818  1.00  0.00     0.126 C 
ENDROOT
BRANCH  20  21
HETATM   21  O2  UNL     1      17.403   8.729  33.973  1.00  0.00    -0.395 OA
ATOM     22  H2  UNL     1      17.495   8.147  33.227  1.00  0.00     0.210 HD
ENDBRANCH  20  21
TORSDOF 1
ENDMDL
