MODEL 4
REMARK VINA RESULT: -10.767020793      0.997      6.327
REMARK  1 active torsions:
REMARK  status: ('A' for Active; 'I' for Inactive)
REMARK    1  A    between atoms: C19_20  and  O2_21 
ROOT
HETATM    1  C1  UNL     1      24.374  11.320  31.275  1.00  0.00     0.018 C 
HETATM    2  C2  UNL     1      24.778  11.209  32.727  1.00  0.00    -0.014 C 
HETATM    3  C3  UNL     1      24.638   9.824  33.210  1.00  0.00     0.012 C 
HETATM    4  C4  UNL     1      23.282   9.410  33.647  1.00  0.00     0.007 C 
HETATM    5  C5  UNL     1      22.401  10.464  34.182  1.00  0.00    -0.002 C 
HETATM    6  C6  UNL     1      22.552  11.814  33.490  1.00  0.00    -0.005 C 
HETATM    7  C7  UNL     1      21.748  12.829  34.298  1.00  0.00     0.006 C 
HETATM    8  C8  UNL     1      20.307  12.468  34.180  1.00  0.00     0.006 C 
HETATM    9  C9  UNL     1      20.117  11.118  34.872  1.00  0.00     0.001 C 
HETATM   10  C10 UNL     1      18.669  10.749  34.901  1.00  0.00     0.083 C 
HETATM   11  C11 UNL     1      18.418   9.304  34.665  1.00  0.00     0.127 C 
HETATM   12  O1  UNL     1      17.341   8.968  34.214  1.00  0.00    -0.298 OA
HETATM   13  C12 UNL     1      19.411   8.239  34.949  1.00  0.00     0.079 C 
HETATM   14  C13 UNL     1      20.822   8.797  35.049  1.00  0.00     0.017 C 
HETATM   15  C14 UNL     1      20.964  10.043  34.197  1.00  0.00    -0.036 C 
HETATM   16  C15 UNL     1      20.433   9.799  32.819  1.00  0.00     0.016 C 
HETATM   17  C16 UNL     1      23.980  12.179  33.597  1.00  0.00     0.001 C 
HETATM   18  C17 UNL     1      24.382  13.492  33.060  1.00  0.00     0.008 C 
HETATM   19  C18 UNL     1      25.844  13.295  32.651  1.00  0.00     0.033 C 
HETATM   20  C19 UNL     1      26.138  11.817  32.876  1.00  0.00     0.126 C 
ENDROOT
BRANCH  20  21
HETATM   21  O2  UNL     1      27.079  11.320  32.012  1.00  0.00    -0.395 OA
ATOM     22  H2  UNL     1      27.945  11.221  32.390  1.00  0.00     0.210 HD
ENDBRANCH  20  21
TORSDOF 1
ENDMDL
