MODEL 10
REMARK VINA RESULT: -8.156458515      6.340      7.421
REMARK  4 active torsions:
REMARK  status: ('A' for Active; 'I' for Inactive)
REMARK    1  A    between atoms: N1_2  and  S1_4 
REMARK    2  A    between atoms: S1_4  and  C2_7 
REMARK    3  A    between atoms: C5_10  and  N2_11 
REMARK    4  A    between atoms: N2_11  and  C6_13 
ROOT
HETATM    1  N2  UNL     1      -5.808  46.786  41.207  1.00  0.00    -0.365 N 
ATOM      2  H2  UNL     1      -5.545  47.369  42.002  1.00  0.00     0.165 HD
ENDROOT
BRANCH   1   3
HETATM    3  C5  UNL     1      -5.164  45.530  41.044  1.00  0.00     0.032 A 
HETATM    4  C4  UNL     1      -5.714  44.592  40.199  1.00  0.00     0.031 A 
HETATM    5  C3  UNL     1      -5.162  43.357  39.984  1.00  0.00     0.027 A 
HETATM    6  C2  UNL     1      -3.987  43.017  40.644  1.00  0.00     0.079 A 
HETATM    7  C16 UNL     1      -3.407  43.944  41.503  1.00  0.00     0.027 A 
HETATM    8  C15 UNL     1      -4.005  45.189  41.691  1.00  0.00     0.031 A 
BRANCH   6   9
HETATM    9  S1  UNL     1      -3.272  41.443  40.376  1.00  0.00     0.258 S 
HETATM   10  O1  UNL     1      -1.816  41.646  40.059  1.00  0.00    -0.201 OA
HETATM   11  O2  UNL     1      -3.890  40.725  39.221  1.00  0.00    -0.201 OA
BRANCH   9  12
HETATM   12  N1  UNL     1      -3.467  40.526  41.834  1.00  0.00    -0.320 N 
HETATM   13  C1  UNL     1      -2.246  40.553  42.582  1.00  0.00     0.159 C 
ATOM     14  H1  UNL     1      -4.319  40.042  42.116  1.00  0.00     0.171 HD
ENDBRANCH   9  12
ENDBRANCH   6   9
ENDBRANCH   1   3
BRANCH   1  15
HETATM   15  C6  UNL     1      -6.799  47.264  40.314  1.00  0.00     0.106 C 
HETATM   16  C7  UNL     1      -7.461  48.361  40.682  1.00  0.00     0.060 A 
HETATM   17  C8  UNL     1      -7.300  49.133  41.883  1.00  0.00     0.258 A 
HETATM   18  C14 UNL     1      -8.527  49.031  39.916  1.00  0.00     0.008 A 
HETATM   19  O3  UNL     1      -6.467  48.860  42.794  1.00  0.00    -0.267 OA
HETATM   20  N3  UNL     1      -8.227  50.210  41.829  1.00  0.00    -0.322 N 
HETATM   21  C9  UNL     1      -8.979  50.134  40.608  1.00  0.00     0.046 A 
ATOM     22  H3  UNL     1      -8.341  50.925  42.547  1.00  0.00     0.169 HD
HETATM   23  C10 UNL     1      -9.990  50.920  40.067  1.00  0.00     0.030 A 
HETATM   24  C11 UNL     1     -10.569  50.639  38.850  1.00  0.00     0.002 A 
HETATM   25  C12 UNL     1     -10.119  49.536  38.155  1.00  0.00     0.001 A 
HETATM   26  C13 UNL     1      -9.115  48.752  38.687  1.00  0.00     0.015 A 
ENDBRANCH   1  15
TORSDOF 4
ENDMDL
