MODEL 3
REMARK VINA RESULT: -9.213355661      0.579      1.144
REMARK  4 active torsions:
REMARK  status: ('A' for Active; 'I' for Inactive)
REMARK    1  A    between atoms: N1_2  and  S1_4 
REMARK    2  A    between atoms: S1_4  and  C2_7 
REMARK    3  A    between atoms: C5_10  and  N2_11 
REMARK    4  A    between atoms: N2_11  and  C6_13 
ROOT
HETATM    1  N2  UNL     1     -10.511  49.358  38.308  1.00  0.00    -0.365 N 
ATOM      2  H2  UNL     1     -11.238  50.073  38.284  1.00  0.00     0.165 HD
ENDROOT
BRANCH   1   3
HETATM    3  C5  UNL     1     -10.441  48.421  37.243  1.00  0.00     0.032 A 
HETATM    4  C4  UNL     1     -11.590  48.077  36.566  1.00  0.00     0.031 A 
HETATM    5  C3  UNL     1     -11.613  47.183  35.529  1.00  0.00     0.027 A 
HETATM    6  C2  UNL     1     -10.427  46.583  35.126  1.00  0.00     0.079 A 
HETATM    7  C16 UNL     1      -9.249  46.910  35.790  1.00  0.00     0.027 A 
HETATM    8  C15 UNL     1      -9.273  47.826  36.840  1.00  0.00     0.031 A 
BRANCH   6   9
HETATM    9  S1  UNL     1     -10.445  45.439  33.802  1.00  0.00     0.258 S 
HETATM   10  O1  UNL     1      -9.284  45.759  32.901  1.00  0.00    -0.201 OA
HETATM   11  O2  UNL     1     -11.691  45.534  32.985  1.00  0.00    -0.201 OA
BRANCH   9  12
HETATM   12  N1  UNL     1     -10.283  43.852  34.480  1.00  0.00    -0.320 N 
HETATM   13  C1  UNL     1     -11.461  43.531  35.229  1.00  0.00     0.159 C 
ATOM     14  H1  UNL     1      -9.474  43.242  34.364  1.00  0.00     0.171 HD
ENDBRANCH   9  12
ENDBRANCH   6   9
ENDBRANCH   1   3
BRANCH   1  15
HETATM   15  C6  UNL     1      -9.612  49.344  39.406  1.00  0.00     0.106 C 
HETATM   16  C7  UNL     1      -9.388  50.507  40.014  1.00  0.00     0.060 A 
HETATM   17  C8  UNL     1      -9.943  51.795  39.700  1.00  0.00     0.258 A 
HETATM   18  C14 UNL     1      -8.497  50.728  41.168  1.00  0.00     0.008 A 
HETATM   19  O3  UNL     1     -10.761  52.002  38.757  1.00  0.00    -0.267 OA
HETATM   20  N3  UNL     1      -9.407  52.732  40.624  1.00  0.00    -0.322 N 
HETATM   21  C9  UNL     1      -8.515  52.059  41.526  1.00  0.00     0.046 A 
ATOM     22  H3  UNL     1      -9.623  53.729  40.644  1.00  0.00     0.169 HD
HETATM   23  C10 UNL     1      -7.743  52.495  42.596  1.00  0.00     0.030 A 
HETATM   24  C11 UNL     1      -6.948  51.639  43.326  1.00  0.00     0.002 A 
HETATM   25  C12 UNL     1      -6.928  50.307  42.971  1.00  0.00     0.001 A 
HETATM   26  C13 UNL     1      -7.693  49.868  41.908  1.00  0.00     0.015 A 
ENDBRANCH   1  15
TORSDOF 4
ENDMDL
