MODEL 4
REMARK VINA RESULT: -8.892325612      1.253      1.869
REMARK  4 active torsions:
REMARK  status: ('A' for Active; 'I' for Inactive)
REMARK    1  A    between atoms: N1_2  and  S1_4 
REMARK    2  A    between atoms: S1_4  and  C2_7 
REMARK    3  A    between atoms: C5_10  and  N2_11 
REMARK    4  A    between atoms: N2_11  and  C6_13 
ROOT
HETATM    1  N2  UNL     1     -10.292  49.618  37.995  1.00  0.00    -0.365 N 
ATOM      2  H2  UNL     1     -10.778  50.505  37.858  1.00  0.00     0.165 HD
ENDROOT
BRANCH   1   3
HETATM    3  C5  UNL     1     -10.505  48.574  37.057  1.00  0.00     0.032 A 
HETATM    4  C4  UNL     1     -11.792  48.213  36.723  1.00  0.00     0.031 A 
HETATM    5  C3  UNL     1     -12.087  47.219  35.830  1.00  0.00     0.027 A 
HETATM    6  C2  UNL     1     -11.048  46.527  35.219  1.00  0.00     0.079 A 
HETATM    7  C16 UNL     1      -9.737  46.868  35.535  1.00  0.00     0.027 A 
HETATM    8  C15 UNL     1      -9.484  47.887  36.451  1.00  0.00     0.031 A 
BRANCH   6   9
HETATM    9  S1  UNL     1     -11.414  45.254  34.076  1.00  0.00     0.258 S 
HETATM   10  O1  UNL     1     -11.972  44.089  34.846  1.00  0.00    -0.201 OA
HETATM   11  O2  UNL     1     -10.200  44.776  33.349  1.00  0.00    -0.201 OA
BRANCH   9  12
HETATM   12  N1  UNL     1     -12.584  45.876  32.959  1.00  0.00    -0.320 N 
HETATM   13  C1  UNL     1     -13.820  45.170  33.119  1.00  0.00     0.159 C 
ATOM     14  H1  UNL     1     -12.418  46.628  32.290  1.00  0.00     0.171 HD
ENDBRANCH   9  12
ENDBRANCH   6   9
ENDBRANCH   1   3
BRANCH   1  15
HETATM   15  C6  UNL     1      -9.434  49.482  39.116  1.00  0.00     0.106 C 
HETATM   16  C7  UNL     1      -9.281  50.556  39.890  1.00  0.00     0.060 A 
HETATM   17  C8  UNL     1      -9.880  51.853  39.736  1.00  0.00     0.258 A 
HETATM   18  C14 UNL     1      -8.443  50.644  41.099  1.00  0.00     0.008 A 
HETATM   19  O3  UNL     1     -10.671  52.161  38.799  1.00  0.00    -0.267 OA
HETATM   20  N3  UNL     1      -9.418  52.670  40.804  1.00  0.00    -0.322 N 
HETATM   21  C9  UNL     1      -8.530  51.909  41.639  1.00  0.00     0.046 A 
ATOM     22  H3  UNL     1      -9.677  53.644  40.955  1.00  0.00     0.169 HD
HETATM   23  C10 UNL     1      -7.817  52.218  42.791  1.00  0.00     0.030 A 
HETATM   24  C11 UNL     1      -7.012  51.298  43.426  1.00  0.00     0.002 A 
HETATM   25  C12 UNL     1      -6.923  50.031  42.889  1.00  0.00     0.001 A 
HETATM   26  C13 UNL     1      -7.629  49.719  41.745  1.00  0.00     0.015 A 
ENDBRANCH   1  15
TORSDOF 4
ENDMDL
