MODEL 5
REMARK VINA RESULT: -8.519125784      1.625      2.106
REMARK  4 active torsions:
REMARK  status: ('A' for Active; 'I' for Inactive)
REMARK    1  A    between atoms: N1_2  and  S1_4 
REMARK    2  A    between atoms: S1_4  and  C2_7 
REMARK    3  A    between atoms: C5_10  and  N2_11 
REMARK    4  A    between atoms: N2_11  and  C6_13 
ROOT
HETATM    1  N2  UNL     1     -10.134  49.123  37.152  1.00  0.00    -0.365 N 
ATOM      2  H2  UNL     1     -10.357  50.099  36.954  1.00  0.00     0.165 HD
ENDROOT
BRANCH   1   3
HETATM    3  C5  UNL     1     -10.707  48.115  36.331  1.00  0.00     0.032 A 
HETATM    4  C4  UNL     1     -12.076  47.974  36.286  1.00  0.00     0.031 A 
HETATM    5  C3  UNL     1     -12.710  47.030  35.524  1.00  0.00     0.027 A 
HETATM    6  C2  UNL     1     -11.950  46.162  34.750  1.00  0.00     0.079 A 
HETATM    7  C16 UNL     1     -10.564  46.280  34.774  1.00  0.00     0.027 A 
HETATM    8  C15 UNL     1      -9.962  47.256  35.565  1.00  0.00     0.031 A 
BRANCH   6   9
HETATM    9  S1  UNL     1     -12.750  44.951  33.772  1.00  0.00     0.258 S 
HETATM   10  O1  UNL     1     -11.706  43.979  33.296  1.00  0.00    -0.201 OA
HETATM   11  O2  UNL     1     -13.406  45.538  32.565  1.00  0.00    -0.201 OA
BRANCH   9  12
HETATM   12  N1  UNL     1     -13.922  44.160  34.775  1.00  0.00    -0.320 N 
HETATM   13  C1  UNL     1     -13.250  43.341  35.738  1.00  0.00     0.159 C 
ATOM     14  H1  UNL     1     -14.933  44.263  34.691  1.00  0.00     0.171 HD
ENDBRANCH   9  12
ENDBRANCH   6   9
ENDBRANCH   1   3
BRANCH   1  15
HETATM   15  C6  UNL     1      -9.266  48.832  38.234  1.00  0.00     0.106 C 
HETATM   16  C7  UNL     1      -9.242  49.707  39.238  1.00  0.00     0.060 A 
HETATM   17  C8  UNL     1      -9.991  50.927  39.370  1.00  0.00     0.258 A 
HETATM   18  C14 UNL     1      -8.420  49.610  40.458  1.00  0.00     0.008 A 
HETATM   19  O3  UNL     1     -10.812  51.350  38.506  1.00  0.00    -0.267 OA
HETATM   20  N3  UNL     1      -9.629  51.523  40.609  1.00  0.00    -0.322 N 
HETATM   21  C9  UNL     1      -8.658  50.698  41.271  1.00  0.00     0.046 A 
ATOM     22  H3  UNL     1     -10.002  52.399  40.972  1.00  0.00     0.169 HD
HETATM   23  C10 UNL     1      -7.986  50.812  42.483  1.00  0.00     0.030 A 
HETATM   24  C11 UNL     1      -7.079  49.869  42.912  1.00  0.00     0.002 A 
HETATM   25  C12 UNL     1      -6.839  48.780  42.101  1.00  0.00     0.001 A 
HETATM   26  C13 UNL     1      -7.503  48.661  40.897  1.00  0.00     0.015 A 
ENDBRANCH   1  15
TORSDOF 4
ENDMDL
