MODEL 1
REMARK VINA RESULT: -9.564279042      0.000      0.000
REMARK  4 active torsions:
REMARK  status: ('A' for Active; 'I' for Inactive)
REMARK    1  A    between atoms: N1_2  and  S1_4 
REMARK    2  A    between atoms: S1_4  and  C2_7 
REMARK    3  A    between atoms: C5_10  and  N2_11 
REMARK    4  A    between atoms: N2_11  and  C6_13 
ROOT
HETATM    1  N2  UNL     1     -10.592  49.463  38.216  1.00  0.00    -0.365 N 
ATOM      2  H2  UNL     1     -11.252  50.240  38.183  1.00  0.00     0.165 HD
ENDROOT
BRANCH   1   3
HETATM    3  C5  UNL     1     -10.611  48.509  37.163  1.00  0.00     0.032 A 
HETATM    4  C4  UNL     1      -9.427  47.963  36.722  1.00  0.00     0.031 A 
HETATM    5  C3  UNL     1      -9.354  47.039  35.714  1.00  0.00     0.027 A 
HETATM    6  C2  UNL     1     -10.524  46.622  35.092  1.00  0.00     0.079 A 
HETATM    7  C16 UNL     1     -11.737  47.155  35.516  1.00  0.00     0.027 A 
HETATM    8  C15 UNL     1     -11.763  48.093  36.546  1.00  0.00     0.031 A 
BRANCH   6   9
HETATM    9  S1  UNL     1     -10.442  45.442  33.802  1.00  0.00     0.258 S 
HETATM   10  O1  UNL     1      -9.256  45.781  32.942  1.00  0.00    -0.201 OA
HETATM   11  O2  UNL     1     -11.655  45.466  32.931  1.00  0.00    -0.201 OA
BRANCH   9  12
HETATM   12  N1  UNL     1     -10.251  43.882  34.533  1.00  0.00    -0.320 N 
HETATM   13  C1  UNL     1      -9.033  43.286  34.074  1.00  0.00     0.159 C 
ATOM     14  H1  UNL     1     -10.906  43.455  35.188  1.00  0.00     0.171 HD
ENDBRANCH   9  12
ENDBRANCH   6   9
ENDBRANCH   1   3
BRANCH   1  15
HETATM   15  C6  UNL     1      -9.696  49.381  39.312  1.00  0.00     0.106 C 
HETATM   16  C7  UNL     1      -9.445  50.512  39.969  1.00  0.00     0.060 A 
HETATM   17  C8  UNL     1      -9.969  51.825  39.708  1.00  0.00     0.258 A 
HETATM   18  C14 UNL     1      -8.551  50.663  41.131  1.00  0.00     0.008 A 
HETATM   19  O3  UNL     1     -10.780  52.091  38.775  1.00  0.00    -0.267 OA
HETATM   20  N3  UNL     1      -9.412  52.710  40.671  1.00  0.00    -0.322 N 
HETATM   21  C9  UNL     1      -8.538  51.978  41.544  1.00  0.00     0.046 A 
ATOM     22  H3  UNL     1      -9.605  53.709  40.733  1.00  0.00     0.169 HD
HETATM   23  C10 UNL     1      -7.758  52.350  42.633  1.00  0.00     0.030 A 
HETATM   24  C11 UNL     1      -6.984  51.447  43.326  1.00  0.00     0.002 A 
HETATM   25  C12 UNL     1      -6.995  50.130  42.916  1.00  0.00     0.001 A 
HETATM   26  C13 UNL     1      -7.768  49.755  41.835  1.00  0.00     0.015 A 
ENDBRANCH   1  15
TORSDOF 4
ENDMDL
