MODEL 6
REMARK VINA RESULT: -8.388034587      6.316      7.067
REMARK  4 active torsions:
REMARK  status: ('A' for Active; 'I' for Inactive)
REMARK    1  A    between atoms: N1_2  and  S1_4 
REMARK    2  A    between atoms: S1_4  and  C2_7 
REMARK    3  A    between atoms: C5_10  and  N2_11 
REMARK    4  A    between atoms: N2_11  and  C6_13 
ROOT
HETATM    1  N2  UNL     1      -6.317  46.578  39.959  1.00  0.00    -0.365 N 
ATOM      2  H2  UNL     1      -6.917  46.659  39.139  1.00  0.00     0.165 HD
ENDROOT
BRANCH   1   3
HETATM    3  C5  UNL     1      -5.601  45.368  40.161  1.00  0.00     0.032 A 
HETATM    4  C4  UNL     1      -4.475  45.371  40.953  1.00  0.00     0.031 A 
HETATM    5  C3  UNL     1      -3.725  44.251  41.200  1.00  0.00     0.027 A 
HETATM    6  C2  UNL     1      -4.106  43.043  40.629  1.00  0.00     0.079 A 
HETATM    7  C16 UNL     1      -5.239  43.008  39.824  1.00  0.00     0.027 A 
HETATM    8  C15 UNL     1      -5.971  44.172  39.601  1.00  0.00     0.031 A 
BRANCH   6   9
HETATM    9  S1  UNL     1      -3.155  41.606  40.938  1.00  0.00     0.258 S 
HETATM   10  O1  UNL     1      -1.967  41.633  40.017  1.00  0.00    -0.201 OA
HETATM   11  O2  UNL     1      -3.915  40.351  40.659  1.00  0.00    -0.201 OA
BRANCH   9  12
HETATM   12  N1  UNL     1      -2.656  41.657  42.597  1.00  0.00    -0.320 N 
HETATM   13  C1  UNL     1      -1.307  41.187  42.704  1.00  0.00     0.159 C 
ATOM     14  H1  UNL     1      -3.233  41.972  43.376  1.00  0.00     0.171 HD
ENDBRANCH   9  12
ENDBRANCH   6   9
ENDBRANCH   1   3
BRANCH   1  15
HETATM   15  C6  UNL     1      -6.233  47.679  40.849  1.00  0.00     0.106 C 
HETATM   16  C7  UNL     1      -7.101  48.672  40.660  1.00  0.00     0.060 A 
HETATM   17  C8  UNL     1      -8.126  48.776  39.657  1.00  0.00     0.258 A 
HETATM   18  C14 UNL     1      -7.197  49.907  41.458  1.00  0.00     0.008 A 
HETATM   19  O3  UNL     1      -8.349  47.894  38.779  1.00  0.00    -0.267 OA
HETATM   20  N3  UNL     1      -8.795  50.015  39.854  1.00  0.00    -0.322 N 
HETATM   21  C9  UNL     1      -8.211  50.703  40.970  1.00  0.00     0.046 A 
ATOM     22  H3  UNL     1      -9.571  50.360  39.289  1.00  0.00     0.169 HD
HETATM   23  C10 UNL     1      -8.481  51.924  41.577  1.00  0.00     0.030 A 
HETATM   24  C11 UNL     1      -7.765  52.381  42.661  1.00  0.00     0.002 A 
HETATM   25  C12 UNL     1      -6.750  51.587  43.152  1.00  0.00     0.001 A 
HETATM   26  C13 UNL     1      -6.478  50.373  42.554  1.00  0.00     0.015 A 
ENDBRANCH   1  15
TORSDOF 4
ENDMDL
