MODEL 7
REMARK VINA RESULT: -8.337102020      6.370      7.206
REMARK  4 active torsions:
REMARK  status: ('A' for Active; 'I' for Inactive)
REMARK    1  A    between atoms: N1_2  and  S1_4 
REMARK    2  A    between atoms: S1_4  and  C2_7 
REMARK    3  A    between atoms: C5_10  and  N2_11 
REMARK    4  A    between atoms: N2_11  and  C6_13 
ROOT
HETATM    1  N2  UNL     1      -6.197  46.578  40.113  1.00  0.00    -0.365 N 
ATOM      2  H2  UNL     1      -6.812  46.602  39.299  1.00  0.00     0.165 HD
ENDROOT
BRANCH   1   3
HETATM    3  C5  UNL     1      -5.414  45.415  40.340  1.00  0.00     0.032 A 
HETATM    4  C4  UNL     1      -5.811  44.214  39.796  1.00  0.00     0.031 A 
HETATM    5  C3  UNL     1      -5.116  43.046  39.965  1.00  0.00     0.027 A 
HETATM    6  C2  UNL     1      -3.951  43.054  40.722  1.00  0.00     0.079 A 
HETATM    7  C16 UNL     1      -3.524  44.253  41.284  1.00  0.00     0.027 A 
HETATM    8  C15 UNL     1      -4.263  45.417  41.085  1.00  0.00     0.031 A 
BRANCH   6   9
HETATM    9  S1  UNL     1      -3.056  41.567  40.944  1.00  0.00     0.258 S 
HETATM   10  O1  UNL     1      -1.838  41.626  40.064  1.00  0.00    -0.201 OA
HETATM   11  O2  UNL     1      -3.844  40.363  40.546  1.00  0.00    -0.201 OA
BRANCH   9  12
HETATM   12  N1  UNL     1      -2.607  41.473  42.616  1.00  0.00    -0.320 N 
HETATM   13  C1  UNL     1      -1.193  41.277  42.721  1.00  0.00     0.159 C 
ATOM     14  H1  UNL     1      -3.252  41.545  43.403  1.00  0.00     0.171 HD
ENDBRANCH   9  12
ENDBRANCH   6   9
ENDBRANCH   1   3
BRANCH   1  15
HETATM   15  C6  UNL     1      -6.162  47.708  40.969  1.00  0.00     0.106 C 
HETATM   16  C7  UNL     1      -7.051  48.671  40.729  1.00  0.00     0.060 A 
HETATM   17  C8  UNL     1      -8.054  48.717  39.701  1.00  0.00     0.258 A 
HETATM   18  C14 UNL     1      -7.196  49.928  41.485  1.00  0.00     0.008 A 
HETATM   19  O3  UNL     1      -8.235  47.803  38.847  1.00  0.00    -0.267 OA
HETATM   20  N3  UNL     1      -8.760  49.943  39.843  1.00  0.00    -0.322 N 
HETATM   21  C9  UNL     1      -8.219  50.682  40.950  1.00  0.00     0.046 A 
ATOM     22  H3  UNL     1      -9.532  50.250  39.251  1.00  0.00     0.169 HD
HETATM   23  C10 UNL     1      -8.534  51.913  41.511  1.00  0.00     0.030 A 
HETATM   24  C11 UNL     1      -7.855  52.422  42.596  1.00  0.00     0.002 A 
HETATM   25  C12 UNL     1      -6.832  51.671  43.134  1.00  0.00     0.001 A 
HETATM   26  C13 UNL     1      -6.515  50.447  42.581  1.00  0.00     0.015 A 
ENDBRANCH   1  15
TORSDOF 4
ENDMDL
