MODEL 2
REMARK VINA RESULT: -9.535247705      1.157      1.303
REMARK  4 active torsions:
REMARK  status: ('A' for Active; 'I' for Inactive)
REMARK    1  A    between atoms: N1_2  and  S1_4 
REMARK    2  A    between atoms: S1_4  and  C2_7 
REMARK    3  A    between atoms: C5_10  and  N2_11 
REMARK    4  A    between atoms: N2_11  and  C6_13 
ROOT
HETATM    1  N2  UNL     1     -10.568  49.575  38.372  1.00  0.00    -0.365 N 
ATOM      2  H2  UNL     1     -11.243  50.340  38.359  1.00  0.00     0.165 HD
ENDROOT
BRANCH   1   3
HETATM    3  C5  UNL     1     -10.593  48.628  37.314  1.00  0.00     0.032 A 
HETATM    4  C4  UNL     1      -9.412  48.080  36.866  1.00  0.00     0.031 A 
HETATM    5  C3  UNL     1      -9.345  47.162  35.853  1.00  0.00     0.027 A 
HETATM    6  C2  UNL     1     -10.518  46.751  35.233  1.00  0.00     0.079 A 
HETATM    7  C16 UNL     1     -11.728  47.286  35.663  1.00  0.00     0.027 A 
HETATM    8  C15 UNL     1     -11.748  48.218  36.699  1.00  0.00     0.031 A 
BRANCH   6   9
HETATM    9  S1  UNL     1     -10.444  45.578  33.936  1.00  0.00     0.258 S 
HETATM   10  O1  UNL     1     -10.370  44.210  34.557  1.00  0.00    -0.201 OA
HETATM   11  O2  UNL     1      -9.234  45.752  33.079  1.00  0.00    -0.201 OA
BRANCH   9  12
HETATM   12  N1  UNL     1     -11.887  45.752  32.992  1.00  0.00    -0.320 N 
HETATM   13  C1  UNL     1     -12.870  44.813  33.444  1.00  0.00     0.159 C 
ATOM     14  H1  UNL     1     -12.016  46.420  32.232  1.00  0.00     0.171 HD
ENDBRANCH   9  12
ENDBRANCH   6   9
ENDBRANCH   1   3
BRANCH   1  15
HETATM   15  C6  UNL     1      -9.644  49.505  39.446  1.00  0.00     0.106 C 
HETATM   16  C7  UNL     1      -9.367  50.646  40.076  1.00  0.00     0.060 A 
HETATM   17  C8  UNL     1      -9.889  51.958  39.806  1.00  0.00     0.258 A 
HETATM   18  C14 UNL     1      -8.443  50.810  41.212  1.00  0.00     0.008 A 
HETATM   19  O3  UNL     1     -10.721  52.214  38.889  1.00  0.00    -0.267 OA
HETATM   20  N3  UNL     1      -9.301  52.855  40.739  1.00  0.00    -0.322 N 
HETATM   21  C9  UNL     1      -8.409  52.132  41.602  1.00  0.00     0.046 A 
ATOM     22  H3  UNL     1      -9.484  53.857  40.789  1.00  0.00     0.169 HD
HETATM   23  C10 UNL     1      -7.598  52.516  42.663  1.00  0.00     0.030 A 
HETATM   24  C11 UNL     1      -6.813  51.619  43.352  1.00  0.00     0.002 A 
HETATM   25  C12 UNL     1      -6.845  50.296  42.965  1.00  0.00     0.001 A 
HETATM   26  C13 UNL     1      -7.649  49.907  41.912  1.00  0.00     0.015 A 
ENDBRANCH   1  15
TORSDOF 4
ENDMDL
