MODEL 4
REMARK VINA RESULT: -8.297495381      1.078      1.469
REMARK  10 active torsions:
REMARK  status: ('A' for Active; 'I' for Inactive)
REMARK    1  A    between atoms: C1_2  and  C2_4 
REMARK    2  A    between atoms: C2_4  and  C3_5 
REMARK    3  A    between atoms: C3_5  and  C4_6 
REMARK    4  A    between atoms: C4_6  and  C5_7 
REMARK    5  A    between atoms: C5_7  and  N1_8 
REMARK    6  A    between atoms: N1_8  and  C6_9 
REMARK    7  A    between atoms: N1_8  and  C13_19 
REMARK    8  A    between atoms: C6_9  and  C7_10 
REMARK    9  A    between atoms: C10_13  and  N2_14 
REMARK   10  A    between atoms: C13_19  and  P1_20 
ROOT
HETATM    1  N1  UNL     1     -24.275  40.249  15.997  1.00  0.00    -0.397 N 
ENDROOT
BRANCH   1   2
HETATM    2  C5  UNL     1     -24.293  41.356  16.899  1.00  0.00     0.118 C 
BRANCH   2   3
HETATM    3  C4  UNL     1     -23.640  41.214  18.216  1.00  0.00     0.020 C 
BRANCH   3   4
HETATM    4  C3  UNL     1     -24.466  41.903  19.325  1.00  0.00     0.012 C 
BRANCH   4   5
HETATM    5  C2  UNL     1     -23.946  41.495  20.679  1.00  0.00     0.113 C 
BRANCH   5   6
HETATM    6  C1  UNL     1     -25.019  40.860  21.480  1.00  0.00     0.172 C 
HETATM    7  O1  UNL     1     -24.834  40.076  22.443  1.00  0.00    -0.648 OA
HETATM    8  O2  UNL     1     -26.335  41.158  21.136  1.00  0.00    -0.648 OA
ENDBRANCH   5   6
ENDBRANCH   4   5
ENDBRANCH   3   4
ENDBRANCH   2   3
ENDBRANCH   1   2
BRANCH   1   9
HETATM    9  C6  UNL     1     -22.935  39.706  15.822  1.00  0.00     0.156 C 
BRANCH   9  10
HETATM   10  C7  UNL     1     -22.766  38.288  16.174  1.00  0.00    -0.041 A 
HETATM   11  C8  UNL     1     -23.735  37.591  16.877  1.00  0.00     0.011 A 
HETATM   12  C9  UNL     1     -23.572  36.259  17.225  1.00  0.00     0.037 A 
HETATM   13  C10 UNL     1     -22.440  35.559  16.892  1.00  0.00     0.102 A 
HETATM   14  C11 UNL     1     -21.465  36.237  16.191  1.00  0.00     0.037 A 
HETATM   15  C12 UNL     1     -21.635  37.564  15.847  1.00  0.00     0.011 A 
BRANCH  13  16
HETATM   16  N2  UNL     1     -22.262  34.179  17.264  1.00  0.00    -0.116 N 
HETATM   17  O3  UNL     1     -23.097  33.632  17.969  1.00  0.00    -0.532 OA
HETATM   18  O4  UNL     1     -21.166  33.467  16.840  1.00  0.00    -0.532 OA
ENDBRANCH  13  16
ENDBRANCH   9  10
ENDBRANCH   1   9
BRANCH   1  19
HETATM   19  C13 UNL     1     -25.052  40.326  14.815  1.00  0.00     0.263 C 
BRANCH  19  20
HETATM   20  P1  UNL     1     -26.684  39.761  15.029  1.00  0.00     0.277 P 
HETATM   21  O5  UNL     1     -27.238  39.256  16.569  1.00  0.00    -0.638 OA
HETATM   22  O6  UNL     1     -26.456  38.274  14.758  1.00  0.00    -0.638 OA
HETATM   23  O7  UNL     1     -27.816  39.986  13.883  1.00  0.00    -0.638 OA
ENDBRANCH  19  20
ENDBRANCH   1  19
TORSDOF 10
ENDMDL
