MODEL 16
REMARK VINA RESULT: -7.440067741      2.334      5.406
REMARK  10 active torsions:
REMARK  status: ('A' for Active; 'I' for Inactive)
REMARK    1  A    between atoms: C1_2  and  C2_4 
REMARK    2  A    between atoms: C2_4  and  C3_5 
REMARK    3  A    between atoms: C3_5  and  C4_6 
REMARK    4  A    between atoms: C4_6  and  C5_7 
REMARK    5  A    between atoms: C5_7  and  N1_8 
REMARK    6  A    between atoms: N1_8  and  C6_9 
REMARK    7  A    between atoms: N1_8  and  C13_19 
REMARK    8  A    between atoms: C6_9  and  C7_10 
REMARK    9  A    between atoms: C10_13  and  N2_14 
REMARK   10  A    between atoms: C13_19  and  P1_20 
ROOT
HETATM    1  N1  UNL     1     -24.688  41.223  16.194  1.00  0.00    -0.397 N 
ENDROOT
BRANCH   1   2
HETATM    2  C5  UNL     1     -25.402  41.650  15.034  1.00  0.00     0.118 C 
BRANCH   2   3
HETATM    3  C4  UNL     1     -24.829  41.371  13.701  1.00  0.00     0.020 C 
BRANCH   3   4
HETATM    4  C3  UNL     1     -25.735  41.923  12.578  1.00  0.00     0.012 C 
BRANCH   4   5
HETATM    5  C2  UNL     1     -27.110  41.317  12.686  1.00  0.00     0.113 C 
BRANCH   5   6
HETATM    6  C1  UNL     1     -27.211  40.100  11.849  1.00  0.00     0.172 C 
HETATM    7  O1  UNL     1     -27.095  40.071  10.599  1.00  0.00    -0.648 OA
HETATM    8  O2  UNL     1     -27.452  38.893  12.501  1.00  0.00    -0.648 OA
ENDBRANCH   5   6
ENDBRANCH   4   5
ENDBRANCH   3   4
ENDBRANCH   2   3
ENDBRANCH   1   2
BRANCH   1   9
HETATM    9  C6  UNL     1     -25.010  39.853  16.564  1.00  0.00     0.156 C 
BRANCH   9  10
HETATM   10  C7  UNL     1     -23.908  38.885  16.464  1.00  0.00    -0.041 A 
HETATM   11  C8  UNL     1     -22.698  39.215  15.875  1.00  0.00     0.011 A 
HETATM   12  C9  UNL     1     -21.663  38.301  15.763  1.00  0.00     0.037 A 
HETATM   13  C10 UNL     1     -21.781  37.016  16.231  1.00  0.00     0.102 A 
HETATM   14  C11 UNL     1     -22.977  36.670  16.823  1.00  0.00     0.037 A 
HETATM   15  C12 UNL     1     -24.005  37.587  16.930  1.00  0.00     0.011 A 
BRANCH  13  16
HETATM   16  N2  UNL     1     -20.712  36.060  16.106  1.00  0.00    -0.116 N 
HETATM   17  O3  UNL     1     -19.641  36.410  15.630  1.00  0.00    -0.532 OA
HETATM   18  O4  UNL     1     -20.875  34.757  16.511  1.00  0.00    -0.532 OA
ENDBRANCH  13  16
ENDBRANCH   9  10
ENDBRANCH   1   9
BRANCH   1  19
HETATM   19  C13 UNL     1     -24.560  42.125  17.280  1.00  0.00     0.263 C 
BRANCH  19  20
HETATM   20  P1  UNL     1     -25.522  41.678  18.659  1.00  0.00     0.277 P 
HETATM   21  O5  UNL     1     -27.226  41.850  18.628  1.00  0.00    -0.638 OA
HETATM   22  O6  UNL     1     -25.521  43.019  19.392  1.00  0.00    -0.638 OA
HETATM   23  O7  UNL     1     -24.898  40.801  19.880  1.00  0.00    -0.638 OA
ENDBRANCH  19  20
ENDBRANCH   1  19
TORSDOF 10
ENDMDL
