MODEL 3
REMARK VINA RESULT: -8.378860914      1.220      1.582
REMARK  10 active torsions:
REMARK  status: ('A' for Active; 'I' for Inactive)
REMARK    1  A    between atoms: C1_2  and  C2_4 
REMARK    2  A    between atoms: C2_4  and  C3_5 
REMARK    3  A    between atoms: C3_5  and  C4_6 
REMARK    4  A    between atoms: C4_6  and  C5_7 
REMARK    5  A    between atoms: C5_7  and  N1_8 
REMARK    6  A    between atoms: N1_8  and  C6_9 
REMARK    7  A    between atoms: N1_8  and  C13_19 
REMARK    8  A    between atoms: C6_9  and  C7_10 
REMARK    9  A    between atoms: C10_13  and  N2_14 
REMARK   10  A    between atoms: C13_19  and  P1_20 
ROOT
HETATM    1  N1  UNL     1     -24.236  40.303  15.949  1.00  0.00    -0.397 N 
ENDROOT
BRANCH   1   2
HETATM    2  C5  UNL     1     -24.274  41.507  16.716  1.00  0.00     0.118 C 
BRANCH   2   3
HETATM    3  C4  UNL     1     -23.780  41.482  18.108  1.00  0.00     0.020 C 
BRANCH   3   4
HETATM    4  C3  UNL     1     -24.711  40.646  19.014  1.00  0.00     0.012 C 
BRANCH   4   5
HETATM    5  C2  UNL     1     -25.070  41.435  20.246  1.00  0.00     0.113 C 
BRANCH   5   6
HETATM    6  C1  UNL     1     -26.307  42.219  20.021  1.00  0.00     0.172 C 
HETATM    7  O1  UNL     1     -26.581  43.311  20.576  1.00  0.00    -0.648 OA
HETATM    8  O2  UNL     1     -27.237  41.702  19.121  1.00  0.00    -0.648 OA
ENDBRANCH   5   6
ENDBRANCH   4   5
ENDBRANCH   3   4
ENDBRANCH   2   3
ENDBRANCH   1   2
BRANCH   1   9
HETATM    9  C6  UNL     1     -22.889  39.762  15.844  1.00  0.00     0.156 C 
BRANCH   9  10
HETATM   10  C7  UNL     1     -22.740  38.341  16.189  1.00  0.00    -0.041 A 
HETATM   11  C8  UNL     1     -23.717  37.655  16.894  1.00  0.00     0.011 A 
HETATM   12  C9  UNL     1     -23.573  36.320  17.237  1.00  0.00     0.037 A 
HETATM   13  C10 UNL     1     -22.452  35.604  16.897  1.00  0.00     0.102 A 
HETATM   14  C11 UNL     1     -21.471  36.269  16.194  1.00  0.00     0.037 A 
HETATM   15  C12 UNL     1     -21.622  37.601  15.856  1.00  0.00     0.011 A 
BRANCH  13  16
HETATM   16  N2  UNL     1     -22.294  34.220  17.263  1.00  0.00    -0.116 N 
HETATM   17  O3  UNL     1     -23.112  33.694  18.003  1.00  0.00    -0.532 OA
HETATM   18  O4  UNL     1     -21.234  33.480  16.795  1.00  0.00    -0.532 OA
ENDBRANCH  13  16
ENDBRANCH   9  10
ENDBRANCH   1   9
BRANCH   1  19
HETATM   19  C13 UNL     1     -25.008  40.232  14.763  1.00  0.00     0.263 C 
BRANCH  19  20
HETATM   20  P1  UNL     1     -26.647  39.717  15.040  1.00  0.00     0.277 P 
HETATM   21  O5  UNL     1     -27.172  39.287  16.612  1.00  0.00    -0.638 OA
HETATM   22  O6  UNL     1     -26.461  38.216  14.823  1.00  0.00    -0.638 OA
HETATM   23  O7  UNL     1     -27.803  39.925  13.915  1.00  0.00    -0.638 OA
ENDBRANCH  19  20
ENDBRANCH   1  19
TORSDOF 10
ENDMDL
