MODEL 5
REMARK VINA RESULT: -8.294630706      1.164      1.962
REMARK  10 active torsions:
REMARK  status: ('A' for Active; 'I' for Inactive)
REMARK    1  A    between atoms: C1_2  and  C2_4 
REMARK    2  A    between atoms: C2_4  and  C3_5 
REMARK    3  A    between atoms: C3_5  and  C4_6 
REMARK    4  A    between atoms: C4_6  and  C5_7 
REMARK    5  A    between atoms: C5_7  and  N1_8 
REMARK    6  A    between atoms: N1_8  and  C6_9 
REMARK    7  A    between atoms: N1_8  and  C13_19 
REMARK    8  A    between atoms: C6_9  and  C7_10 
REMARK    9  A    between atoms: C10_13  and  N2_14 
REMARK   10  A    between atoms: C13_19  and  P1_20 
ROOT
HETATM    1  N1  UNL     1     -24.264  40.213  15.708  1.00  0.00    -0.397 N 
ENDROOT
BRANCH   1   2
HETATM    2  C5  UNL     1     -24.521  41.363  16.514  1.00  0.00     0.118 C 
BRANCH   2   3
HETATM    3  C4  UNL     1     -23.829  41.493  17.814  1.00  0.00     0.020 C 
BRANCH   3   4
HETATM    4  C3  UNL     1     -24.634  40.812  18.943  1.00  0.00     0.012 C 
BRANCH   4   5
HETATM    5  C2  UNL     1     -24.216  41.372  20.278  1.00  0.00     0.113 C 
BRANCH   5   6
HETATM    6  C1  UNL     1     -25.082  40.845  21.358  1.00  0.00     0.172 C 
HETATM    7  O1  UNL     1     -26.337  40.887  21.364  1.00  0.00    -0.648 OA
HETATM    8  O2  UNL     1     -24.453  40.257  22.453  1.00  0.00    -0.648 OA
ENDBRANCH   5   6
ENDBRANCH   4   5
ENDBRANCH   3   4
ENDBRANCH   2   3
ENDBRANCH   1   2
BRANCH   1   9
HETATM    9  C6  UNL     1     -22.891  39.748  15.838  1.00  0.00     0.156 C 
BRANCH   9  10
HETATM   10  C7  UNL     1     -22.724  38.336  16.211  1.00  0.00    -0.041 A 
HETATM   11  C8  UNL     1     -21.584  37.623  15.878  1.00  0.00     0.011 A 
HETATM   12  C9  UNL     1     -21.430  36.287  16.213  1.00  0.00     0.037 A 
HETATM   13  C10 UNL     1     -22.402  35.596  16.892  1.00  0.00     0.102 A 
HETATM   14  C11 UNL     1     -23.544  36.290  17.233  1.00  0.00     0.037 A 
HETATM   15  C12 UNL     1     -23.689  37.622  16.896  1.00  0.00     0.011 A 
BRANCH  13  16
HETATM   16  N2  UNL     1     -22.251  34.205  17.231  1.00  0.00    -0.116 N 
HETATM   17  O3  UNL     1     -23.081  33.664  17.946  1.00  0.00    -0.532 OA
HETATM   18  O4  UNL     1     -21.185  33.474  16.762  1.00  0.00    -0.532 OA
ENDBRANCH  13  16
ENDBRANCH   9  10
ENDBRANCH   1   9
BRANCH   1  19
HETATM   19  C13 UNL     1     -24.790  40.177  14.393  1.00  0.00     0.263 C 
BRANCH  19  20
HETATM   20  P1  UNL     1     -26.292  39.306  14.278  1.00  0.00     0.277 P 
HETATM   21  O5  UNL     1     -26.964  38.921  12.751  1.00  0.00    -0.638 OA
HETATM   22  O6  UNL     1     -27.253  40.493  14.267  1.00  0.00    -0.638 OA
HETATM   23  O7  UNL     1     -26.939  38.558  15.571  1.00  0.00    -0.638 OA
ENDBRANCH  19  20
ENDBRANCH   1  19
TORSDOF 10
ENDMDL
