MODEL 2
REMARK VINA RESULT: -8.408857043      1.118      1.544
REMARK  10 active torsions:
REMARK  status: ('A' for Active; 'I' for Inactive)
REMARK    1  A    between atoms: C1_2  and  C2_4 
REMARK    2  A    between atoms: C2_4  and  C3_5 
REMARK    3  A    between atoms: C3_5  and  C4_6 
REMARK    4  A    between atoms: C4_6  and  C5_7 
REMARK    5  A    between atoms: C5_7  and  N1_8 
REMARK    6  A    between atoms: N1_8  and  C6_9 
REMARK    7  A    between atoms: N1_8  and  C13_19 
REMARK    8  A    between atoms: C6_9  and  C7_10 
REMARK    9  A    between atoms: C10_13  and  N2_14 
REMARK   10  A    between atoms: C13_19  and  P1_20 
ROOT
HETATM    1  N1  UNL     1     -24.208  40.243  15.955  1.00  0.00    -0.397 N 
ENDROOT
BRANCH   1   2
HETATM    2  C5  UNL     1     -24.238  41.397  16.795  1.00  0.00     0.118 C 
BRANCH   2   3
HETATM    3  C4  UNL     1     -23.660  41.306  18.152  1.00  0.00     0.020 C 
BRANCH   3   4
HETATM    4  C3  UNL     1     -24.713  40.821  19.174  1.00  0.00     0.012 C 
BRANCH   4   5
HETATM    5  C2  UNL     1     -24.448  41.448  20.518  1.00  0.00     0.113 C 
BRANCH   5   6
HETATM    6  C1  UNL     1     -25.290  40.820  21.561  1.00  0.00     0.172 C 
HETATM    7  O1  UNL     1     -26.543  40.890  21.618  1.00  0.00    -0.648 OA
HETATM    8  O2  UNL     1     -24.641  40.094  22.557  1.00  0.00    -0.648 OA
ENDBRANCH   5   6
ENDBRANCH   4   5
ENDBRANCH   3   4
ENDBRANCH   2   3
ENDBRANCH   1   2
BRANCH   1   9
HETATM    9  C6  UNL     1     -22.864  39.699  15.817  1.00  0.00     0.156 C 
BRANCH   9  10
HETATM   10  C7  UNL     1     -22.701  38.287  16.195  1.00  0.00    -0.041 A 
HETATM   11  C8  UNL     1     -21.572  37.564  15.845  1.00  0.00     0.011 A 
HETATM   12  C9  UNL     1     -21.422  36.229  16.184  1.00  0.00     0.037 A 
HETATM   13  C10 UNL     1     -22.387  35.549  16.885  1.00  0.00     0.102 A 
HETATM   14  C11 UNL     1     -23.517  36.253  17.243  1.00  0.00     0.037 A 
HETATM   15  C12 UNL     1     -23.659  37.585  16.901  1.00  0.00     0.011 A 
BRANCH  13  16
HETATM   16  N2  UNL     1     -22.240  34.159  17.228  1.00  0.00    -0.116 N 
HETATM   17  O3  UNL     1     -21.302  33.521  16.773  1.00  0.00    -0.532 OA
HETATM   18  O4  UNL     1     -23.140  33.534  18.059  1.00  0.00    -0.532 OA
ENDBRANCH  13  16
ENDBRANCH   9  10
ENDBRANCH   1   9
BRANCH   1  19
HETATM   19  C13 UNL     1     -24.978  40.251  14.765  1.00  0.00     0.263 C 
BRANCH  19  20
HETATM   20  P1  UNL     1     -26.618  39.721  15.007  1.00  0.00     0.277 P 
HETATM   21  O5  UNL     1     -27.161  39.244  16.559  1.00  0.00    -0.638 OA
HETATM   22  O6  UNL     1     -26.424  38.228  14.749  1.00  0.00    -0.638 OA
HETATM   23  O7  UNL     1     -27.761  39.957  13.873  1.00  0.00    -0.638 OA
ENDBRANCH  19  20
ENDBRANCH   1  19
TORSDOF 10
ENDMDL
