MODEL 15
REMARK VINA RESULT: -7.446137153      2.507      5.399
REMARK  10 active torsions:
REMARK  status: ('A' for Active; 'I' for Inactive)
REMARK    1  A    between atoms: C1_2  and  C2_4 
REMARK    2  A    between atoms: C2_4  and  C3_5 
REMARK    3  A    between atoms: C3_5  and  C4_6 
REMARK    4  A    between atoms: C4_6  and  C5_7 
REMARK    5  A    between atoms: C5_7  and  N1_8 
REMARK    6  A    between atoms: N1_8  and  C6_9 
REMARK    7  A    between atoms: N1_8  and  C13_19 
REMARK    8  A    between atoms: C6_9  and  C7_10 
REMARK    9  A    between atoms: C10_13  and  N2_14 
REMARK   10  A    between atoms: C13_19  and  P1_20 
ROOT
HETATM    1  N1  UNL     1     -24.773  41.273  16.158  1.00  0.00    -0.397 N 
ENDROOT
BRANCH   1   2
HETATM    2  C5  UNL     1     -25.581  41.468  14.997  1.00  0.00     0.118 C 
BRANCH   2   3
HETATM    3  C4  UNL     1     -24.963  41.309  13.664  1.00  0.00     0.020 C 
BRANCH   3   4
HETATM    4  C3  UNL     1     -25.847  41.935  12.562  1.00  0.00     0.012 C 
BRANCH   4   5
HETATM    5  C2  UNL     1     -27.222  41.318  12.598  1.00  0.00     0.113 C 
BRANCH   5   6
HETATM    6  C1  UNL     1     -27.200  39.961  12.005  1.00  0.00     0.172 C 
HETATM    7  O1  UNL     1     -27.443  38.897  12.626  1.00  0.00    -0.648 OA
HETATM    8  O2  UNL     1     -26.885  39.859  10.652  1.00  0.00    -0.648 OA
ENDBRANCH   5   6
ENDBRANCH   4   5
ENDBRANCH   3   4
ENDBRANCH   2   3
ENDBRANCH   1   2
BRANCH   1   9
HETATM    9  C6  UNL     1     -24.966  39.956  16.747  1.00  0.00     0.156 C 
BRANCH   9  10
HETATM   10  C7  UNL     1     -23.868  38.998  16.551  1.00  0.00    -0.041 A 
HETATM   11  C8  UNL     1     -23.977  37.674  16.943  1.00  0.00     0.011 A 
HETATM   12  C9  UNL     1     -22.938  36.772  16.776  1.00  0.00     0.037 A 
HETATM   13  C10 UNL     1     -21.743  37.143  16.212  1.00  0.00     0.102 A 
HETATM   14  C11 UNL     1     -21.617  38.457  15.814  1.00  0.00     0.037 A 
HETATM   15  C12 UNL     1     -22.658  39.351  15.984  1.00  0.00     0.011 A 
BRANCH  13  16
HETATM   16  N2  UNL     1     -20.657  36.212  16.049  1.00  0.00    -0.116 N 
HETATM   17  O3  UNL     1     -20.773  35.071  16.470  1.00  0.00    -0.532 OA
HETATM   18  O4  UNL     1     -19.489  36.587  15.427  1.00  0.00    -0.532 OA
ENDBRANCH  13  16
ENDBRANCH   9  10
ENDBRANCH   1   9
BRANCH   1  19
HETATM   19  C13 UNL     1     -24.657  42.336  17.088  1.00  0.00     0.263 C 
BRANCH  19  20
HETATM   20  P1  UNL     1     -26.194  42.906  17.674  1.00  0.00     0.277 P 
HETATM   21  O5  UNL     1     -26.858  44.374  17.097  1.00  0.00    -0.638 OA
HETATM   22  O6  UNL     1     -25.701  43.734  18.860  1.00  0.00    -0.638 OA
HETATM   23  O7  UNL     1     -27.187  41.938  18.525  1.00  0.00    -0.638 OA
ENDBRANCH  19  20
ENDBRANCH   1  19
TORSDOF 10
ENDMDL
