MODEL 14
REMARK VINA RESULT: -7.457900136      2.043      4.916
REMARK  10 active torsions:
REMARK  status: ('A' for Active; 'I' for Inactive)
REMARK    1  A    between atoms: C1_2  and  C2_4 
REMARK    2  A    between atoms: C2_4  and  C3_5 
REMARK    3  A    between atoms: C3_5  and  C4_6 
REMARK    4  A    between atoms: C4_6  and  C5_7 
REMARK    5  A    between atoms: C5_7  and  N1_8 
REMARK    6  A    between atoms: N1_8  and  C6_9 
REMARK    7  A    between atoms: N1_8  and  C13_19 
REMARK    8  A    between atoms: C6_9  and  C7_10 
REMARK    9  A    between atoms: C10_13  and  N2_14 
REMARK   10  A    between atoms: C13_19  and  P1_20 
ROOT
HETATM    1  N1  UNL     1     -24.499  41.162  17.067  1.00  0.00    -0.397 N 
ENDROOT
BRANCH   1   2
HETATM    2  C5  UNL     1     -25.189  42.117  16.260  1.00  0.00     0.118 C 
BRANCH   2   3
HETATM    3  C4  UNL     1     -26.354  41.671  15.467  1.00  0.00     0.020 C 
BRANCH   3   4
HETATM    4  C3  UNL     1     -26.079  41.804  13.953  1.00  0.00     0.012 C 
BRANCH   4   5
HETATM    5  C2  UNL     1     -25.338  40.589  13.459  1.00  0.00     0.113 C 
BRANCH   5   6
HETATM    6  C1  UNL     1     -26.288  39.537  13.031  1.00  0.00     0.172 C 
HETATM    7  O1  UNL     1     -26.997  39.581  11.996  1.00  0.00    -0.648 OA
HETATM    8  O2  UNL     1     -26.402  38.410  13.842  1.00  0.00    -0.648 OA
ENDBRANCH   5   6
ENDBRANCH   4   5
ENDBRANCH   3   4
ENDBRANCH   2   3
ENDBRANCH   1   2
BRANCH   1   9
HETATM    9  C6  UNL     1     -24.994  39.808  16.860  1.00  0.00     0.156 C 
BRANCH   9  10
HETATM   10  C7  UNL     1     -23.968  38.771  16.674  1.00  0.00    -0.041 A 
HETATM   11  C8  UNL     1     -24.148  37.477  17.135  1.00  0.00     0.011 A 
HETATM   12  C9  UNL     1     -23.176  36.501  16.977  1.00  0.00     0.037 A 
HETATM   13  C10 UNL     1     -21.982  36.765  16.355  1.00  0.00     0.102 A 
HETATM   14  C11 UNL     1     -21.786  38.048  15.889  1.00  0.00     0.037 A 
HETATM   15  C12 UNL     1     -22.760  39.015  16.050  1.00  0.00     0.011 A 
BRANCH  13  16
HETATM   16  N2  UNL     1     -20.966  35.757  16.201  1.00  0.00    -0.116 N 
HETATM   17  O3  UNL     1     -21.258  34.579  16.344  1.00  0.00    -0.532 OA
HETATM   18  O4  UNL     1     -19.669  36.098  15.896  1.00  0.00    -0.532 OA
ENDBRANCH  13  16
ENDBRANCH   9  10
ENDBRANCH   1   9
BRANCH   1  19
HETATM   19  C13 UNL     1     -24.208  41.497  18.413  1.00  0.00     0.263 C 
BRANCH  19  20
HETATM   20  P1  UNL     1     -25.600  42.050  19.298  1.00  0.00     0.277 P 
HETATM   21  O5  UNL     1     -25.478  43.371  20.380  1.00  0.00    -0.638 OA
HETATM   22  O6  UNL     1     -25.452  41.174  20.541  1.00  0.00    -0.638 OA
HETATM   23  O7  UNL     1     -27.102  41.562  18.906  1.00  0.00    -0.638 OA
ENDBRANCH  19  20
ENDBRANCH   1  19
TORSDOF 10
ENDMDL
