MODEL 1
REMARK VINA RESULT: -8.413347450      0.000      0.000
REMARK  10 active torsions:
REMARK  status: ('A' for Active; 'I' for Inactive)
REMARK    1  A    between atoms: C1_2  and  C2_4 
REMARK    2  A    between atoms: C2_4  and  C3_5 
REMARK    3  A    between atoms: C3_5  and  C4_6 
REMARK    4  A    between atoms: C4_6  and  C5_7 
REMARK    5  A    between atoms: C5_7  and  N1_8 
REMARK    6  A    between atoms: N1_8  and  C6_9 
REMARK    7  A    between atoms: N1_8  and  C13_19 
REMARK    8  A    between atoms: C6_9  and  C7_10 
REMARK    9  A    between atoms: C10_13  and  N2_14 
REMARK   10  A    between atoms: C13_19  and  P1_20 
ROOT
HETATM    1  N1  UNL     1     -24.206  40.236  15.953  1.00  0.00    -0.397 N 
ENDROOT
BRANCH   1   2
HETATM    2  C5  UNL     1     -24.240  41.396  16.785  1.00  0.00     0.118 C 
BRANCH   2   3
HETATM    3  C4  UNL     1     -23.778  41.284  18.184  1.00  0.00     0.020 C 
BRANCH   3   4
HETATM    4  C3  UNL     1     -24.973  41.270  19.164  1.00  0.00     0.012 C 
BRANCH   4   5
HETATM    5  C2  UNL     1     -24.469  41.210  20.583  1.00  0.00     0.113 C 
BRANCH   5   6
HETATM    6  C1  UNL     1     -23.499  42.300  20.838  1.00  0.00     0.172 C 
HETATM    7  O1  UNL     1     -23.746  43.527  20.731  1.00  0.00    -0.648 OA
HETATM    8  O2  UNL     1     -22.213  41.935  21.229  1.00  0.00    -0.648 OA
ENDBRANCH   5   6
ENDBRANCH   4   5
ENDBRANCH   3   4
ENDBRANCH   2   3
ENDBRANCH   1   2
BRANCH   1   9
HETATM    9  C6  UNL     1     -22.862  39.692  15.824  1.00  0.00     0.156 C 
BRANCH   9  10
HETATM   10  C7  UNL     1     -22.708  38.272  16.172  1.00  0.00    -0.041 A 
HETATM   11  C8  UNL     1     -23.680  37.586  16.881  1.00  0.00     0.011 A 
HETATM   12  C9  UNL     1     -23.531  36.252  17.227  1.00  0.00     0.037 A 
HETATM   13  C10 UNL     1     -22.410  35.538  16.885  1.00  0.00     0.102 A 
HETATM   14  C11 UNL     1     -21.432  36.205  16.178  1.00  0.00     0.037 A 
HETATM   15  C12 UNL     1     -21.588  37.535  15.837  1.00  0.00     0.011 A 
BRANCH  13  16
HETATM   16  N2  UNL     1     -22.247  34.156  17.253  1.00  0.00    -0.116 N 
HETATM   17  O3  UNL     1     -21.286  33.529  16.833  1.00  0.00    -0.532 OA
HETATM   18  O4  UNL     1     -23.156  33.528  18.071  1.00  0.00    -0.532 OA
ENDBRANCH  13  16
ENDBRANCH   9  10
ENDBRANCH   1   9
BRANCH   1  19
HETATM   19  C13 UNL     1     -24.972  40.236  14.761  1.00  0.00     0.263 C 
BRANCH  19  20
HETATM   20  P1  UNL     1     -26.616  39.718  15.002  1.00  0.00     0.277 P 
HETATM   21  O5  UNL     1     -27.168  39.263  16.558  1.00  0.00    -0.638 OA
HETATM   22  O6  UNL     1     -26.428  38.220  14.764  1.00  0.00    -0.638 OA
HETATM   23  O7  UNL     1     -27.752  39.945  13.861  1.00  0.00    -0.638 OA
ENDBRANCH  19  20
ENDBRANCH   1  19
TORSDOF 10
ENDMDL
