MODEL 5
REMARK VINA RESULT: -5.981500285      0.271      1.674
REMARK  14 active torsions:
REMARK  status: ('A' for Active; 'I' for Inactive)
REMARK    1  A    between atoms: O1_2  and  C2_3 
REMARK    2  A    between atoms: C5_8  and  C6_9 
REMARK       I    between atoms: C6_9  and  N1_11 
REMARK    3  A    between atoms: N1_11  and  C7_13 
REMARK    4  A    between atoms: C8_14  and  O3_15 
REMARK    5  A    between atoms: C9_17  and  O4_18 
REMARK    6  A    between atoms: O4_18  and  C10_19 
REMARK    7  A    between atoms: C11_20  and  C12_21 
REMARK    8  A    between atoms: C12_21  and  O5_22 
REMARK    9  A    between atoms: C13_25  and  O7_26 
REMARK   10  A    between atoms: C14_28  and  N2_29 
REMARK       I    between atoms: N2_29  and  C15_31 
REMARK   11  A    between atoms: C17_34  and  O9_35 
REMARK   12  A    between atoms: C18_38  and  C19_39 
REMARK   13  A    between atoms: C19_39  and  O11_40 
REMARK   14  A    between atoms: C20_42  and  O12_43 
ROOT
HETATM    1  C7  UNL     1       0.439  -7.968   1.033  1.00  0.00     0.149 C 
HETATM    2  C8  UNL     1      -0.602  -9.060   1.069  1.00  0.00     0.198 C 
HETATM    3  C9  UNL     1      -1.915  -8.481   1.570  1.00  0.00     0.291 C 
HETATM    4  O10 UNL     1      -1.792  -7.178   2.008  1.00  0.00    -0.349 OA
HETATM    5  C18 UNL     1      -1.297  -6.281   1.094  1.00  0.00     0.179 C 
HETATM    6  C20 UNL     1      -0.130  -6.814   0.292  1.00  0.00     0.174 C 
ENDROOT
BRANCH   3   7
HETATM    7  O4  UNL     1      -2.928  -8.628   0.626  1.00  0.00    -0.348 OA
BRANCH   7   8
HETATM    8  C10 UNL     1      -3.945  -9.389   1.119  1.00  0.00     0.186 C 
HETATM    9  C11 UNL     1      -4.155  -9.294   2.596  1.00  0.00     0.179 C 
HETATM   10  O6  UNL     1      -4.591 -10.487   3.107  1.00  0.00    -0.349 OA
HETATM   11  C13 UNL     1      -5.578 -11.116   2.393  1.00  0.00     0.282 C 
HETATM   12  C14 UNL     1      -5.155 -11.459   0.976  1.00  0.00     0.170 C 
HETATM   13  C17 UNL     1      -3.751 -10.884   0.817  1.00  0.00     0.177 C 
BRANCH   9  14
HETATM   14  C12 UNL     1      -5.031  -8.125   2.991  1.00  0.00     0.198 C 
BRANCH  14  15
HETATM   15  O5  UNL     1      -5.581  -7.611   1.823  1.00  0.00    -0.398 OA
ATOM     16  H5  UNL     1      -6.477  -7.919   1.776  1.00  0.00     0.209 HD
ENDBRANCH  14  15
ENDBRANCH   9  14
BRANCH  11  17
HETATM   17  O7  UNL     1      -6.792 -10.453   2.426  1.00  0.00    -0.369 OA
ATOM     18  H7  UNL     1      -7.523 -10.984   2.131  1.00  0.00     0.212 HD
ENDBRANCH  11  17
BRANCH  12  19
HETATM   19  N2  UNL     1      -5.248 -12.842   0.664  1.00  0.00    -0.349 N 
HETATM   20  C15 UNL     1      -5.591 -13.310  -0.650  1.00  0.00     0.214 C 
HETATM   21  C16 UNL     1      -5.690 -14.755  -0.982  1.00  0.00     0.117 C 
HETATM   22  O8  UNL     1      -5.822 -12.488  -1.574  1.00  0.00    -0.274 OA
ATOM     23  H2  UNL     1      -5.065 -13.526   1.398  1.00  0.00     0.163 HD
ENDBRANCH  12  19
BRANCH  13  24
HETATM   24  O9  UNL     1      -3.221 -11.099  -0.424  1.00  0.00    -0.391 OA
ATOM     25  H9  UNL     1      -2.313 -11.377  -0.386  1.00  0.00     0.210 HD
ENDBRANCH  13  24
ENDBRANCH   7   8
ENDBRANCH   3   7
BRANCH   2  26
HETATM   26  O3  UNL     1      -0.103 -10.063   1.901  1.00  0.00    -0.388 OA
ATOM     27  H3  UNL     1      -0.572 -10.859   1.681  1.00  0.00     0.210 HD
ENDBRANCH   2  26
BRANCH   1  28
HETATM   28  N1  UNL     1       1.650  -8.516   0.492  1.00  0.00    -0.347 N 
HETATM   29  C6  UNL     1       2.948  -8.119   0.845  1.00  0.00     0.258 C 
HETATM   30  O2  UNL     1       2.971  -7.191   1.723  1.00  0.00    -0.267 OA
ATOM     31  H1  UNL     1       1.559  -9.254  -0.206  1.00  0.00     0.163 HD
BRANCH  29  32
HETATM   32  C5  UNL     1       4.197  -8.634   0.335  1.00  0.00     0.115 A 
HETATM   33  C4  UNL     1       5.012  -9.337   1.221  1.00  0.00     0.176 A 
HETATM   34  C3  UNL     1       6.223  -9.876   0.857  1.00  0.00     0.192 A 
HETATM   35  F2  UNL     1       4.630  -9.519   2.501  1.00  0.00    -0.202 F 
HETATM   36  C2  UNL     1       6.698  -9.742  -0.427  1.00  0.00     0.152 A 
HETATM   37  F1  UNL     1       7.010 -10.558   1.725  1.00  0.00    -0.200 F 
HETATM   38  C22 UNL     1       5.908  -9.053  -1.315  1.00  0.00     0.192 A 
HETATM   39  C21 UNL     1       4.671  -8.504  -0.938  1.00  0.00     0.176 A 
HETATM   40  F4  UNL     1       6.349  -8.907  -2.584  1.00  0.00    -0.200 F 
HETATM   41  F3  UNL     1       3.930  -7.832  -1.857  1.00  0.00    -0.202 F 
BRANCH  36  42
HETATM   42  O1  UNL     1       7.906 -10.278  -0.798  1.00  0.00    -0.350 OA
HETATM   43  C1  UNL     1       8.089 -11.534  -1.387  1.00  0.00     0.210 C 
ENDBRANCH  36  42
ENDBRANCH  29  32
ENDBRANCH   1  28
BRANCH   5  44
HETATM   44  C19 UNL     1      -2.386  -5.742   0.166  1.00  0.00     0.198 C 
BRANCH  44  45
HETATM   45  O11 UNL     1      -3.549  -5.625   0.962  1.00  0.00    -0.398 OA
ATOM     46  H11 UNL     1      -4.013  -4.866   0.631  1.00  0.00     0.209 HD
ENDBRANCH  44  45
ENDBRANCH   5  44
BRANCH   6  47
HETATM   47  O12 UNL     1      -0.663  -7.272  -0.917  1.00  0.00    -0.391 OA
ATOM     48  H12 UNL     1      -1.196  -6.584  -1.298  1.00  0.00     0.210 HD
ENDBRANCH   6  47
TORSDOF 14
ENDMDL
