MODEL 6
REMARK VINA RESULT: -5.976919581      3.322      3.959
REMARK  14 active torsions:
REMARK  status: ('A' for Active; 'I' for Inactive)
REMARK    1  A    between atoms: O1_2  and  C2_3 
REMARK    2  A    between atoms: C5_8  and  C6_9 
REMARK       I    between atoms: C6_9  and  N1_11 
REMARK    3  A    between atoms: N1_11  and  C7_13 
REMARK    4  A    between atoms: C8_14  and  O3_15 
REMARK    5  A    between atoms: C9_17  and  O4_18 
REMARK    6  A    between atoms: O4_18  and  C10_19 
REMARK    7  A    between atoms: C11_20  and  C12_21 
REMARK    8  A    between atoms: C12_21  and  O5_22 
REMARK    9  A    between atoms: C13_25  and  O7_26 
REMARK   10  A    between atoms: C14_28  and  N2_29 
REMARK       I    between atoms: N2_29  and  C15_31 
REMARK   11  A    between atoms: C17_34  and  O9_35 
REMARK   12  A    between atoms: C18_38  and  C19_39 
REMARK   13  A    between atoms: C19_39  and  O11_40 
REMARK   14  A    between atoms: C20_42  and  O12_43 
ROOT
HETATM    1  C7  UNL     1       0.763  -8.114   1.833  1.00  0.00     0.149 C 
HETATM    2  C8  UNL     1       0.636  -9.443   1.129  1.00  0.00     0.198 C 
HETATM    3  C9  UNL     1      -0.766  -9.989   1.345  1.00  0.00     0.291 C 
HETATM    4  O10 UNL     1      -1.501  -9.237   2.237  1.00  0.00    -0.349 OA
HETATM    5  C18 UNL     1      -1.647  -7.908   1.927  1.00  0.00     0.179 C 
HETATM    6  C20 UNL     1      -0.378  -7.260   1.417  1.00  0.00     0.174 C 
ENDROOT
BRANCH   3   7
HETATM    7  O4  UNL     1      -1.431 -10.173   0.135  1.00  0.00    -0.348 OA
BRANCH   7   8
HETATM    8  C10 UNL     1      -1.633 -11.498  -0.113  1.00  0.00     0.186 C 
HETATM    9  C11 UNL     1      -1.818 -12.352   1.101  1.00  0.00     0.179 C 
HETATM   10  O6  UNL     1      -1.301 -13.604   0.901  1.00  0.00    -0.349 OA
HETATM   11  C13 UNL     1      -1.598 -14.188  -0.303  1.00  0.00     0.282 C 
HETATM   12  C14 UNL     1      -1.087 -13.389  -1.489  1.00  0.00     0.170 C 
HETATM   13  C17 UNL     1      -0.470 -12.126  -0.896  1.00  0.00     0.177 C 
BRANCH   9  14
HETATM   14  C12 UNL     1      -3.248 -12.374   1.592  1.00  0.00     0.198 C 
BRANCH  14  15
HETATM   15  O5  UNL     1      -4.031 -11.791   0.603  1.00  0.00    -0.398 OA
ATOM     16  H5  UNL     1      -4.835 -11.500   1.016  1.00  0.00     0.209 HD
ENDBRANCH  14  15
ENDBRANCH   9  14
BRANCH  11  17
HETATM   17  O7  UNL     1      -2.934 -14.522  -0.440  1.00  0.00    -0.369 OA
ATOM     18  H7  UNL     1      -3.141 -14.924  -1.275  1.00  0.00     0.212 HD
ENDBRANCH  11  17
BRANCH  12  19
HETATM   19  N2  UNL     1      -0.209 -14.114  -2.338  1.00  0.00    -0.349 N 
HETATM   20  C15 UNL     1      -0.434 -14.232  -3.752  1.00  0.00     0.214 C 
HETATM   21  C16 UNL     1       0.481 -14.989  -4.645  1.00  0.00     0.117 C 
HETATM   22  O8  UNL     1      -1.435 -13.685  -4.281  1.00  0.00    -0.274 OA
ATOM     23  H2  UNL     1       0.609 -14.566  -1.930  1.00  0.00     0.163 HD
ENDBRANCH  12  19
BRANCH  13  24
HETATM   24  O9  UNL     1       0.035 -11.280  -1.844  1.00  0.00    -0.391 OA
ATOM     25  H9  UNL     1       0.642 -10.648  -1.477  1.00  0.00     0.210 HD
ENDBRANCH  13  24
ENDBRANCH   7   8
ENDBRANCH   3   7
BRANCH   2  26
HETATM   26  O3  UNL     1       1.625 -10.273   1.656  1.00  0.00    -0.388 OA
ATOM     27  H3  UNL     1       1.286 -10.617   2.474  1.00  0.00     0.210 HD
ENDBRANCH   2  26
BRANCH   1  28
HETATM   28  N1  UNL     1       2.067  -7.581   1.560  1.00  0.00    -0.347 N 
HETATM   29  C6  UNL     1       3.145  -7.576   2.458  1.00  0.00     0.258 C 
HETATM   30  O2  UNL     1       2.864  -8.105   3.587  1.00  0.00    -0.267 OA
ATOM     31  H1  UNL     1       2.223  -7.173   0.639  1.00  0.00     0.163 HD
BRANCH  29  32
HETATM   32  C5  UNL     1       4.474  -7.056   2.237  1.00  0.00     0.115 A 
HETATM   33  C4  UNL     1       5.316  -7.780   1.396  1.00  0.00     0.176 A 
HETATM   34  C3  UNL     1       6.602  -7.390   1.107  1.00  0.00     0.192 A 
HETATM   35  F2  UNL     1       4.887  -8.920   0.818  1.00  0.00    -0.202 F 
HETATM   36  C2  UNL     1       7.129  -6.240   1.649  1.00  0.00     0.152 A 
HETATM   37  F1  UNL     1       7.416  -8.099   0.287  1.00  0.00    -0.200 F 
HETATM   38  C22 UNL     1       6.314  -5.513   2.481  1.00  0.00     0.192 A 
HETATM   39  C21 UNL     1       5.000  -5.916   2.773  1.00  0.00     0.176 A 
HETATM   40  F4  UNL     1       6.805  -4.378   3.027  1.00  0.00    -0.200 F 
HETATM   41  F3  UNL     1       4.237  -5.158   3.602  1.00  0.00    -0.202 F 
BRANCH  36  42
HETATM   42  O1  UNL     1       8.413  -5.844   1.365  1.00  0.00    -0.350 OA
HETATM   43  C1  UNL     1       9.540  -6.135   2.141  1.00  0.00     0.210 C 
ENDBRANCH  36  42
ENDBRANCH  29  32
ENDBRANCH   1  28
BRANCH   5  44
HETATM   44  C19 UNL     1      -2.803  -7.667   0.954  1.00  0.00     0.198 C 
BRANCH  44  45
HETATM   45  O11 UNL     1      -3.105  -6.289   1.047  1.00  0.00    -0.398 OA
ATOM     46  H11 UNL     1      -3.356  -6.139   1.950  1.00  0.00     0.209 HD
ENDBRANCH  44  45
ENDBRANCH   5  44
BRANCH   6  47
HETATM   47  O12 UNL     1      -0.466  -7.273   0.021  1.00  0.00    -0.391 OA
ATOM     48  H12 UNL     1      -1.366  -7.099  -0.231  1.00  0.00     0.210 HD
ENDBRANCH   6  47
TORSDOF 14
ENDMDL
