MODEL 1
REMARK VINA RESULT: -6.191399066      0.000      0.000
REMARK  14 active torsions:
REMARK  status: ('A' for Active; 'I' for Inactive)
REMARK    1  A    between atoms: O1_2  and  C2_3 
REMARK    2  A    between atoms: C5_8  and  C6_9 
REMARK       I    between atoms: C6_9  and  N1_11 
REMARK    3  A    between atoms: N1_11  and  C7_13 
REMARK    4  A    between atoms: C8_14  and  O3_15 
REMARK    5  A    between atoms: C9_17  and  O4_18 
REMARK    6  A    between atoms: O4_18  and  C10_19 
REMARK    7  A    between atoms: C11_20  and  C12_21 
REMARK    8  A    between atoms: C12_21  and  O5_22 
REMARK    9  A    between atoms: C13_25  and  O7_26 
REMARK   10  A    between atoms: C14_28  and  N2_29 
REMARK       I    between atoms: N2_29  and  C15_31 
REMARK   11  A    between atoms: C17_34  and  O9_35 
REMARK   12  A    between atoms: C18_38  and  C19_39 
REMARK   13  A    between atoms: C19_39  and  O11_40 
REMARK   14  A    between atoms: C20_42  and  O12_43 
ROOT
HETATM    1  C7  UNL     1       0.603  -8.153   1.092  1.00  0.00     0.149 C 
HETATM    2  C8  UNL     1      -0.456  -9.229   1.091  1.00  0.00     0.198 C 
HETATM    3  C9  UNL     1      -1.774  -8.631   1.553  1.00  0.00     0.291 C 
HETATM    4  O10 UNL     1      -1.645  -7.332   1.999  1.00  0.00    -0.349 OA
HETATM    5  C18 UNL     1      -1.107  -6.440   1.105  1.00  0.00     0.179 C 
HETATM    6  C20 UNL     1       0.076  -6.988   0.337  1.00  0.00     0.174 C 
ENDROOT
BRANCH   3   7
HETATM    7  O4  UNL     1      -2.760  -8.760   0.577  1.00  0.00    -0.348 OA
BRANCH   7   8
HETATM    8  C10 UNL     1      -3.806  -9.501   1.036  1.00  0.00     0.186 C 
HETATM    9  C11 UNL     1      -4.067  -9.393   2.505  1.00  0.00     0.179 C 
HETATM   10  O6  UNL     1      -4.541 -10.577   3.006  1.00  0.00    -0.349 OA
HETATM   11  C13 UNL     1      -5.512 -11.194   2.260  1.00  0.00     0.282 C 
HETATM   12  C14 UNL     1      -5.044 -11.552   0.860  1.00  0.00     0.170 C 
HETATM   13  C17 UNL     1      -3.625 -11.000   0.750  1.00  0.00     0.177 C 
BRANCH   9  14
HETATM   14  C12 UNL     1      -4.937  -8.209   2.862  1.00  0.00     0.198 C 
BRANCH  14  15
HETATM   15  O5  UNL     1      -5.439  -7.695   1.673  1.00  0.00    -0.398 OA
ATOM     16  H5  UNL     1      -6.058  -7.012   1.901  1.00  0.00     0.209 HD
ENDBRANCH  14  15
ENDBRANCH   9  14
BRANCH  11  17
HETATM   17  O7  UNL     1      -6.715 -10.511   2.245  1.00  0.00    -0.369 OA
ATOM     18  H7  UNL     1      -7.474 -11.078   2.314  1.00  0.00     0.212 HD
ENDBRANCH  11  17
BRANCH  12  19
HETATM   19  N2  UNL     1      -5.148 -12.935   0.552  1.00  0.00    -0.349 N 
HETATM   20  C15 UNL     1      -5.451 -13.405  -0.771  1.00  0.00     0.214 C 
HETATM   21  C16 UNL     1      -5.561 -14.850  -1.099  1.00  0.00     0.117 C 
HETATM   22  O8  UNL     1      -5.635 -12.584  -1.707  1.00  0.00    -0.274 OA
ATOM     23  H2  UNL     1      -5.002 -13.617   1.296  1.00  0.00     0.163 HD
ENDBRANCH  12  19
BRANCH  13  24
HETATM   24  O9  UNL     1      -3.054 -11.231  -0.471  1.00  0.00    -0.391 OA
ATOM     25  H9  UNL     1      -2.175 -11.584  -0.397  1.00  0.00     0.210 HD
ENDBRANCH  13  24
ENDBRANCH   7   8
ENDBRANCH   3   7
BRANCH   2  26
HETATM   26  O3  UNL     1       0.002 -10.242   1.935  1.00  0.00    -0.388 OA
ATOM     27  H3  UNL     1      -0.534 -11.007   1.759  1.00  0.00     0.210 HD
ENDBRANCH   2  26
BRANCH   1  28
HETATM   28  N1  UNL     1       1.822  -8.718   0.587  1.00  0.00    -0.347 N 
HETATM   29  C6  UNL     1       3.114  -8.285   0.917  1.00  0.00     0.258 C 
HETATM   30  O2  UNL     1       3.124  -7.304   1.737  1.00  0.00    -0.267 OA
ATOM     31  H1  UNL     1       1.741  -9.499  -0.064  1.00  0.00     0.163 HD
BRANCH  29  32
HETATM   32  C5  UNL     1       4.371  -8.815   0.442  1.00  0.00     0.115 A 
HETATM   33  C4  UNL     1       4.703  -8.582  -0.892  1.00  0.00     0.176 A 
HETATM   34  C3  UNL     1       5.869  -9.035  -1.462  1.00  0.00     0.192 A 
HETATM   35  F2  UNL     1       3.870  -7.886  -1.690  1.00  0.00    -0.202 F 
HETATM   36  C2  UNL     1       6.782  -9.755  -0.726  1.00  0.00     0.152 A 
HETATM   37  F1  UNL     1       6.186  -8.805  -2.760  1.00  0.00    -0.200 F 
HETATM   38  C22 UNL     1       6.471  -9.993   0.590  1.00  0.00     0.192 A 
HETATM   39  C21 UNL     1       5.278  -9.529   1.169  1.00  0.00     0.176 A 
HETATM   40  F4  UNL     1       7.350 -10.697   1.338  1.00  0.00    -0.200 F 
HETATM   41  F3  UNL     1       5.022  -9.793   2.476  1.00  0.00    -0.202 F 
BRANCH  36  42
HETATM   42  O1  UNL     1       7.949 -10.210  -1.289  1.00  0.00    -0.350 OA
HETATM   43  C1  UNL     1       8.122 -11.459  -1.896  1.00  0.00     0.210 C 
ENDBRANCH  36  42
ENDBRANCH  29  32
ENDBRANCH   1  28
BRANCH   5  44
HETATM   44  C19 UNL     1      -2.158  -5.881   0.144  1.00  0.00     0.198 C 
BRANCH  44  45
HETATM   45  O11 UNL     1      -3.320  -5.672   0.922  1.00  0.00    -0.398 OA
ATOM     46  H11 UNL     1      -3.863  -5.075   0.422  1.00  0.00     0.209 HD
ENDBRANCH  44  45
ENDBRANCH   5  44
BRANCH   6  47
HETATM   47  O12 UNL     1      -0.425  -7.434  -0.889  1.00  0.00    -0.391 OA
ATOM     48  H12 UNL     1      -1.201  -6.930  -1.105  1.00  0.00     0.210 HD
ENDBRANCH   6  47
TORSDOF 14
ENDMDL
