MODEL 2
REMARK VINA RESULT: -6.151340553      3.817     10.570
REMARK  14 active torsions:
REMARK  status: ('A' for Active; 'I' for Inactive)
REMARK    1  A    between atoms: O1_2  and  C2_3 
REMARK    2  A    between atoms: C5_8  and  C6_9 
REMARK       I    between atoms: C6_9  and  N1_11 
REMARK    3  A    between atoms: N1_11  and  C7_13 
REMARK    4  A    between atoms: C8_14  and  O3_15 
REMARK    5  A    between atoms: C9_17  and  O4_18 
REMARK    6  A    between atoms: O4_18  and  C10_19 
REMARK    7  A    between atoms: C11_20  and  C12_21 
REMARK    8  A    between atoms: C12_21  and  O5_22 
REMARK    9  A    between atoms: C13_25  and  O7_26 
REMARK   10  A    between atoms: C14_28  and  N2_29 
REMARK       I    between atoms: N2_29  and  C15_31 
REMARK   11  A    between atoms: C17_34  and  O9_35 
REMARK   12  A    between atoms: C18_38  and  C19_39 
REMARK   13  A    between atoms: C19_39  and  O11_40 
REMARK   14  A    between atoms: C20_42  and  O12_43 
ROOT
HETATM    1  C7  UNL     1       3.310  -7.162   1.547  1.00  0.00     0.149 C 
HETATM    2  C8  UNL     1       4.104  -8.419   1.809  1.00  0.00     0.198 C 
HETATM    3  C9  UNL     1       5.562  -8.168   1.462  1.00  0.00     0.291 C 
HETATM    4  O10 UNL     1       5.766  -6.945   0.860  1.00  0.00    -0.349 OA
HETATM    5  C18 UNL     1       5.343  -5.847   1.568  1.00  0.00     0.179 C 
HETATM    6  C20 UNL     1       3.994  -6.034   2.228  1.00  0.00     0.174 C 
ENDROOT
BRANCH   3   7
HETATM    7  O4  UNL     1       6.387  -8.357   2.568  1.00  0.00    -0.348 OA
BRANCH   7   8
HETATM    8  C10 UNL     1       7.247  -9.393   2.363  1.00  0.00     0.186 C 
HETATM    9  C11 UNL     1       7.346 -10.372   3.490  1.00  0.00     0.179 C 
HETATM   10  O6  UNL     1       8.613 -10.886   3.581  1.00  0.00    -0.349 OA
HETATM   11  C13 UNL     1       9.190 -11.264   2.396  1.00  0.00     0.282 C 
HETATM   12  C14 UNL     1       9.334 -10.113   1.416  1.00  0.00     0.170 C 
HETATM   13  C17 UNL     1       8.682  -8.912   2.096  1.00  0.00     0.177 C 
BRANCH   9  14
HETATM   14  C12 UNL     1       6.276 -11.440   3.437  1.00  0.00     0.198 C 
BRANCH  14  15
HETATM   15  O5  UNL     1       5.716 -11.397   2.166  1.00  0.00    -0.398 OA
ATOM     16  H5  UNL     1       6.220 -11.985   1.617  1.00  0.00     0.209 HD
ENDBRANCH  14  15
ENDBRANCH   9  14
BRANCH  11  17
HETATM   17  O7  UNL     1       8.589 -12.367   1.816  1.00  0.00    -0.369 OA
ATOM     18  H7  UNL     1       8.911 -13.195   2.153  1.00  0.00     0.212 HD
ENDBRANCH  11  17
BRANCH  12  19
HETATM   19  N2  UNL     1      10.669  -9.879   0.993  1.00  0.00    -0.349 N 
HETATM   20  C15 UNL     1      11.107 -10.148  -0.349  1.00  0.00     0.214 C 
HETATM   21  C16 UNL     1      12.502  -9.904  -0.798  1.00  0.00     0.117 C 
HETATM   22  O8  UNL     1      10.299 -10.607  -1.197  1.00  0.00    -0.274 OA
ATOM     23  H2  UNL     1      11.341  -9.507   1.664  1.00  0.00     0.163 HD
ENDBRANCH  12  19
BRANCH  13  24
HETATM   24  O9  UNL     1       8.717  -7.780   1.332  1.00  0.00    -0.391 OA
ATOM     25  H9  UNL     1       8.303  -7.903   0.485  1.00  0.00     0.210 HD
ENDBRANCH  13  24
ENDBRANCH   7   8
ENDBRANCH   3   7
BRANCH   2  26
HETATM   26  O3  UNL     1       3.529  -9.425   1.032  1.00  0.00    -0.388 OA
ATOM     27  H3  UNL     1       3.111 -10.030   1.634  1.00  0.00     0.210 HD
ENDBRANCH   2  26
BRANCH   1  28
HETATM   28  N1  UNL     1       1.951  -7.394   1.946  1.00  0.00    -0.347 N 
HETATM   29  C6  UNL     1       0.885  -7.665   1.075  1.00  0.00     0.258 C 
HETATM   30  O2  UNL     1       1.232  -7.689  -0.155  1.00  0.00    -0.267 OA
ATOM     31  H1  UNL     1       1.744  -7.360   2.943  1.00  0.00     0.163 HD
BRANCH  29  32
HETATM   32  C5  UNL     1      -0.496  -7.906   1.420  1.00  0.00     0.115 A 
HETATM   33  C4  UNL     1      -1.403  -6.870   1.203  1.00  0.00     0.176 A 
HETATM   34  C3  UNL     1      -2.743  -6.976   1.491  1.00  0.00     0.192 A 
HETATM   35  F2  UNL     1      -0.986  -5.695   0.690  1.00  0.00    -0.202 F 
HETATM   36  C2  UNL     1      -3.262  -8.136   2.017  1.00  0.00     0.152 A 
HETATM   37  F1  UNL     1      -3.619  -5.964   1.278  1.00  0.00    -0.200 F 
HETATM   38  C22 UNL     1      -2.383  -9.169   2.237  1.00  0.00     0.192 A 
HETATM   39  C21 UNL     1      -1.014  -9.055   1.942  1.00  0.00     0.176 A 
HETATM   40  F4  UNL     1      -2.866 -10.321   2.753  1.00  0.00    -0.200 F 
HETATM   41  F3  UNL     1      -0.190 -10.108   2.179  1.00  0.00    -0.202 F 
BRANCH  36  42
HETATM   42  O1  UNL     1      -4.599  -8.250   2.307  1.00  0.00    -0.350 OA
HETATM   43  C1  UNL     1      -5.204  -7.862   3.508  1.00  0.00     0.210 C 
ENDBRANCH  36  42
ENDBRANCH  29  32
ENDBRANCH   1  28
BRANCH   5  44
HETATM   44  C19 UNL     1       6.383  -5.385   2.590  1.00  0.00     0.198 C 
BRANCH  44  45
HETATM   45  O11 UNL     1       7.619  -5.375   1.906  1.00  0.00    -0.398 OA
ATOM     46  H11 UNL     1       8.273  -5.626   2.547  1.00  0.00     0.209 HD
ENDBRANCH  44  45
ENDBRANCH   5  44
BRANCH   6  47
HETATM   47  O12 UNL     1       4.254  -6.398   3.553  1.00  0.00    -0.391 OA
ATOM     48  H12 UNL     1       4.325  -7.345   3.603  1.00  0.00     0.210 HD
ENDBRANCH   6  47
TORSDOF 14
ENDMDL
