MODEL 3
REMARK VINA RESULT: -6.105869904      3.824     10.632
REMARK  14 active torsions:
REMARK  status: ('A' for Active; 'I' for Inactive)
REMARK    1  A    between atoms: O1_2  and  C2_3 
REMARK    2  A    between atoms: C5_8  and  C6_9 
REMARK       I    between atoms: C6_9  and  N1_11 
REMARK    3  A    between atoms: N1_11  and  C7_13 
REMARK    4  A    between atoms: C8_14  and  O3_15 
REMARK    5  A    between atoms: C9_17  and  O4_18 
REMARK    6  A    between atoms: O4_18  and  C10_19 
REMARK    7  A    between atoms: C11_20  and  C12_21 
REMARK    8  A    between atoms: C12_21  and  O5_22 
REMARK    9  A    between atoms: C13_25  and  O7_26 
REMARK   10  A    between atoms: C14_28  and  N2_29 
REMARK       I    between atoms: N2_29  and  C15_31 
REMARK   11  A    between atoms: C17_34  and  O9_35 
REMARK   12  A    between atoms: C18_38  and  C19_39 
REMARK   13  A    between atoms: C19_39  and  O11_40 
REMARK   14  A    between atoms: C20_42  and  O12_43 
ROOT
HETATM    1  C7  UNL     1       3.472  -7.335   1.347  1.00  0.00     0.149 C 
HETATM    2  C8  UNL     1       4.172  -8.597   1.793  1.00  0.00     0.198 C 
HETATM    3  C9  UNL     1       5.638  -8.517   1.402  1.00  0.00     0.291 C 
HETATM    4  O10 UNL     1       5.925  -7.419   0.619  1.00  0.00    -0.349 OA
HETATM    5  C18 UNL     1       5.601  -6.197   1.155  1.00  0.00     0.179 C 
HETATM    6  C20 UNL     1       4.254  -6.175   1.845  1.00  0.00     0.174 C 
ENDROOT
BRANCH   3   7
HETATM    7  O4  UNL     1       6.466  -8.601   2.519  1.00  0.00    -0.348 OA
BRANCH   7   8
HETATM    8  C10 UNL     1       7.289  -9.684   2.435  1.00  0.00     0.186 C 
HETATM    9  C11 UNL     1       7.355 -10.531   3.667  1.00  0.00     0.179 C 
HETATM   10  O6  UNL     1       8.602 -11.076   3.819  1.00  0.00    -0.349 OA
HETATM   11  C13 UNL     1       9.163 -11.607   2.686  1.00  0.00     0.282 C 
HETATM   12  C14 UNL     1       9.346 -10.582   1.582  1.00  0.00     0.170 C 
HETATM   13  C17 UNL     1       8.739  -9.289   2.118  1.00  0.00     0.177 C 
BRANCH   9  14
HETATM   14  C12 UNL     1       6.247 -11.558   3.734  1.00  0.00     0.198 C 
BRANCH  14  15
HETATM   15  O5  UNL     1       5.674 -11.627   2.470  1.00  0.00    -0.398 OA
ATOM     16  H5  UNL     1       5.034 -12.329   2.490  1.00  0.00     0.209 HD
ENDBRANCH  14  15
ENDBRANCH   9  14
BRANCH  11  17
HETATM   17  O7  UNL     1       8.522 -12.747   2.235  1.00  0.00    -0.369 OA
ATOM     18  H7  UNL     1       9.052 -13.272   1.647  1.00  0.00     0.212 HD
ENDBRANCH  11  17
BRANCH  12  19
HETATM   19  N2  UNL     1      10.688 -10.446   1.137  1.00  0.00    -0.349 N 
HETATM   20  C15 UNL     1      11.018 -10.153  -0.230  1.00  0.00     0.214 C 
HETATM   21  C16 UNL     1      12.420 -10.008  -0.701  1.00  0.00     0.117 C 
HETATM   22  O8  UNL     1      10.104 -10.007  -1.083  1.00  0.00    -0.274 OA
ATOM     23  H2  UNL     1      11.445 -10.560   1.812  1.00  0.00     0.163 HD
ENDBRANCH  12  19
BRANCH  13  24
HETATM   24  O9  UNL     1       8.813  -8.253   1.229  1.00  0.00    -0.391 OA
ATOM     25  H9  UNL     1       9.485  -8.389   0.572  1.00  0.00     0.210 HD
ENDBRANCH  13  24
ENDBRANCH   7   8
ENDBRANCH   3   7
BRANCH   2  26
HETATM   26  O3  UNL     1       3.507  -9.661   1.182  1.00  0.00    -0.388 OA
ATOM     27  H3  UNL     1       2.996 -10.089   1.859  1.00  0.00     0.210 HD
ENDBRANCH   2  26
BRANCH   1  28
HETATM   28  N1  UNL     1       2.108  -7.396   1.786  1.00  0.00    -0.347 N 
HETATM   29  C6  UNL     1       1.006  -7.693   0.969  1.00  0.00     0.258 C 
HETATM   30  O2  UNL     1       1.326  -7.914  -0.249  1.00  0.00    -0.267 OA
ATOM     31  H1  UNL     1       1.923  -7.208   2.771  1.00  0.00     0.163 HD
BRANCH  29  32
HETATM   32  C5  UNL     1      -0.383  -7.769   1.355  1.00  0.00     0.115 A 
HETATM   33  C4  UNL     1      -0.816  -8.941   1.972  1.00  0.00     0.176 A 
HETATM   34  C3  UNL     1      -2.113  -9.135   2.386  1.00  0.00     0.192 A 
HETATM   35  F2  UNL     1       0.046  -9.954   2.192  1.00  0.00    -0.202 F 
HETATM   36  C2  UNL     1      -3.064  -8.158   2.205  1.00  0.00     0.152 A 
HETATM   37  F1  UNL     1      -2.526 -10.278   2.985  1.00  0.00    -0.200 F 
HETATM   38  C22 UNL     1      -2.656  -6.995   1.598  1.00  0.00     0.192 A 
HETATM   39  C21 UNL     1      -1.330  -6.802   1.178  1.00  0.00     0.176 A 
HETATM   40  F4  UNL     1      -3.570  -6.018   1.409  1.00  0.00    -0.200 F 
HETATM   41  F3  UNL     1      -0.981  -5.632   0.584  1.00  0.00    -0.202 F 
BRANCH  36  42
HETATM   42  O1  UNL     1      -4.361  -8.344   2.615  1.00  0.00    -0.350 OA
HETATM   43  C1  UNL     1      -4.887  -7.939   3.848  1.00  0.00     0.210 C 
ENDBRANCH  36  42
ENDBRANCH  29  32
ENDBRANCH   1  28
BRANCH   5  44
HETATM   44  C19 UNL     1       6.692  -5.669   2.088  1.00  0.00     0.198 C 
BRANCH  44  45
HETATM   45  O11 UNL     1       7.862  -5.579   1.301  1.00  0.00    -0.398 OA
ATOM     46  H11 UNL     1       8.580  -5.812   1.877  1.00  0.00     0.209 HD
ENDBRANCH  44  45
ENDBRANCH   5  44
BRANCH   6  47
HETATM   47  O12 UNL     1       4.510  -6.353   3.208  1.00  0.00    -0.391 OA
ATOM     48  H12 UNL     1       4.563  -5.501   3.624  1.00  0.00     0.210 HD
ENDBRANCH   6  47
TORSDOF 14
ENDMDL
