MODEL 6
REMARK VINA RESULT: -7.178245238      2.958      6.245
REMARK  6 active torsions:
REMARK  status: ('A' for Active; 'I' for Inactive)
REMARK    1  A    between atoms: N2_6  and  C3_7 
REMARK    2  A    between atoms: C4_9  and  C5_10 
REMARK    3  A    between atoms: C5_10  and  O3_11 
REMARK    4  A    between atoms: O3_11  and  P1_12 
REMARK    5  A    between atoms: C6_16  and  O7_17 
REMARK    6  A    between atoms: C7_19  and  O8_20 
ROOT
HETATM    1  C3  UNL     1      39.651  37.787  35.580  1.00  0.00     0.280 C 
HETATM    2  O2  UNL     1      40.942  38.240  35.612  1.00  0.00    -0.352 OA
HETATM    3  C4  UNL     1      40.997  39.294  36.515  1.00  0.00     0.180 C 
HETATM    4  C6  UNL     1      40.136  38.801  37.635  1.00  0.00     0.182 C 
HETATM    5  C7  UNL     1      38.943  38.288  36.814  1.00  0.00     0.200 C 
ENDROOT
BRANCH   1   6
HETATM    6  N2  UNL     1      39.562  36.335  35.602  1.00  0.00    -0.210 N 
HETATM    7  N1  UNL     1      40.046  35.629  36.600  1.00  0.00    -0.298 N 
HETATM    8  C2  UNL     1      39.938  34.294  36.571  1.00  0.00     0.182 A 
ATOM      9  H1  UNL     1      40.499  36.093  37.388  1.00  0.00     0.186 HD
HETATM   10  C1  UNL     1      39.337  33.632  35.532  1.00  0.00     0.266 A 
HETATM   11  O1  UNL     1      39.231  32.368  35.497  1.00  0.00    -0.267 OA
HETATM   12  N3  UNL     1      38.857  34.405  34.535  1.00  0.00    -0.273 N 
HETATM   13  C8  UNL     1      38.966  35.740  34.565  1.00  0.00     0.346 A 
ATOM     14  H3  UNL     1      38.400  33.962  33.739  1.00  0.00     0.173 HD
HETATM   15  O9  UNL     1      38.487  36.371  33.586  1.00  0.00    -0.245 OA
ENDBRANCH   1   6
BRANCH   5  16
HETATM   16  O8  UNL     1      38.208  39.402  36.462  1.00  0.00    -0.388 OA
ATOM     17  H8  UNL     1      38.815  40.090  36.216  1.00  0.00     0.210 HD
ENDBRANCH   5  16
BRANCH   3  18
HETATM   18  C5  UNL     1      42.386  39.653  36.920  1.00  0.00     0.217 C 
BRANCH  18  19
HETATM   19  O3  UNL     1      43.293  39.069  36.072  1.00  0.00    -0.280 OA
BRANCH  19  20
HETATM   20  P1  UNL     1      43.925  40.252  35.096  1.00  0.00     0.422 P 
HETATM   21  O4  UNL     1      43.874  39.320  33.894  1.00  0.00    -0.617 OA
HETATM   22  O5  UNL     1      45.527  40.501  35.079  1.00  0.00    -0.617 OA
HETATM   23  O6  UNL     1      42.913  41.343  34.320  1.00  0.00    -0.617 OA
ENDBRANCH  19  20
ENDBRANCH  18  19
ENDBRANCH   3  18
BRANCH   4  24
HETATM   24  O7  UNL     1      39.752  39.798  38.517  1.00  0.00    -0.390 OA
ATOM     25  H7  UNL     1      38.854  40.086  38.396  1.00  0.00     0.210 HD
ENDBRANCH   4  24
TORSDOF 6
ENDMDL
