MODEL 15
REMARK VINA RESULT: -6.922149338      2.165      2.578
REMARK  6 active torsions:
REMARK  status: ('A' for Active; 'I' for Inactive)
REMARK    1  A    between atoms: N2_6  and  C3_7 
REMARK    2  A    between atoms: C4_9  and  C5_10 
REMARK    3  A    between atoms: C5_10  and  O3_11 
REMARK    4  A    between atoms: O3_11  and  P1_12 
REMARK    5  A    between atoms: C6_16  and  O7_17 
REMARK    6  A    between atoms: C7_19  and  O8_20 
ROOT
HETATM    1  C3  UNL     1      39.895  39.403  38.142  1.00  0.00     0.280 C 
HETATM    2  O2  UNL     1      40.025  38.049  38.296  1.00  0.00    -0.352 OA
HETATM    3  C4  UNL     1      39.151  37.437  37.406  1.00  0.00     0.180 C 
HETATM    4  C6  UNL     1      39.312  38.272  36.174  1.00  0.00     0.182 C 
HETATM    5  C7  UNL     1      39.226  39.666  36.816  1.00  0.00     0.200 C 
ENDROOT
BRANCH   1   6
HETATM    6  N2  UNL     1      41.176  40.093  38.113  1.00  0.00    -0.210 N 
HETATM    7  N1  UNL     1      41.817  40.310  36.987  1.00  0.00    -0.298 N 
HETATM    8  C2  UNL     1      42.994  40.950  37.016  1.00  0.00     0.182 A 
ATOM      9  H1  UNL     1      41.423  39.995  36.100  1.00  0.00     0.186 HD
HETATM   10  C1  UNL     1      43.558  41.391  38.186  1.00  0.00     0.266 A 
HETATM   11  O1  UNL     1      44.671  41.997  38.222  1.00  0.00    -0.267 OA
HETATM   12  N3  UNL     1      42.856  41.141  39.312  1.00  0.00    -0.273 N 
HETATM   13  C8  UNL     1      41.680  40.500  39.282  1.00  0.00     0.346 A 
ATOM     14  H3  UNL     1      43.231  41.448  40.209  1.00  0.00     0.173 HD
HETATM   15  O9  UNL     1      41.104  40.317  40.386  1.00  0.00    -0.245 OA
ENDBRANCH   1   6
BRANCH   5  16
HETATM   16  O8  UNL     1      37.887  39.901  37.052  1.00  0.00    -0.388 OA
ATOM     17  H8  UNL     1      37.697  40.798  36.802  1.00  0.00     0.210 HD
ENDBRANCH   5  16
BRANCH   3  18
HETATM   18  C5  UNL     1      39.433  35.987  37.205  1.00  0.00     0.217 C 
BRANCH  18  19
HETATM   19  O3  UNL     1      38.408  35.397  36.509  1.00  0.00    -0.280 OA
BRANCH  19  20
HETATM   20  P1  UNL     1      39.043  34.703  35.142  1.00  0.00     0.422 P 
HETATM   21  O4  UNL     1      37.819  35.113  34.337  1.00  0.00    -0.617 OA
HETATM   22  O5  UNL     1      38.895  33.104  34.917  1.00  0.00    -0.617 OA
HETATM   23  O6  UNL     1      40.038  35.590  34.123  1.00  0.00    -0.617 OA
ENDBRANCH  19  20
ENDBRANCH  18  19
ENDBRANCH   3  18
BRANCH   4  24
HETATM   24  O7  UNL     1      38.307  38.082  35.242  1.00  0.00    -0.390 OA
ATOM     25  H7  UNL     1      37.907  37.221  35.285  1.00  0.00     0.210 HD
ENDBRANCH   4  24
TORSDOF 6
ENDMDL
