MODEL 10
REMARK VINA RESULT: -7.105250188      2.815      6.019
REMARK  6 active torsions:
REMARK  status: ('A' for Active; 'I' for Inactive)
REMARK    1  A    between atoms: N2_6  and  C3_7 
REMARK    2  A    between atoms: C4_9  and  C5_10 
REMARK    3  A    between atoms: C5_10  and  O3_11 
REMARK    4  A    between atoms: O3_11  and  P1_12 
REMARK    5  A    between atoms: C6_16  and  O7_17 
REMARK    6  A    between atoms: C7_19  and  O8_20 
ROOT
HETATM    1  C3  UNL     1      39.448  38.478  35.063  1.00  0.00     0.280 C 
HETATM    2  O2  UNL     1      40.630  39.112  34.791  1.00  0.00    -0.352 OA
HETATM    3  C4  UNL     1      40.524  40.418  35.252  1.00  0.00     0.180 C 
HETATM    4  C6  UNL     1      39.823  40.240  36.562  1.00  0.00     0.182 C 
HETATM    5  C7  UNL     1      38.713  39.276  36.112  1.00  0.00     0.200 C 
ENDROOT
BRANCH   1   6
HETATM    6  N2  UNL     1      39.637  37.141  35.607  1.00  0.00    -0.210 N 
HETATM    7  N1  UNL     1      40.173  36.947  36.791  1.00  0.00    -0.298 N 
HETATM    8  C2  UNL     1      40.325  35.696  37.245  1.00  0.00     0.182 A 
ATOM      9  H1  UNL     1      40.469  37.741  37.359  1.00  0.00     0.186 HD
HETATM   10  C1  UNL     1      39.940  34.601  36.513  1.00  0.00     0.266 A 
HETATM   11  O1  UNL     1      40.080  33.414  36.935  1.00  0.00    -0.267 OA
HETATM   12  N3  UNL     1      39.396  34.859  35.305  1.00  0.00    -0.273 N 
HETATM   13  C8  UNL     1      39.245  36.111  34.853  1.00  0.00     0.346 A 
ATOM     14  H3  UNL     1      39.092  34.080  34.721  1.00  0.00     0.173 HD
HETATM   15  O9  UNL     1      38.727  36.244  33.713  1.00  0.00    -0.245 OA
ENDBRANCH   1   6
BRANCH   5  16
HETATM   16  O8  UNL     1      37.765  40.049  35.473  1.00  0.00    -0.388 OA
ATOM     17  H8  UNL     1      37.537  40.770  36.048  1.00  0.00     0.210 HD
ENDBRANCH   5  16
BRANCH   3  18
HETATM   18  C5  UNL     1      41.836  41.119  35.349  1.00  0.00     0.217 C 
BRANCH  18  19
HETATM   19  O3  UNL     1      42.275  41.128  36.649  1.00  0.00    -0.280 OA
BRANCH  19  20
HETATM   20  P1  UNL     1      43.476  39.993  36.798  1.00  0.00     0.422 P 
HETATM   21  O4  UNL     1      43.914  40.235  35.361  1.00  0.00    -0.617 OA
HETATM   22  O5  UNL     1      43.115  38.422  36.628  1.00  0.00    -0.617 OA
HETATM   23  O6  UNL     1      44.995  40.433  37.358  1.00  0.00    -0.617 OA
ENDBRANCH  19  20
ENDBRANCH  18  19
ENDBRANCH   3  18
BRANCH   4  24
HETATM   24  O7  UNL     1      39.296  41.414  37.072  1.00  0.00    -0.390 OA
ATOM     25  H7  UNL     1      39.825  41.800  37.760  1.00  0.00     0.210 HD
ENDBRANCH   4  24
TORSDOF 6
ENDMDL
