MODEL 4
REMARK VINA RESULT: -7.264789193      1.730      2.229
REMARK  6 active torsions:
REMARK  status: ('A' for Active; 'I' for Inactive)
REMARK    1  A    between atoms: N2_6  and  C3_7 
REMARK    2  A    between atoms: C4_9  and  C5_10 
REMARK    3  A    between atoms: C5_10  and  O3_11 
REMARK    4  A    between atoms: O3_11  and  P1_12 
REMARK    5  A    between atoms: C6_16  and  O7_17 
REMARK    6  A    between atoms: C7_19  and  O8_20 
ROOT
HETATM    1  C3  UNL     1      40.713  40.129  37.221  1.00  0.00     0.280 C 
HETATM    2  O2  UNL     1      40.332  38.826  37.393  1.00  0.00    -0.352 OA
HETATM    3  C4  UNL     1      39.010  38.716  36.981  1.00  0.00     0.180 C 
HETATM    4  C6  UNL     1      38.990  39.554  35.742  1.00  0.00     0.182 C 
HETATM    5  C7  UNL     1      39.741  40.785  36.272  1.00  0.00     0.200 C 
ENDROOT
BRANCH   1   6
HETATM    6  N2  UNL     1      42.035  40.256  36.625  1.00  0.00    -0.210 N 
HETATM    7  N1  UNL     1      42.274  39.876  35.390  1.00  0.00    -0.298 N 
HETATM    8  C2  UNL     1      43.509  40.015  34.890  1.00  0.00     0.182 A 
ATOM      9  H1  UNL     1      41.528  39.481  34.818  1.00  0.00     0.186 HD
HETATM   10  C1  UNL     1      44.541  40.541  35.624  1.00  0.00     0.266 A 
HETATM   11  O1  UNL     1      45.713  40.676  35.158  1.00  0.00    -0.267 OA
HETATM   12  N3  UNL     1      44.239  40.914  36.886  1.00  0.00    -0.273 N 
HETATM   13  C8  UNL     1      43.004  40.775  37.385  1.00  0.00     0.346 A 
ATOM     14  H3  UNL     1      44.970  41.313  37.474  1.00  0.00     0.173 HD
HETATM   15  O9  UNL     1      42.825  41.153  38.573  1.00  0.00    -0.245 OA
ENDBRANCH   1   6
BRANCH   5  16
HETATM   16  O8  UNL     1      38.830  41.501  37.023  1.00  0.00    -0.388 OA
ATOM     17  H8  UNL     1      38.259  41.969  36.424  1.00  0.00     0.210 HD
ENDBRANCH   5  16
BRANCH   3  18
HETATM   18  C5  UNL     1      38.571  37.305  36.774  1.00  0.00     0.217 C 
BRANCH  18  19
HETATM   19  O3  UNL     1      38.507  37.020  35.434  1.00  0.00    -0.280 OA
BRANCH  19  20
HETATM   20  P1  UNL     1      39.146  35.507  35.195  1.00  0.00     0.422 P 
HETATM   21  O4  UNL     1      40.010  36.027  34.055  1.00  0.00    -0.617 OA
HETATM   22  O5  UNL     1      38.317  34.418  34.328  1.00  0.00    -0.617 OA
HETATM   23  O6  UNL     1      40.514  35.021  36.038  1.00  0.00    -0.617 OA
ENDBRANCH  19  20
ENDBRANCH  18  19
ENDBRANCH   3  18
BRANCH   4  24
HETATM   24  O7  UNL     1      37.713  39.885  35.319  1.00  0.00    -0.390 OA
ATOM     25  H7  UNL     1      37.661  40.082  34.391  1.00  0.00     0.210 HD
ENDBRANCH   4  24
TORSDOF 6
ENDMDL
