MODEL 9
REMARK VINA RESULT: -7.133945821      1.466      1.848
REMARK  6 active torsions:
REMARK  status: ('A' for Active; 'I' for Inactive)
REMARK    1  A    between atoms: N2_6  and  C3_7 
REMARK    2  A    between atoms: C4_9  and  C5_10 
REMARK    3  A    between atoms: C5_10  and  O3_11 
REMARK    4  A    between atoms: O3_11  and  P1_12 
REMARK    5  A    between atoms: C6_16  and  O7_17 
REMARK    6  A    between atoms: C7_19  and  O8_20 
ROOT
HETATM    1  C3  UNL     1      40.044  39.058  37.060  1.00  0.00     0.280 C 
HETATM    2  O2  UNL     1      39.986  37.715  37.314  1.00  0.00    -0.352 OA
HETATM    3  C4  UNL     1      38.910  37.197  36.603  1.00  0.00     0.180 C 
HETATM    4  C6  UNL     1      39.018  37.911  35.293  1.00  0.00     0.182 C 
HETATM    5  C7  UNL     1      39.239  39.340  35.815  1.00  0.00     0.200 C 
ENDROOT
BRANCH   1   6
HETATM    6  N2  UNL     1      41.398  39.526  36.802  1.00  0.00    -0.210 N 
HETATM    7  N1  UNL     1      42.024  39.242  35.682  1.00  0.00    -0.298 N 
HETATM    8  C2  UNL     1      43.270  39.697  35.494  1.00  0.00     0.182 A 
ATOM      9  H1  UNL     1      41.566  38.681  34.963  1.00  0.00     0.186 HD
HETATM   10  C1  UNL     1      43.921  40.453  36.435  1.00  0.00     0.266 A 
HETATM   11  O1  UNL     1      45.101  40.888  36.265  1.00  0.00    -0.267 OA
HETATM   12  N3  UNL     1      43.232  40.715  37.565  1.00  0.00    -0.273 N 
HETATM   13  C8  UNL     1      41.986  40.259  37.751  1.00  0.00     0.346 A 
ATOM     14  H3  UNL     1      43.670  41.274  38.296  1.00  0.00     0.173 HD
HETATM   15  O9  UNL     1      41.428  40.558  38.840  1.00  0.00    -0.245 OA
ENDBRANCH   1   6
BRANCH   5  16
HETATM   16  O8  UNL     1      38.000  39.806  36.204  1.00  0.00    -0.388 OA
ATOM     17  H8  UNL     1      37.531  39.089  36.613  1.00  0.00     0.210 HD
ENDBRANCH   5  16
BRANCH   3  18
HETATM   18  C5  UNL     1      38.933  35.710  36.496  1.00  0.00     0.217 C 
BRANCH  18  19
HETATM   19  O3  UNL     1      39.417  35.331  35.270  1.00  0.00    -0.280 OA
BRANCH  19  20
HETATM   20  P1  UNL     1      39.984  33.776  35.395  1.00  0.00     0.422 P 
HETATM   21  O4  UNL     1      39.735  33.782  36.896  1.00  0.00    -0.617 OA
HETATM   22  O5  UNL     1      41.582  33.514  35.467  1.00  0.00    -0.617 OA
HETATM   23  O6  UNL     1      38.943  32.475  35.206  1.00  0.00    -0.617 OA
ENDBRANCH  19  20
ENDBRANCH  18  19
ENDBRANCH   3  18
BRANCH   4  24
HETATM   24  O7  UNL     1      37.871  37.828  34.522  1.00  0.00    -0.390 OA
ATOM     25  H7  UNL     1      37.104  38.203  34.940  1.00  0.00     0.210 HD
ENDBRANCH   4  24
TORSDOF 6
ENDMDL
