MODEL 5
REMARK VINA RESULT: -7.258638552      2.813      4.711
REMARK  6 active torsions:
REMARK  status: ('A' for Active; 'I' for Inactive)
REMARK    1  A    between atoms: N2_6  and  C3_7 
REMARK    2  A    between atoms: C4_9  and  C5_10 
REMARK    3  A    between atoms: C5_10  and  O3_11 
REMARK    4  A    between atoms: O3_11  and  P1_12 
REMARK    5  A    between atoms: C6_16  and  O7_17 
REMARK    6  A    between atoms: C7_19  and  O8_20 
ROOT
HETATM    1  C3  UNL     1      39.129  39.180  36.126  1.00  0.00     0.280 C 
HETATM    2  O2  UNL     1      38.702  38.162  35.318  1.00  0.00    -0.352 OA
HETATM    3  C4  UNL     1      39.682  37.177  35.327  1.00  0.00     0.180 C 
HETATM    4  C6  UNL     1      40.086  37.140  36.767  1.00  0.00     0.182 C 
HETATM    5  C7  UNL     1      40.225  38.649  37.017  1.00  0.00     0.200 C 
ENDROOT
BRANCH   1   6
HETATM    6  N2  UNL     1      38.081  39.683  37.002  1.00  0.00    -0.210 N 
HETATM    7  N1  UNL     1      37.684  39.012  38.059  1.00  0.00    -0.298 N 
HETATM    8  C2  UNL     1      36.714  39.520  38.832  1.00  0.00     0.182 A 
ATOM      9  H1  UNL     1      38.109  38.113  38.290  1.00  0.00     0.186 HD
HETATM   10  C1  UNL     1      36.116  40.723  38.558  1.00  0.00     0.266 A 
HETATM   11  O1  UNL     1      35.198  41.211  39.284  1.00  0.00    -0.267 OA
HETATM   12  N3  UNL     1      36.563  41.369  37.461  1.00  0.00    -0.273 N 
HETATM   13  C8  UNL     1      37.532  40.860  36.689  1.00  0.00     0.346 A 
ATOM     14  H3  UNL     1      36.152  42.269  37.213  1.00  0.00     0.173 HD
HETATM   15  O9  UNL     1      37.878  41.541  35.687  1.00  0.00    -0.245 OA
ENDBRANCH   1   6
BRANCH   5  16
HETATM   16  O8  UNL     1      41.437  39.023  36.471  1.00  0.00    -0.388 OA
ATOM     17  H8  UNL     1      41.585  39.937  36.681  1.00  0.00     0.210 HD
ENDBRANCH   5  16
BRANCH   3  18
HETATM   18  C5  UNL     1      39.211  35.869  34.788  1.00  0.00     0.217 C 
BRANCH  18  19
HETATM   19  O3  UNL     1      40.282  35.067  34.484  1.00  0.00    -0.280 OA
BRANCH  19  20
HETATM   20  P1  UNL     1      40.185  33.699  35.419  1.00  0.00     0.422 P 
HETATM   21  O4  UNL     1      41.385  33.098  34.703  1.00  0.00    -0.617 OA
HETATM   22  O5  UNL     1      39.124  32.539  35.026  1.00  0.00    -0.617 OA
HETATM   23  O6  UNL     1      40.993  33.616  36.887  1.00  0.00    -0.617 OA
ENDBRANCH  19  20
ENDBRANCH  18  19
ENDBRANCH   3  18
BRANCH   4  24
HETATM   24  O7  UNL     1      41.283  36.479  36.988  1.00  0.00    -0.390 OA
ATOM     25  H7  UNL     1      41.173  35.601  37.334  1.00  0.00     0.210 HD
ENDBRANCH   4  24
TORSDOF 6
ENDMDL
