MODEL 5
REMARK VINA RESULT: -6.406019692      2.657      4.535
REMARK  3 active torsions:
REMARK  status: ('A' for Active; 'I' for Inactive)
REMARK    1  A    between atoms: O1_1  and  C1_3 
REMARK    2  A    between atoms: C5_7  and  C6_8 
REMARK    3  A    between atoms: C12_14  and  O2_15 
ROOT
HETATM    1  C1  UNL     1      23.929 -23.286  73.891  1.00  0.00     0.099 A 
HETATM    2  C2  UNL     1      24.918 -23.775  74.712  1.00  0.00     0.039 A 
HETATM    3  C3  UNL     1      25.811 -24.681  74.183  1.00  0.00     0.004 A 
HETATM    4  C4  UNL     1      25.702 -25.076  72.870  1.00  0.00     0.015 A 
HETATM    5  C5  UNL     1      24.711 -24.599  72.009  1.00  0.00     0.010 A 
HETATM    6  C12 UNL     1      23.829 -23.695  72.555  1.00  0.00     0.110 A 
ENDROOT
BRANCH   5   7
HETATM    7  C6  UNL     1      24.648 -25.089  70.640  1.00  0.00    -0.023 A 
HETATM    8  C7  UNL     1      25.791 -25.256  69.892  1.00  0.00     0.012 A 
HETATM    9  C8  UNL     1      25.737 -25.739  68.584  1.00  0.00     0.001 A 
HETATM   10  C9  UNL     1      24.536 -26.066  67.996  1.00  0.00     0.000 A 
HETATM   11  C10 UNL     1      23.395 -25.896  68.751  1.00  0.00     0.001 A 
HETATM   12  C11 UNL     1      23.434 -25.418  70.048  1.00  0.00     0.012 A 
ENDBRANCH   5   7
BRANCH   6  13
HETATM   13  O2  UNL     1      22.824 -23.168  71.788  1.00  0.00    -0.357 OA
ATOM     14  H2  UNL     1      23.045 -22.825  70.930  1.00  0.00     0.217 HD
ENDBRANCH   6  13
BRANCH   1  15
HETATM   15  O1  UNL     1      23.042 -22.375  74.446  1.00  0.00    -0.358 OA
ATOM     16  H1  UNL     1      23.295 -21.459  74.428  1.00  0.00     0.217 HD
ENDBRANCH   1  15
TORSDOF 3
ENDMDL
