MODEL 4
REMARK VINA RESULT: -6.420250479      2.657      4.435
REMARK  3 active torsions:
REMARK  status: ('A' for Active; 'I' for Inactive)
REMARK    1  A    between atoms: O1_1  and  C1_3 
REMARK    2  A    between atoms: C5_7  and  C6_8 
REMARK    3  A    between atoms: C12_14  and  O2_15 
ROOT
HETATM    1  C1  UNL     1      23.924 -23.286  73.881  1.00  0.00     0.099 A 
HETATM    2  C2  UNL     1      24.909 -23.771  74.709  1.00  0.00     0.039 A 
HETATM    3  C3  UNL     1      25.803 -24.681  74.190  1.00  0.00     0.004 A 
HETATM    4  C4  UNL     1      25.699 -25.083  72.878  1.00  0.00     0.015 A 
HETATM    5  C5  UNL     1      24.712 -24.611  72.011  1.00  0.00     0.010 A 
HETATM    6  C12 UNL     1      23.829 -23.702  72.547  1.00  0.00     0.110 A 
ENDROOT
BRANCH   5   7
HETATM    7  C6  UNL     1      24.654 -25.109  70.643  1.00  0.00    -0.023 A 
HETATM    8  C7  UNL     1      23.454 -25.441  70.060  1.00  0.00     0.012 A 
HETATM    9  C8  UNL     1      23.391 -25.905  68.746  1.00  0.00     0.001 A 
HETATM   10  C9  UNL     1      24.530 -26.046  67.986  1.00  0.00     0.000 A 
HETATM   11  C10 UNL     1      25.730 -25.712  68.577  1.00  0.00     0.001 A 
HETATM   12  C11 UNL     1      25.806 -25.251  69.880  1.00  0.00     0.012 A 
ENDBRANCH   5   7
BRANCH   6  13
HETATM   13  O2  UNL     1      22.828 -23.179  71.772  1.00  0.00    -0.357 OA
ATOM     14  H2  UNL     1      22.342 -23.767  71.206  1.00  0.00     0.217 HD
ENDBRANCH   6  13
BRANCH   1  15
HETATM   15  O1  UNL     1      23.035 -22.370  74.427  1.00  0.00    -0.358 OA
ATOM     16  H1  UNL     1      23.100 -22.209  75.361  1.00  0.00     0.217 HD
ENDBRANCH   1  15
TORSDOF 3
ENDMDL
