MODEL 3
REMARK VINA RESULT: -6.744013585      1.845      5.127
REMARK  3 active torsions:
REMARK  status: ('A' for Active; 'I' for Inactive)
REMARK    1  A    between atoms: O1_1  and  C1_3 
REMARK    2  A    between atoms: C5_7  and  C6_8 
REMARK    3  A    between atoms: C12_14  and  O2_15 
ROOT
HETATM    1  C1  UNL     1      20.799 -21.100  71.945  1.00  0.00     0.099 A 
HETATM    2  C2  UNL     1      19.633 -21.829  71.956  1.00  0.00     0.039 A 
HETATM    3  C3  UNL     1      19.703 -23.159  72.308  1.00  0.00     0.004 A 
HETATM    4  C4  UNL     1      20.913 -23.726  72.635  1.00  0.00     0.015 A 
HETATM    5  C5  UNL     1      22.115 -23.016  72.634  1.00  0.00     0.010 A 
HETATM    6  C12 UNL     1      22.025 -21.689  72.281  1.00  0.00     0.110 A 
ENDROOT
BRANCH   5   7
HETATM    7  C6  UNL     1      23.358 -23.698  72.965  1.00  0.00    -0.023 A 
HETATM    8  C7  UNL     1      23.976 -24.526  72.057  1.00  0.00     0.012 A 
HETATM    9  C8  UNL     1      25.175 -25.170  72.364  1.00  0.00     0.001 A 
HETATM   10  C9  UNL     1      25.781 -25.000  73.589  1.00  0.00     0.000 A 
HETATM   11  C10 UNL     1      25.154 -24.170  74.494  1.00  0.00     0.001 A 
HETATM   12  C11 UNL     1      23.966 -23.525  74.202  1.00  0.00     0.012 A 
ENDBRANCH   5   7
BRANCH   6  13
HETATM   13  O2  UNL     1      23.150 -20.908  72.254  1.00  0.00    -0.357 OA
ATOM     14  H2  UNL     1      23.594 -20.787  71.424  1.00  0.00     0.217 HD
ENDBRANCH   6  13
BRANCH   1  15
HETATM   15  O1  UNL     1      20.703 -19.763  71.587  1.00  0.00    -0.358 OA
ATOM     16  H1  UNL     1      19.837 -19.432  71.378  1.00  0.00     0.217 HD
ENDBRANCH   1  15
TORSDOF 3
ENDMDL
