MODEL 1
REMARK VINA RESULT: -7.211934906      0.000      0.000
REMARK  3 active torsions:
REMARK  status: ('A' for Active; 'I' for Inactive)
REMARK    1  A    between atoms: O1_1  and  C1_3 
REMARK    2  A    between atoms: C5_7  and  C6_8 
REMARK    3  A    between atoms: C12_14  and  O2_15 
ROOT
HETATM    1  C1  UNL     1      25.284 -24.838  72.608  1.00  0.00     0.099 A 
HETATM    2  C2  UNL     1      25.765 -24.655  73.884  1.00  0.00     0.039 A 
HETATM    3  C3  UNL     1      25.046 -23.850  74.739  1.00  0.00     0.004 A 
HETATM    4  C4  UNL     1      23.881 -23.253  74.313  1.00  0.00     0.015 A 
HETATM    5  C5  UNL     1      23.365 -23.417  73.027  1.00  0.00     0.010 A 
HETATM    6  C12 UNL     1      24.096 -24.226  72.187  1.00  0.00     0.110 A 
ENDROOT
BRANCH   5   7
HETATM    7  C6  UNL     1      22.140 -22.727  72.647  1.00  0.00    -0.023 A 
HETATM    8  C7  UNL     1      20.949 -23.405  72.534  1.00  0.00     0.012 A 
HETATM    9  C8  UNL     1      19.770 -22.746  72.184  1.00  0.00     0.001 A 
HETATM   10  C9  UNL     1      19.759 -21.391  71.940  1.00  0.00     0.000 A 
HETATM   11  C10 UNL     1      20.957 -20.718  72.053  1.00  0.00     0.001 A 
HETATM   12  C11 UNL     1      22.133 -21.360  72.399  1.00  0.00     0.012 A 
ENDBRANCH   5   7
BRANCH   6  13
HETATM   13  O2  UNL     1      23.668 -24.451  70.906  1.00  0.00    -0.357 OA
ATOM     14  H2  UNL     1      23.456 -23.701  70.364  1.00  0.00     0.217 HD
ENDBRANCH   6  13
BRANCH   1  15
HETATM   15  O1  UNL     1      26.025 -25.654  71.765  1.00  0.00    -0.358 OA
ATOM     16  H1  UNL     1      26.300 -26.495  72.110  1.00  0.00     0.217 HD
ENDBRANCH   1  15
TORSDOF 3
ENDMDL
