MODEL 1
REMARK VINA RESULT: -7.913312224      0.000      0.000
REMARK  10 active torsions:
REMARK  status: ('A' for Active; 'I' for Inactive)
REMARK    1  A    between atoms: O1_1  and  N1_3 
REMARK       I    between atoms: N1_3  and  C1_5 
REMARK    2  A    between atoms: C1_5  and  C2_7 
REMARK    3  A    between atoms: C2_7  and  O3_8 
REMARK    4  A    between atoms: C2_7  and  C3_10 
REMARK    5  A    between atoms: C3_10  and  O4_11 
REMARK    6  A    between atoms: C3_10  and  C4_13 
REMARK    7  A    between atoms: C4_13  and  O5_14 
REMARK    8  A    between atoms: C4_13  and  C5_16 
REMARK    9  A    between atoms: C5_16  and  O6_17 
REMARK   10  A    between atoms: O6_17  and  P1_18 
ROOT
HETATM    1  C3  UNL     1      16.638   9.517  29.936  1.00  0.00     0.187 C 
ENDROOT
BRANCH   1   2
HETATM    2  C2  UNL     1      15.117   9.328  29.901  1.00  0.00     0.243 C 
BRANCH   2   3
HETATM    3  C1  UNL     1      14.648   9.404  28.483  1.00  0.00     0.272 C 
HETATM    4  N1  UNL     1      14.603  10.656  27.849  1.00  0.00    -0.235 N 
ATOM      5  H1  UNL     1      14.899  11.479  28.375  1.00  0.00     0.197 HD
HETATM    6  O2  UNL     1      14.295   8.381  27.846  1.00  0.00    -0.268 OA
BRANCH   4   7
HETATM    7  O1  UNL     1      14.220  10.809  26.680  1.00  0.00    -0.287 OA
ATOM      8  H1  UNL     1      13.372  11.175  26.457  1.00  0.00     0.244 HD
ENDBRANCH   4   7
ENDBRANCH   2   3
BRANCH   2   9
HETATM    9  O3  UNL     1      14.759   8.120  30.471  1.00  0.00    -0.383 OA
ATOM     10  H3  UNL     1      15.321   7.421  30.158  1.00  0.00     0.210 HD
ENDBRANCH   2   9
ENDBRANCH   1   2
BRANCH   1  11
HETATM   11  O4  UNL     1      17.167   8.832  28.843  1.00  0.00    -0.390 OA
ATOM     12  H4  UNL     1      16.833   7.943  28.877  1.00  0.00     0.210 HD
ENDBRANCH   1  11
BRANCH   1  13
HETATM   13  C4  UNL     1      17.140   8.929  31.243  1.00  0.00     0.174 C 
BRANCH  13  14
HETATM   14  O5  UNL     1      16.963   9.857  32.241  1.00  0.00    -0.391 OA
ATOM     15  H5  UNL     1      16.566   9.428  32.989  1.00  0.00     0.210 HD
ENDBRANCH  13  14
BRANCH  13  16
HETATM   16  C5  UNL     1      18.578   8.535  31.175  1.00  0.00     0.217 C 
BRANCH  16  17
HETATM   17  O6  UNL     1      19.398   9.610  30.999  1.00  0.00    -0.280 OA
BRANCH  17  18
HETATM   18  P1  UNL     1      20.660   9.140  30.000  1.00  0.00     0.422 P 
HETATM   19  O7  UNL     1      22.121   9.772  30.128  1.00  0.00    -0.617 OA
HETATM   20  O8  UNL     1      20.920   7.930  30.896  1.00  0.00    -0.617 OA
HETATM   21  O9  UNL     1      20.307   8.109  28.717  1.00  0.00    -0.617 OA
ENDBRANCH  17  18
ENDBRANCH  16  17
ENDBRANCH  13  16
ENDBRANCH   1  13
TORSDOF 10
ENDMDL
