MODEL 5
REMARK VINA RESULT: -7.705245910      1.238      2.009
REMARK  10 active torsions:
REMARK  status: ('A' for Active; 'I' for Inactive)
REMARK    1  A    between atoms: O1_1  and  N1_3 
REMARK       I    between atoms: N1_3  and  C1_5 
REMARK    2  A    between atoms: C1_5  and  C2_7 
REMARK    3  A    between atoms: C2_7  and  O3_8 
REMARK    4  A    between atoms: C2_7  and  C3_10 
REMARK    5  A    between atoms: C3_10  and  O4_11 
REMARK    6  A    between atoms: C3_10  and  C4_13 
REMARK    7  A    between atoms: C4_13  and  O5_14 
REMARK    8  A    between atoms: C4_13  and  C5_16 
REMARK    9  A    between atoms: C5_16  and  O6_17 
REMARK   10  A    between atoms: O6_17  and  P1_18 
ROOT
HETATM    1  C3  UNL     1      16.247   8.334  29.968  1.00  0.00     0.187 C 
ENDROOT
BRANCH   1   2
HETATM    2  C2  UNL     1      15.357   9.570  29.788  1.00  0.00     0.243 C 
BRANCH   2   3
HETATM    3  C1  UNL     1      14.652   9.477  28.473  1.00  0.00     0.272 C 
HETATM    4  N1  UNL     1      14.524  10.635  27.688  1.00  0.00    -0.235 N 
ATOM      5  H1  UNL     1      14.924  11.506  28.037  1.00  0.00     0.197 HD
HETATM    6  O2  UNL     1      14.172   8.396  28.053  1.00  0.00    -0.268 OA
BRANCH   4   7
HETATM    7  O1  UNL     1      13.949  10.647  26.591  1.00  0.00    -0.287 OA
ATOM      8  H1  UNL     1      14.285  10.197  25.824  1.00  0.00     0.244 HD
ENDBRANCH   4   7
ENDBRANCH   2   3
BRANCH   2   9
HETATM    9  O3  UNL     1      14.448   9.675  30.825  1.00  0.00    -0.383 OA
ATOM     10  H3  UNL     1      13.609   9.304  30.575  1.00  0.00     0.210 HD
ENDBRANCH   2   9
ENDBRANCH   1   2
BRANCH   1  11
HETATM   11  O4  UNL     1      16.776   8.387  31.257  1.00  0.00    -0.390 OA
ATOM     12  H4  UNL     1      16.827   9.303  31.504  1.00  0.00     0.210 HD
ENDBRANCH   1  11
BRANCH   1  13
HETATM   13  C4  UNL     1      17.346   8.409  28.923  1.00  0.00     0.174 C 
BRANCH  13  14
HETATM   14  O5  UNL     1      18.037   7.221  28.923  1.00  0.00    -0.391 OA
ATOM     15  H5  UNL     1      17.899   6.788  29.757  1.00  0.00     0.210 HD
ENDBRANCH  13  14
BRANCH  13  16
HETATM   16  C5  UNL     1      18.291   9.538  29.171  1.00  0.00     0.217 C 
BRANCH  16  17
HETATM   17  O6  UNL     1      19.568   9.230  28.802  1.00  0.00    -0.280 OA
BRANCH  17  18
HETATM   18  P1  UNL     1      20.451   8.928  30.195  1.00  0.00     0.422 P 
HETATM   19  O7  UNL     1      19.798   8.236  31.477  1.00  0.00    -0.617 OA
HETATM   20  O8  UNL     1      20.998   7.645  29.571  1.00  0.00    -0.617 OA
HETATM   21  O9  UNL     1      22.014   9.545  30.286  1.00  0.00    -0.617 OA
ENDBRANCH  17  18
ENDBRANCH  16  17
ENDBRANCH  13  16
ENDBRANCH   1  13
TORSDOF 10
ENDMDL
