MODEL 2
REMARK VINA RESULT: -7.849886673      0.937      1.413
REMARK  10 active torsions:
REMARK  status: ('A' for Active; 'I' for Inactive)
REMARK    1  A    between atoms: O1_1  and  N1_3 
REMARK       I    between atoms: N1_3  and  C1_5 
REMARK    2  A    between atoms: C1_5  and  C2_7 
REMARK    3  A    between atoms: C2_7  and  O3_8 
REMARK    4  A    between atoms: C2_7  and  C3_10 
REMARK    5  A    between atoms: C3_10  and  O4_11 
REMARK    6  A    between atoms: C3_10  and  C4_13 
REMARK    7  A    between atoms: C4_13  and  O5_14 
REMARK    8  A    between atoms: C4_13  and  C5_16 
REMARK    9  A    between atoms: C5_16  and  O6_17 
REMARK   10  A    between atoms: O6_17  and  P1_18 
ROOT
HETATM    1  C3  UNL     1      16.741   9.010  29.462  1.00  0.00     0.187 C 
ENDROOT
BRANCH   1   2
HETATM    2  C2  UNL     1      15.230   9.146  29.682  1.00  0.00     0.243 C 
BRANCH   2   3
HETATM    3  C1  UNL     1      14.555   9.293  28.355  1.00  0.00     0.272 C 
HETATM    4  N1  UNL     1      14.566  10.548  27.723  1.00  0.00    -0.235 N 
ATOM      5  H1  UNL     1      15.042  11.322  28.186  1.00  0.00     0.197 HD
HETATM    6  O2  UNL     1      13.981   8.329  27.794  1.00  0.00    -0.268 OA
BRANCH   4   7
HETATM    7  O1  UNL     1      14.025  10.757  26.628  1.00  0.00    -0.287 OA
ATOM      8  H1  UNL     1      14.409  10.489  25.801  1.00  0.00     0.244 HD
ENDBRANCH   4   7
ENDBRANCH   2   3
BRANCH   2   9
HETATM    9  O3  UNL     1      14.733   8.053  30.366  1.00  0.00    -0.383 OA
ATOM     10  H3  UNL     1      14.673   8.237  31.296  1.00  0.00     0.210 HD
ENDBRANCH   2   9
ENDBRANCH   1   2
BRANCH   1  11
HETATM   11  O4  UNL     1      17.058   7.657  29.577  1.00  0.00    -0.390 OA
ATOM     12  H4  UNL     1      17.631   7.563  30.329  1.00  0.00     0.210 HD
ENDBRANCH   1  11
BRANCH   1  13
HETATM   13  C4  UNL     1      17.433   9.825  30.540  1.00  0.00     0.174 C 
BRANCH  13  14
HETATM   14  O5  UNL     1      17.993  10.939  29.961  1.00  0.00    -0.391 OA
ATOM     15  H5  UNL     1      18.235  11.550  30.646  1.00  0.00     0.210 HD
ENDBRANCH  13  14
BRANCH  13  16
HETATM   16  C5  UNL     1      18.490   9.047  31.253  1.00  0.00     0.217 C 
BRANCH  16  17
HETATM   17  O6  UNL     1      19.734   9.569  31.054  1.00  0.00    -0.280 OA
BRANCH  17  18
HETATM   18  P1  UNL     1      20.690   8.378  30.363  1.00  0.00     0.422 P 
HETATM   19  O7  UNL     1      20.663   8.075  28.795  1.00  0.00    -0.617 OA
HETATM   20  O8  UNL     1      21.872   9.347  30.326  1.00  0.00    -0.617 OA
HETATM   21  O9  UNL     1      21.557   7.366  31.393  1.00  0.00    -0.617 OA
ENDBRANCH  17  18
ENDBRANCH  16  17
ENDBRANCH  13  16
ENDBRANCH   1  13
TORSDOF 10
ENDMDL
