MODEL 10
REMARK VINA RESULT: -7.421681054      2.836      5.631
REMARK  10 active torsions:
REMARK  status: ('A' for Active; 'I' for Inactive)
REMARK    1  A    between atoms: O1_1  and  N1_3 
REMARK       I    between atoms: N1_3  and  C1_5 
REMARK    2  A    between atoms: C1_5  and  C2_7 
REMARK    3  A    between atoms: C2_7  and  O3_8 
REMARK    4  A    between atoms: C2_7  and  C3_10 
REMARK    5  A    between atoms: C3_10  and  O4_11 
REMARK    6  A    between atoms: C3_10  and  C4_13 
REMARK    7  A    between atoms: C4_13  and  O5_14 
REMARK    8  A    between atoms: C4_13  and  C5_16 
REMARK    9  A    between atoms: C5_16  and  O6_17 
REMARK   10  A    between atoms: O6_17  and  P1_18 
ROOT
HETATM    1  C3  UNL     1      18.087   8.185  30.119  1.00  0.00     0.187 C 
ENDROOT
BRANCH   1   2
HETATM    2  C2  UNL     1      19.213   8.080  31.155  1.00  0.00     0.243 C 
BRANCH   2   3
HETATM    3  C1  UNL     1      20.527   8.280  30.469  1.00  0.00     0.272 C 
HETATM    4  N1  UNL     1      21.262   9.446  30.739  1.00  0.00    -0.235 N 
ATOM      5  H1  UNL     1      20.879  10.120  31.402  1.00  0.00     0.197 HD
HETATM    6  O2  UNL     1      20.989   7.437  29.663  1.00  0.00    -0.268 OA
BRANCH   4   7
HETATM    7  O1  UNL     1      22.354   9.694  30.209  1.00  0.00    -0.287 OA
ATOM      8  H1  UNL     1      22.966  10.332  30.558  1.00  0.00     0.244 HD
ENDBRANCH   4   7
ENDBRANCH   2   3
BRANCH   2   9
HETATM    9  O3  UNL     1      19.040   9.008  32.164  1.00  0.00    -0.383 OA
ATOM     10  H3  UNL     1      18.152   9.347  32.161  1.00  0.00     0.210 HD
ENDBRANCH   2   9
ENDBRANCH   1   2
BRANCH   1  11
HETATM   11  O4  UNL     1      18.168   7.060  29.300  1.00  0.00    -0.390 OA
ATOM     12  H4  UNL     1      18.256   7.367  28.405  1.00  0.00     0.210 HD
ENDBRANCH   1  11
BRANCH   1  13
HETATM   13  C4  UNL     1      18.318   9.457  29.323  1.00  0.00     0.174 C 
BRANCH  13  14
HETATM   14  O5  UNL     1      18.077  10.538  30.136  1.00  0.00    -0.391 OA
ATOM     15  H5  UNL     1      17.145  10.719  30.134  1.00  0.00     0.210 HD
ENDBRANCH  13  14
BRANCH  13  16
HETATM   16  C5  UNL     1      17.449   9.537  28.112  1.00  0.00     0.217 C 
BRANCH  16  17
HETATM   17  O6  UNL     1      16.351   8.734  28.213  1.00  0.00    -0.280 OA
BRANCH  17  18
HETATM   18  P1  UNL     1      15.014   9.713  28.464  1.00  0.00     0.422 P 
HETATM   19  O7  UNL     1      13.915   9.953  27.331  1.00  0.00    -0.617 OA
HETATM   20  O8  UNL     1      14.294   8.555  29.154  1.00  0.00    -0.617 OA
HETATM   21  O9  UNL     1      14.945  10.601  29.893  1.00  0.00    -0.617 OA
ENDBRANCH  17  18
ENDBRANCH  16  17
ENDBRANCH  13  16
ENDBRANCH   1  13
TORSDOF 10
ENDMDL
