MODEL 4
REMARK VINA RESULT: -7.743766552      0.552      1.264
REMARK  10 active torsions:
REMARK  status: ('A' for Active; 'I' for Inactive)
REMARK    1  A    between atoms: O1_1  and  N1_3 
REMARK       I    between atoms: N1_3  and  C1_5 
REMARK    2  A    between atoms: C1_5  and  C2_7 
REMARK    3  A    between atoms: C2_7  and  O3_8 
REMARK    4  A    between atoms: C2_7  and  C3_10 
REMARK    5  A    between atoms: C3_10  and  O4_11 
REMARK    6  A    between atoms: C3_10  and  C4_13 
REMARK    7  A    between atoms: C4_13  and  O5_14 
REMARK    8  A    between atoms: C4_13  and  C5_16 
REMARK    9  A    between atoms: C5_16  and  O6_17 
REMARK   10  A    between atoms: O6_17  and  P1_18 
ROOT
HETATM    1  C3  UNL     1      16.598   9.521  29.943  1.00  0.00     0.187 C 
ENDROOT
BRANCH   1   2
HETATM    2  C2  UNL     1      15.078   9.324  29.891  1.00  0.00     0.243 C 
BRANCH   2   3
HETATM    3  C1  UNL     1      14.624   9.401  28.468  1.00  0.00     0.272 C 
HETATM    4  N1  UNL     1      14.582  10.655  27.836  1.00  0.00    -0.235 N 
ATOM      5  H1  UNL     1      14.870  11.477  28.367  1.00  0.00     0.197 HD
HETATM    6  O2  UNL     1      14.281   8.379  27.826  1.00  0.00    -0.268 OA
BRANCH   4   7
HETATM    7  O1  UNL     1      14.211  10.809  26.664  1.00  0.00    -0.287 OA
ATOM      8  H1  UNL     1      14.224  11.650  26.223  1.00  0.00     0.244 HD
ENDBRANCH   4   7
ENDBRANCH   2   3
BRANCH   2   9
HETATM    9  O3  UNL     1      14.721   8.112  30.454  1.00  0.00    -0.383 OA
ATOM     10  H3  UNL     1      15.264   7.410  30.113  1.00  0.00     0.210 HD
ENDBRANCH   2   9
ENDBRANCH   1   2
BRANCH   1  11
HETATM   11  O4  UNL     1      17.141   8.860  28.841  1.00  0.00    -0.390 OA
ATOM     12  H4  UNL     1      16.512   8.929  28.132  1.00  0.00     0.210 HD
ENDBRANCH   1  11
BRANCH   1  13
HETATM   13  C4  UNL     1      17.093   8.910  31.242  1.00  0.00     0.174 C 
BRANCH  13  14
HETATM   14  O5  UNL     1      16.977   9.846  32.242  1.00  0.00    -0.391 OA
ATOM     15  H5  UNL     1      16.716   9.407  33.042  1.00  0.00     0.210 HD
ENDBRANCH  13  14
BRANCH  13  16
HETATM   16  C5  UNL     1      18.509   8.447  31.152  1.00  0.00     0.217 C 
BRANCH  16  17
HETATM   17  O6  UNL     1      19.391   9.487  31.155  1.00  0.00    -0.280 OA
BRANCH  17  18
HETATM   18  P1  UNL     1      20.575   9.166  30.012  1.00  0.00     0.422 P 
HETATM   19  O7  UNL     1      20.276   8.297  28.706  1.00  0.00    -0.617 OA
HETATM   20  O8  UNL     1      20.326  10.529  29.369  1.00  0.00    -0.617 OA
HETATM   21  O9  UNL     1      22.156   9.626  30.365  1.00  0.00    -0.617 OA
ENDBRANCH  17  18
ENDBRANCH  16  17
ENDBRANCH  13  16
ENDBRANCH   1  13
TORSDOF 10
ENDMDL
