MODEL 3
REMARK VINA RESULT: -7.763465484      1.302      1.648
REMARK  10 active torsions:
REMARK  status: ('A' for Active; 'I' for Inactive)
REMARK    1  A    between atoms: O1_1  and  N1_3 
REMARK       I    between atoms: N1_3  and  C1_5 
REMARK    2  A    between atoms: C1_5  and  C2_7 
REMARK    3  A    between atoms: C2_7  and  O3_8 
REMARK    4  A    between atoms: C2_7  and  C3_10 
REMARK    5  A    between atoms: C3_10  and  O4_11 
REMARK    6  A    between atoms: C3_10  and  C4_13 
REMARK    7  A    between atoms: C4_13  and  O5_14 
REMARK    8  A    between atoms: C4_13  and  C5_16 
REMARK    9  A    between atoms: C5_16  and  O6_17 
REMARK   10  A    between atoms: O6_17  and  P1_18 
ROOT
HETATM    1  C3  UNL     1      16.730   9.686  29.688  1.00  0.00     0.187 C 
ENDROOT
BRANCH   1   2
HETATM    2  C2  UNL     1      15.228   9.402  29.807  1.00  0.00     0.243 C 
BRANCH   2   3
HETATM    3  C1  UNL     1      14.623   9.392  28.439  1.00  0.00     0.272 C 
HETATM    4  N1  UNL     1      14.486  10.607  27.748  1.00  0.00    -0.235 N 
ATOM      5  H1  UNL     1      14.810  11.462  28.199  1.00  0.00     0.197 HD
HETATM    6  O2  UNL     1      14.237   8.329  27.893  1.00  0.00    -0.268 OA
BRANCH   4   7
HETATM    7  O1  UNL     1      13.990  10.688  26.616  1.00  0.00    -0.287 OA
ATOM      8  H1  UNL     1      14.359  10.253  25.856  1.00  0.00     0.244 HD
ENDBRANCH   4   7
ENDBRANCH   2   3
BRANCH   2   9
HETATM    9  O3  UNL     1      15.005   8.199  30.449  1.00  0.00    -0.383 OA
ATOM     10  H3  UNL     1      14.895   7.496  29.819  1.00  0.00     0.210 HD
ENDBRANCH   2   9
ENDBRANCH   1   2
BRANCH   1  11
HETATM   11  O4  UNL     1      16.870  10.970  29.162  1.00  0.00    -0.390 OA
ATOM     12  H4  UNL     1      17.231  11.519  29.849  1.00  0.00     0.210 HD
ENDBRANCH   1  11
BRANCH   1  13
HETATM   13  C4  UNL     1      17.318   8.646  28.751  1.00  0.00     0.174 C 
BRANCH  13  14
HETATM   14  O5  UNL     1      17.353   7.435  29.401  1.00  0.00    -0.391 OA
ATOM     15  H5  UNL     1      17.907   6.841  28.910  1.00  0.00     0.210 HD
ENDBRANCH  13  14
BRANCH  13  16
HETATM   16  C5  UNL     1      18.691   9.006  28.289  1.00  0.00     0.217 C 
BRANCH  16  17
HETATM   17  O6  UNL     1      19.323   9.844  29.160  1.00  0.00    -0.280 OA
BRANCH  17  18
HETATM   18  P1  UNL     1      20.528   8.973  29.934  1.00  0.00     0.422 P 
HETATM   19  O7  UNL     1      21.956   9.609  30.259  1.00  0.00    -0.617 OA
HETATM   20  O8  UNL     1      19.890   9.291  31.286  1.00  0.00    -0.617 OA
HETATM   21  O9  UNL     1      20.266   7.331  30.201  1.00  0.00    -0.617 OA
ENDBRANCH  17  18
ENDBRANCH  16  17
ENDBRANCH  13  16
ENDBRANCH   1  13
TORSDOF 10
ENDMDL
