MODEL 19
REMARK VINA RESULT: -7.178082659      2.915      5.860
REMARK  10 active torsions:
REMARK  status: ('A' for Active; 'I' for Inactive)
REMARK    1  A    between atoms: O1_1  and  N1_3 
REMARK       I    between atoms: N1_3  and  C1_5 
REMARK    2  A    between atoms: C1_5  and  C2_7 
REMARK    3  A    between atoms: C2_7  and  O3_8 
REMARK    4  A    between atoms: C2_7  and  C3_10 
REMARK    5  A    between atoms: C3_10  and  O4_11 
REMARK    6  A    between atoms: C3_10  and  C4_13 
REMARK    7  A    between atoms: C4_13  and  O5_14 
REMARK    8  A    between atoms: C4_13  and  C5_16 
REMARK    9  A    between atoms: C5_16  and  O6_17 
REMARK   10  A    between atoms: O6_17  and  P1_18 
ROOT
HETATM    1  C3  UNL     1      18.569   8.164  30.078  1.00  0.00     0.187 C 
ENDROOT
BRANCH   1   2
HETATM    2  C2  UNL     1      19.842   8.750  29.456  1.00  0.00     0.243 C 
BRANCH   2   3
HETATM    3  C1  UNL     1      21.004   8.452  30.349  1.00  0.00     0.272 C 
HETATM    4  N1  UNL     1      20.973   7.291  31.139  1.00  0.00    -0.235 N 
ATOM      5  H1  UNL     1      20.158   6.681  31.075  1.00  0.00     0.197 HD
HETATM    6  O2  UNL     1      22.003   9.209  30.410  1.00  0.00    -0.268 OA
BRANCH   4   7
HETATM    7  O1  UNL     1      21.889   6.975  31.911  1.00  0.00    -0.287 OA
ATOM      8  H1  UNL     1      22.807   7.021  31.671  1.00  0.00     0.244 HD
ENDBRANCH   4   7
ENDBRANCH   2   3
BRANCH   2   9
HETATM    9  O3  UNL     1      20.053   8.234  28.190  1.00  0.00    -0.383 OA
ATOM     10  H3  UNL     1      20.839   8.602  27.804  1.00  0.00     0.210 HD
ENDBRANCH   2   9
ENDBRANCH   1   2
BRANCH   1  11
HETATM   11  O4  UNL     1      18.134   7.135  29.243  1.00  0.00    -0.390 OA
ATOM     12  H4  UNL     1      17.468   7.498  28.671  1.00  0.00     0.210 HD
ENDBRANCH   1  11
BRANCH   1  13
HETATM   13  C4  UNL     1      17.542   9.280  30.149  1.00  0.00     0.174 C 
BRANCH  13  14
HETATM   14  O5  UNL     1      17.560   9.816  31.414  1.00  0.00    -0.391 OA
ATOM     15  H5  UNL     1      17.038  10.610  31.416  1.00  0.00     0.210 HD
ENDBRANCH  13  14
BRANCH  13  16
HETATM   16  C5  UNL     1      16.164   8.806  29.825  1.00  0.00     0.217 C 
BRANCH  16  17
HETATM   17  O6  UNL     1      15.888   8.898  28.492  1.00  0.00    -0.280 OA
BRANCH  17  18
HETATM   18  P1  UNL     1      15.078  10.342  28.229  1.00  0.00     0.422 P 
HETATM   19  O7  UNL     1      15.126  11.543  29.280  1.00  0.00    -0.617 OA
HETATM   20  O8  UNL     1      16.235  10.834  27.359  1.00  0.00    -0.617 OA
HETATM   21  O9  UNL     1      14.046  10.436  26.902  1.00  0.00    -0.617 OA
ENDBRANCH  17  18
ENDBRANCH  16  17
ENDBRANCH  13  16
ENDBRANCH   1  13
TORSDOF 10
ENDMDL
