MODEL 17
REMARK VINA RESULT: -7.245326346      2.972      5.375
REMARK  10 active torsions:
REMARK  status: ('A' for Active; 'I' for Inactive)
REMARK    1  A    between atoms: O1_1  and  N1_3 
REMARK       I    between atoms: N1_3  and  C1_5 
REMARK    2  A    between atoms: C1_5  and  C2_7 
REMARK    3  A    between atoms: C2_7  and  O3_8 
REMARK    4  A    between atoms: C2_7  and  C3_10 
REMARK    5  A    between atoms: C3_10  and  O4_11 
REMARK    6  A    between atoms: C3_10  and  C4_13 
REMARK    7  A    between atoms: C4_13  and  O5_14 
REMARK    8  A    between atoms: C4_13  and  C5_16 
REMARK    9  A    between atoms: C5_16  and  O6_17 
REMARK   10  A    between atoms: O6_17  and  P1_18 
ROOT
HETATM    1  C3  UNL     1      17.897   8.375  30.238  1.00  0.00     0.187 C 
ENDROOT
BRANCH   1   2
HETATM    2  C2  UNL     1      19.119   8.150  31.136  1.00  0.00     0.243 C 
BRANCH   2   3
HETATM    3  C1  UNL     1      20.362   8.397  30.341  1.00  0.00     0.272 C 
HETATM    4  N1  UNL     1      21.254   9.395  30.767  1.00  0.00    -0.235 N 
ATOM      5  H1  UNL     1      21.029   9.919  31.613  1.00  0.00     0.197 HD
HETATM    6  O2  UNL     1      20.629   7.737  29.307  1.00  0.00    -0.268 OA
BRANCH   4   7
HETATM    7  O1  UNL     1      22.301   9.668  30.164  1.00  0.00    -0.287 OA
ATOM      8  H1  UNL     1      22.605   9.180  29.407  1.00  0.00     0.244 HD
ENDBRANCH   4   7
ENDBRANCH   2   3
BRANCH   2   9
HETATM    9  O3  UNL     1      19.074   8.978  32.242  1.00  0.00    -0.383 OA
ATOM     10  H3  UNL     1      18.669   9.809  32.024  1.00  0.00     0.210 HD
ENDBRANCH   2   9
ENDBRANCH   1   2
BRANCH   1  11
HETATM   11  O4  UNL     1      17.922   7.392  29.249  1.00  0.00    -0.390 OA
ATOM     12  H4  UNL     1      17.266   7.624  28.602  1.00  0.00     0.210 HD
ENDBRANCH   1  11
BRANCH   1  13
HETATM   13  C4  UNL     1      18.026   9.761  29.632  1.00  0.00     0.174 C 
BRANCH  13  14
HETATM   14  O5  UNL     1      17.492  10.677  30.507  1.00  0.00    -0.391 OA
ATOM     15  H5  UNL     1      17.739  11.549  30.225  1.00  0.00     0.210 HD
ENDBRANCH  13  14
BRANCH  13  16
HETATM   16  C5  UNL     1      17.339   9.872  28.311  1.00  0.00     0.217 C 
BRANCH  16  17
HETATM   17  O6  UNL     1      18.078  10.575  27.405  1.00  0.00    -0.280 OA
BRANCH  17  18
HETATM   18  P1  UNL     1      17.290  12.025  27.110  1.00  0.00     0.422 P 
HETATM   19  O7  UNL     1      17.112  12.606  25.634  1.00  0.00    -0.617 OA
HETATM   20  O8  UNL     1      15.942  11.307  27.173  1.00  0.00    -0.617 OA
HETATM   21  O9  UNL     1      16.847  12.964  28.436  1.00  0.00    -0.617 OA
ENDBRANCH  17  18
ENDBRANCH  16  17
ENDBRANCH  13  16
ENDBRANCH   1  13
TORSDOF 10
ENDMDL
