MODEL 3
REMARK VINA RESULT: -7.796468735      2.455      7.737
REMARK  11 active torsions:
REMARK  status: ('A' for Active; 'I' for Inactive)
REMARK    1  A    between atoms: C9_9  and  O1_10 
REMARK    2  A    between atoms: C12_14  and  C14_16 
REMARK    3  A    between atoms: C14_16  and  C15_17 
REMARK    4  A    between atoms: C15_17  and  C16_18 
REMARK    5  A    between atoms: C16_18  and  C17_19 
REMARK    6  A    between atoms: C17_19  and  C19_21 
REMARK    7  A    between atoms: C19_21  and  C20_22 
REMARK    8  A    between atoms: C21_23  and  C22_24 
REMARK    9  A    between atoms: C22_24  and  C24_26 
REMARK   10  A    between atoms: C25_27  and  C26_28 
REMARK   11  A    between atoms: C26_28  and  C27_29 
ROOT
HETATM    1  C1  UNL     1      19.490  21.581  46.382  1.00  0.00     0.052 C 
HETATM    2  C2  UNL     1      18.091  21.815  45.987  1.00  0.00    -0.020 A 
HETATM    3  C3  UNL     1      17.730  21.724  44.665  1.00  0.00    -0.019 A 
HETATM    4  C4  UNL     1      18.708  21.394  43.597  1.00  0.00     0.052 C 
HETATM    5  C5  UNL     1      16.411  21.939  44.251  1.00  0.00     0.083 A 
HETATM    6  C6  UNL     1      15.456  22.249  45.196  1.00  0.00    -0.015 A 
HETATM    7  C7  UNL     1      15.813  22.344  46.545  1.00  0.00    -0.019 A 
HETATM    8  C8  UNL     1      14.818  22.675  47.601  1.00  0.00     0.052 C 
HETATM    9  C9  UNL     1      17.131  22.125  46.922  1.00  0.00     0.078 A 
HETATM   10  C10 UNL     1      14.036  22.491  44.834  1.00  0.00     0.045 C 
HETATM   11  C11 UNL     1      13.770  21.966  43.421  1.00  0.00     0.043 C 
HETATM   12  C12 UNL     1      14.845  22.489  42.532  1.00  0.00     0.064 C 
HETATM   13  C13 UNL     1      15.023  23.974  42.833  1.00  0.00     0.046 C 
HETATM   14  O2  UNL     1      16.058  21.844  42.910  1.00  0.00    -0.339 OA
ENDROOT
BRANCH  12  15
HETATM   15  C14 UNL     1      14.598  22.355  41.068  1.00  0.00     0.038 C 
BRANCH  15  16
HETATM   16  C15 UNL     1      15.349  23.428  40.315  1.00  0.00     0.003 C 
BRANCH  16  17
HETATM   17  C16 UNL     1      16.287  22.703  39.361  1.00  0.00     0.004 C 
BRANCH  17  18
HETATM   18  C17 UNL     1      16.821  23.625  38.289  1.00  0.00    -0.015 C 
HETATM   19  C18 UNL     1      15.998  24.901  38.314  1.00  0.00     0.010 C 
BRANCH  18  20
HETATM   20  C19 UNL     1      16.665  22.899  36.969  1.00  0.00     0.031 C 
BRANCH  20  21
HETATM   21  C20 UNL     1      16.234  21.482  37.152  1.00  0.00    -0.030 C 
HETATM   22  C21 UNL     1      15.690  20.761  36.178  1.00  0.00    -0.023 C 
BRANCH  22  23
HETATM   23  C22 UNL     1      15.263  19.360  36.353  1.00  0.00     0.026 C 
HETATM   24  C23 UNL     1      15.511  18.503  35.133  1.00  0.00     0.018 C 
BRANCH  23  25
HETATM   25  C24 UNL     1      13.819  19.337  36.700  1.00  0.00    -0.023 C 
HETATM   26  C25 UNL     1      13.346  18.380  37.454  1.00  0.00    -0.030 C 
BRANCH  26  27
HETATM   27  C26 UNL     1      11.955  18.258  37.852  1.00  0.00     0.030 C 
BRANCH  27  28
HETATM   28  C27 UNL     1      11.432  19.426  38.601  1.00  0.00    -0.019 C 
HETATM   29  C28 UNL     1      12.036  19.661  39.952  1.00  0.00     0.010 C 
HETATM   30  C29 UNL     1       9.913  19.363  38.634  1.00  0.00     0.010 C 
ENDBRANCH  27  28
ENDBRANCH  26  27
ENDBRANCH  23  25
ENDBRANCH  22  23
ENDBRANCH  20  21
ENDBRANCH  18  20
ENDBRANCH  17  18
ENDBRANCH  16  17
ENDBRANCH  15  16
ENDBRANCH  12  15
BRANCH   9  31
HETATM   31  O1  UNL     1      17.451  22.228  48.280  1.00  0.00    -0.360 OA
ATOM     32  H1  UNL     1      18.349  22.141  48.580  1.00  0.00     0.217 HD
ENDBRANCH   9  31
TORSDOF 11
ENDMDL
