MODEL 7
REMARK VINA RESULT: -7.730109105      2.387      8.230
REMARK  11 active torsions:
REMARK  status: ('A' for Active; 'I' for Inactive)
REMARK    1  A    between atoms: C9_9  and  O1_10 
REMARK    2  A    between atoms: C12_14  and  C14_16 
REMARK    3  A    between atoms: C14_16  and  C15_17 
REMARK    4  A    between atoms: C15_17  and  C16_18 
REMARK    5  A    between atoms: C16_18  and  C17_19 
REMARK    6  A    between atoms: C17_19  and  C19_21 
REMARK    7  A    between atoms: C19_21  and  C20_22 
REMARK    8  A    between atoms: C21_23  and  C22_24 
REMARK    9  A    between atoms: C22_24  and  C24_26 
REMARK   10  A    between atoms: C25_27  and  C26_28 
REMARK   11  A    between atoms: C26_28  and  C27_29 
ROOT
HETATM    1  C1  UNL     1      18.357  22.430  46.529  1.00  0.00     0.052 C 
HETATM    2  C2  UNL     1      16.979  22.413  46.013  1.00  0.00    -0.020 A 
HETATM    3  C3  UNL     1      16.710  21.826  44.801  1.00  0.00    -0.019 A 
HETATM    4  C4  UNL     1      17.771  21.195  43.974  1.00  0.00     0.052 C 
HETATM    5  C5  UNL     1      15.413  21.790  44.277  1.00  0.00     0.083 A 
HETATM    6  C6  UNL     1      14.386  22.359  44.999  1.00  0.00    -0.015 A 
HETATM    7  C7  UNL     1      14.647  22.960  46.234  1.00  0.00    -0.019 A 
HETATM    8  C8  UNL     1      13.572  23.586  47.048  1.00  0.00     0.052 C 
HETATM    9  C9  UNL     1      15.946  22.979  46.725  1.00  0.00     0.078 A 
HETATM   10  C10 UNL     1      12.984  22.361  44.508  1.00  0.00     0.045 C 
HETATM   11  C11 UNL     1      12.835  21.342  43.375  1.00  0.00     0.043 C 
HETATM   12  C12 UNL     1      13.943  21.576  42.406  1.00  0.00     0.064 C 
HETATM   13  C13 UNL     1      14.036  23.077  42.150  1.00  0.00     0.046 C 
HETATM   14  O2  UNL     1      15.155  21.193  43.049  1.00  0.00    -0.339 OA
ENDROOT
BRANCH  12  15
HETATM   15  C14 UNL     1      13.799  20.904  41.084  1.00  0.00     0.038 C 
BRANCH  15  16
HETATM   16  C15 UNL     1      12.346  20.590  40.817  1.00  0.00     0.003 C 
BRANCH  16  17
HETATM   17  C16 UNL     1      12.329  19.288  40.027  1.00  0.00     0.004 C 
BRANCH  17  18
HETATM   18  C17 UNL     1      11.800  19.489  38.625  1.00  0.00    -0.015 C 
HETATM   19  C18 UNL     1      10.284  19.465  38.687  1.00  0.00     0.010 C 
BRANCH  18  20
HETATM   20  C19 UNL     1      12.333  18.344  37.788  1.00  0.00     0.031 C 
BRANCH  20  21
HETATM   21  C20 UNL     1      13.206  18.818  36.675  1.00  0.00    -0.030 C 
HETATM   22  C21 UNL     1      14.354  19.454  36.879  1.00  0.00    -0.023 C 
BRANCH  22  23
HETATM   23  C22 UNL     1      15.222  19.924  35.782  1.00  0.00     0.026 C 
HETATM   24  C23 UNL     1      15.946  18.804  35.071  1.00  0.00     0.018 C 
BRANCH  23  25
HETATM   25  C24 UNL     1      16.205  20.894  36.327  1.00  0.00    -0.023 C 
HETATM   26  C25 UNL     1      15.968  21.491  37.465  1.00  0.00    -0.030 C 
BRANCH  26  27
HETATM   27  C26 UNL     1      16.857  22.455  38.089  1.00  0.00     0.030 C 
BRANCH  27  28
HETATM   28  C27 UNL     1      16.332  23.042  39.346  1.00  0.00    -0.019 C 
HETATM   29  C28 UNL     1      16.114  24.525  39.334  1.00  0.00     0.010 C 
HETATM   30  C29 UNL     1      17.188  22.578  40.514  1.00  0.00     0.010 C 
ENDBRANCH  27  28
ENDBRANCH  26  27
ENDBRANCH  23  25
ENDBRANCH  22  23
ENDBRANCH  20  21
ENDBRANCH  18  20
ENDBRANCH  17  18
ENDBRANCH  16  17
ENDBRANCH  15  16
ENDBRANCH  12  15
BRANCH   9  31
HETATM   31  O1  UNL     1      16.171  23.588  47.964  1.00  0.00    -0.360 OA
ATOM     32  H1  UNL     1      15.462  23.999  48.444  1.00  0.00     0.217 HD
ENDBRANCH   9  31
TORSDOF 11
ENDMDL
