MODEL 1
REMARK VINA RESULT: -8.082641066      0.000      0.000
REMARK  11 active torsions:
REMARK  status: ('A' for Active; 'I' for Inactive)
REMARK    1  A    between atoms: C9_9  and  O1_10 
REMARK    2  A    between atoms: C12_14  and  C14_16 
REMARK    3  A    between atoms: C14_16  and  C15_17 
REMARK    4  A    between atoms: C15_17  and  C16_18 
REMARK    5  A    between atoms: C16_18  and  C17_19 
REMARK    6  A    between atoms: C17_19  and  C19_21 
REMARK    7  A    between atoms: C19_21  and  C20_22 
REMARK    8  A    between atoms: C21_23  and  C22_24 
REMARK    9  A    between atoms: C22_24  and  C24_26 
REMARK   10  A    between atoms: C25_27  and  C26_28 
REMARK   11  A    between atoms: C26_28  and  C27_29 
ROOT
HETATM    1  C1  UNL     1      16.004  23.848  35.231  1.00  0.00     0.052 C 
HETATM    2  C2  UNL     1      16.112  24.296  36.629  1.00  0.00    -0.020 A 
HETATM    3  C3  UNL     1      16.463  23.400  37.608  1.00  0.00    -0.019 A 
HETATM    4  C4  UNL     1      16.744  21.972  37.311  1.00  0.00     0.052 C 
HETATM    5  C5  UNL     1      16.575  23.787  38.948  1.00  0.00     0.083 A 
HETATM    6  C6  UNL     1      16.327  25.100  39.287  1.00  0.00    -0.015 A 
HETATM    7  C7  UNL     1      15.969  26.022  38.298  1.00  0.00    -0.019 A 
HETATM    8  C8  UNL     1      15.692  27.448  38.615  1.00  0.00     0.052 C 
HETATM    9  C9  UNL     1      15.866  25.604  36.977  1.00  0.00     0.078 A 
HETATM   10  C10 UNL     1      16.426  25.586  40.686  1.00  0.00     0.045 C 
HETATM   11  C11 UNL     1      17.193  24.566  41.531  1.00  0.00     0.043 C 
HETATM   12  C12 UNL     1      16.601  23.224  41.270  1.00  0.00     0.064 C 
HETATM   13  C13 UNL     1      15.083  23.359  41.328  1.00  0.00     0.046 C 
HETATM   14  O2  UNL     1      16.931  22.870  39.929  1.00  0.00    -0.339 OA
ENDROOT
BRANCH  12  15
HETATM   15  C14 UNL     1      16.993  22.146  42.222  1.00  0.00     0.038 C 
BRANCH  15  16
HETATM   16  C15 UNL     1      18.215  22.566  43.006  1.00  0.00     0.003 C 
BRANCH  16  17
HETATM   17  C16 UNL     1      18.465  21.466  44.027  1.00  0.00     0.004 C 
BRANCH  17  18
HETATM   18  C17 UNL     1      18.487  22.004  45.440  1.00  0.00    -0.015 C 
HETATM   19  C18 UNL     1      19.777  21.547  46.097  1.00  0.00     0.010 C 
BRANCH  18  20
HETATM   20  C19 UNL     1      17.278  21.427  46.147  1.00  0.00     0.031 C 
BRANCH  20  21
HETATM   21  C20 UNL     1      16.126  22.375  46.160  1.00  0.00    -0.030 C 
HETATM   22  C21 UNL     1      15.052  22.216  45.395  1.00  0.00    -0.023 C 
BRANCH  22  23
HETATM   23  C22 UNL     1      13.910  23.150  45.404  1.00  0.00     0.026 C 
HETATM   24  C23 UNL     1      13.122  23.118  46.694  1.00  0.00     0.018 C 
BRANCH  23  25
HETATM   25  C24 UNL     1      13.018  22.832  44.261  1.00  0.00    -0.023 C 
HETATM   26  C25 UNL     1      13.154  21.698  43.625  1.00  0.00    -0.030 C 
BRANCH  26  27
HETATM   27  C26 UNL     1      12.340  21.286  42.495  1.00  0.00     0.030 C 
BRANCH  27  28
HETATM   28  C27 UNL     1      13.008  20.326  41.583  1.00  0.00    -0.019 C 
HETATM   29  C28 UNL     1      12.221  19.917  40.375  1.00  0.00     0.010 C 
HETATM   30  C29 UNL     1      13.517  19.139  42.388  1.00  0.00     0.010 C 
ENDBRANCH  27  28
ENDBRANCH  26  27
ENDBRANCH  23  25
ENDBRANCH  22  23
ENDBRANCH  20  21
ENDBRANCH  18  20
ENDBRANCH  17  18
ENDBRANCH  16  17
ENDBRANCH  15  16
ENDBRANCH  12  15
BRANCH   9  31
HETATM   31  O1  UNL     1      15.506  26.553  36.015  1.00  0.00    -0.360 OA
ATOM     32  H1  UNL     1      14.647  26.960  36.025  1.00  0.00     0.217 HD
ENDBRANCH   9  31
TORSDOF 11
ENDMDL
