MODEL 3
REMARK VINA RESULT: -5.249011935      0.081      1.897
REMARK  1 active torsions:
REMARK  status: ('A' for Active; 'I' for Inactive)
REMARK    1  A    between atoms: C1_2  and  C2_4 
ROOT
HETATM    1  C2  UNL     1       8.753  -2.252  32.538  1.00  0.00     0.040 A 
HETATM    2  C3  UNL     1      10.003  -2.801  32.348  1.00  0.00     0.018 A 
HETATM    3  C4  UNL     1      10.998  -2.663  33.300  1.00  0.00     0.001 A 
HETATM    4  C5  UNL     1      10.770  -1.971  34.471  1.00  0.00     0.000 A 
HETATM    5  C6  UNL     1       9.528  -1.417  34.675  1.00  0.00     0.001 A 
HETATM    6  C7  UNL     1       8.529  -1.562  33.708  1.00  0.00     0.018 A 
ENDROOT
BRANCH   1   7
HETATM    7  C1  UNL     1       7.705  -2.398  31.534  1.00  0.00     0.209 C 
HETATM    8  O1  UNL     1       6.571  -1.873  31.655  1.00  0.00    -0.644 OA
HETATM    9  O2  UNL     1       7.910  -3.139  30.369  1.00  0.00    -0.644 OA
ENDBRANCH   1   7
TORSDOF 1
ENDMDL
