MODEL 1
REMARK VINA RESULT: -5.260291068      0.000      0.000
REMARK  1 active torsions:
REMARK  status: ('A' for Active; 'I' for Inactive)
REMARK    1  A    between atoms: C1_2  and  C2_4 
ROOT
HETATM    1  C2  UNL     1       8.796  -2.289  32.511  1.00  0.00     0.040 A 
HETATM    2  C3  UNL     1       8.517  -1.588  33.664  1.00  0.00     0.018 A 
HETATM    3  C4  UNL     1       9.475  -1.415  34.647  1.00  0.00     0.001 A 
HETATM    4  C5  UNL     1      10.743  -1.941  34.504  1.00  0.00     0.000 A 
HETATM    5  C6  UNL     1      11.036  -2.643  33.359  1.00  0.00     0.001 A 
HETATM    6  C7  UNL     1      10.061  -2.812  32.372  1.00  0.00     0.018 A 
ENDROOT
BRANCH   1   7
HETATM    7  C1  UNL     1       7.784  -2.471  31.476  1.00  0.00     0.209 C 
HETATM    8  O1  UNL     1       7.978  -3.172  30.453  1.00  0.00    -0.644 OA
HETATM    9  O2  UNL     1       6.528  -1.867  31.569  1.00  0.00    -0.644 OA
ENDBRANCH   1   7
TORSDOF 1
ENDMDL
