MODEL 2
REMARK VINA RESULT: -5.254326910      0.016      1.575
REMARK  1 active torsions:
REMARK  status: ('A' for Active; 'I' for Inactive)
REMARK    1  A    between atoms: C1_2  and  C2_4 
ROOT
HETATM    1  C2  UNL     1       8.798  -2.286  32.513  1.00  0.00     0.040 A 
HETATM    2  C3  UNL     1      10.063  -2.815  32.379  1.00  0.00     0.018 A 
HETATM    3  C4  UNL     1      11.020  -2.641  33.364  1.00  0.00     0.001 A 
HETATM    4  C5  UNL     1      10.737  -1.932  34.513  1.00  0.00     0.000 A 
HETATM    5  C6  UNL     1       9.479  -1.398  34.660  1.00  0.00     0.001 A 
HETATM    6  C7  UNL     1       8.519  -1.579  33.661  1.00  0.00     0.018 A 
ENDROOT
BRANCH   1   7
HETATM    7  C1  UNL     1       7.791  -2.468  31.474  1.00  0.00     0.209 C 
HETATM    8  O1  UNL     1       7.982  -3.185  30.461  1.00  0.00    -0.644 OA
HETATM    9  O2  UNL     1       6.542  -1.848  31.551  1.00  0.00    -0.644 OA
ENDBRANCH   1   7
TORSDOF 1
ENDMDL
