MODEL 7
REMARK VINA RESULT: -7.380179411      2.381      2.827
REMARK  4 active torsions:
REMARK  status: ('A' for Active; 'I' for Inactive)
REMARK    1  A    between atoms: O1_2  and  C2_3 
REMARK    2  A    between atoms: C9_12  and  O4_13 
REMARK    3  A    between atoms: C10_15  and  O5_16 
REMARK    4  A    between atoms: C11_18  and  C12_19 
ROOT
HETATM    1  C2  UNL     1      -8.476 -31.205  16.590  1.00  0.00     0.300 C 
HETATM    2  O2  UNL     1      -8.204 -31.271  15.244  1.00  0.00    -0.352 OA
HETATM    3  C3  UNL     1      -9.109 -30.694  14.405  1.00  0.00     0.127 C 
HETATM    4  C4  UNL     1      -9.789 -31.818  13.622  1.00  0.00     0.040 C 
HETATM    5  C5  UNL     1     -10.110 -29.775  15.013  1.00  0.00     0.097 C 
HETATM    6  C6  UNL     1      -9.479 -29.045  16.152  1.00  0.00     0.071 A 
HETATM    7  O3  UNL     1      -9.689 -27.772  16.399  1.00  0.00    -0.313 OA
HETATM    8  C7  UNL     1      -9.103 -27.188  17.420  1.00  0.00     0.093 A 
HETATM    9  C8  UNL     1      -9.361 -25.860  17.626  1.00  0.00     0.077 A 
HETATM   10  C9  UNL     1      -8.784 -25.170  18.677  1.00  0.00     0.102 A 
HETATM   11  C10 UNL     1      -7.946 -25.839  19.514  1.00  0.00     0.117 A 
HETATM   12  C11 UNL     1      -7.651 -27.225  19.333  1.00  0.00     0.093 A 
HETATM   13  C13 UNL     1      -8.239 -27.877  18.283  1.00  0.00     0.069 A 
HETATM   14  C14 UNL     1      -8.001 -29.215  18.045  1.00  0.00     0.199 A 
HETATM   15  O8  UNL     1      -7.254 -29.917  18.747  1.00  0.00    -0.287 OA
HETATM   16  C15 UNL     1      -8.649 -29.792  16.946  1.00  0.00     0.077 A 
ENDROOT
BRANCH  12  17
HETATM   17  C12 UNL     1      -6.757 -27.843  20.265  1.00  0.00     0.213 C 
HETATM   18  O6  UNL     1      -5.589 -28.139  20.133  1.00  0.00    -0.644 OA
HETATM   19  O7  UNL     1      -7.277 -28.173  21.546  1.00  0.00    -0.644 OA
ENDBRANCH  12  17
BRANCH  11  20
HETATM   20  O5  UNL     1      -7.358 -25.190  20.563  1.00  0.00    -0.357 OA
ATOM     21  H5  UNL     1      -6.894 -25.682  21.229  1.00  0.00     0.217 HD
ENDBRANCH  11  20
BRANCH  10  22
HETATM   22  O4  UNL     1      -9.083 -23.814  18.841  1.00  0.00    -0.358 OA
ATOM     23  H4  UNL     1      -8.400 -23.226  19.141  1.00  0.00     0.217 HD
ENDBRANCH  10  22
BRANCH   1  24
HETATM   24  O1  UNL     1      -7.484 -31.846  17.309  1.00  0.00    -0.362 OA
HETATM   25  C1  UNL     1      -7.917 -33.150  17.546  1.00  0.00     0.205 C 
ENDBRANCH   1  24
TORSDOF 4
ENDMDL
