MODEL 2
REMARK VINA RESULT: -7.885932592      1.071      1.302
REMARK  4 active torsions:
REMARK  status: ('A' for Active; 'I' for Inactive)
REMARK    1  A    between atoms: O1_2  and  C2_3 
REMARK    2  A    between atoms: C9_12  and  O4_13 
REMARK    3  A    between atoms: C10_15  and  O5_16 
REMARK    4  A    between atoms: C11_18  and  C12_19 
ROOT
HETATM    1  C2  UNL     1     -10.433 -31.361  18.658  1.00  0.00     0.300 C 
HETATM    2  O2  UNL     1     -10.591 -32.049  17.478  1.00  0.00    -0.352 OA
HETATM    3  C3  UNL     1     -11.587 -31.627  16.650  1.00  0.00     0.127 C 
HETATM    4  C4  UNL     1     -12.660 -32.717  16.630  1.00  0.00     0.040 C 
HETATM    5  C5  UNL     1     -12.180 -30.289  16.926  1.00  0.00     0.097 C 
HETATM    6  C6  UNL     1     -11.118 -29.379  17.448  1.00  0.00     0.071 A 
HETATM    7  O3  UNL     1     -11.014 -28.117  17.100  1.00  0.00    -0.313 OA
HETATM    8  C7  UNL     1     -10.055 -27.368  17.597  1.00  0.00     0.093 A 
HETATM    9  C8  UNL     1      -9.998 -26.060  17.196  1.00  0.00     0.077 A 
HETATM   10  C9  UNL     1      -9.019 -25.205  17.670  1.00  0.00     0.102 A 
HETATM   11  C10 UNL     1      -8.103 -25.688  18.553  1.00  0.00     0.117 A 
HETATM   12  C11 UNL     1      -8.128 -27.046  18.995  1.00  0.00     0.093 A 
HETATM   13  C13 UNL     1      -9.110 -27.865  18.505  1.00  0.00     0.069 A 
HETATM   14  C14 UNL     1      -9.197 -29.188  18.887  1.00  0.00     0.199 A 
HETATM   15  O8  UNL     1      -8.413 -29.728  19.685  1.00  0.00    -0.287 OA
HETATM   16  C15 UNL     1     -10.236 -29.945  18.331  1.00  0.00     0.077 A 
ENDROOT
BRANCH  12  17
HETATM   17  C12 UNL     1      -7.122 -27.462  19.925  1.00  0.00     0.213 C 
HETATM   18  O6  UNL     1      -6.041 -27.969  19.715  1.00  0.00    -0.644 OA
HETATM   19  O7  UNL     1      -7.393 -27.269  21.306  1.00  0.00    -0.644 OA
ENDBRANCH  12  17
BRANCH  11  20
HETATM   20  O5  UNL     1      -7.123 -24.873  19.042  1.00  0.00    -0.357 OA
ATOM     21  H5  UNL     1      -6.235 -25.196  19.138  1.00  0.00     0.217 HD
ENDBRANCH  11  20
BRANCH  10  22
HETATM   22  O4  UNL     1      -9.009 -23.879  17.228  1.00  0.00    -0.358 OA
ATOM     23  H4  UNL     1      -8.700 -23.200  17.818  1.00  0.00     0.217 HD
ENDBRANCH  10  22
BRANCH   1  24
HETATM   24  O1  UNL     1      -9.403 -31.914  19.397  1.00  0.00    -0.362 OA
HETATM   25  C1  UNL     1      -9.979 -32.689  20.402  1.00  0.00     0.205 C 
ENDBRANCH   1  24
TORSDOF 4
ENDMDL
