MODEL 6
REMARK VINA RESULT: -7.442308494      1.441      5.746
REMARK  4 active torsions:
REMARK  status: ('A' for Active; 'I' for Inactive)
REMARK    1  A    between atoms: O1_2  and  C2_3 
REMARK    2  A    between atoms: C9_12  and  O4_13 
REMARK    3  A    between atoms: C10_15  and  O5_16 
REMARK    4  A    between atoms: C11_18  and  C12_19 
ROOT
HETATM    1  C2  UNL     1      -8.060 -27.479  18.118  1.00  0.00     0.300 C 
HETATM    2  O2  UNL     1      -8.496 -26.218  18.449  1.00  0.00    -0.352 OA
HETATM    3  C3  UNL     1      -9.411 -25.647  17.618  1.00  0.00     0.127 C 
HETATM    4  C4  UNL     1      -8.724 -24.476  16.914  1.00  0.00     0.040 C 
HETATM    5  C5  UNL     1     -10.095 -26.540  16.642  1.00  0.00     0.097 C 
HETATM    6  C6  UNL     1     -10.286 -27.886  17.258  1.00  0.00     0.071 A 
HETATM    7  O3  UNL     1     -11.379 -28.600  17.108  1.00  0.00    -0.313 OA
HETATM    8  C7  UNL     1     -11.485 -29.779  17.678  1.00  0.00     0.093 A 
HETATM    9  C8  UNL     1     -12.648 -30.476  17.485  1.00  0.00     0.077 A 
HETATM   10  C9  UNL     1     -12.840 -31.724  18.049  1.00  0.00     0.102 A 
HETATM   11  C10 UNL     1     -11.845 -32.256  18.808  1.00  0.00     0.117 A 
HETATM   12  C11 UNL     1     -10.617 -31.562  19.034  1.00  0.00     0.093 A 
HETATM   13  C13 UNL     1     -10.460 -30.329  18.461  1.00  0.00     0.069 A 
HETATM   14  C14 UNL     1      -9.302 -29.599  18.635  1.00  0.00     0.199 A 
HETATM   15  O8  UNL     1      -8.335 -29.992  19.307  1.00  0.00    -0.287 OA
HETATM   16  C15 UNL     1      -9.236 -28.349  18.008  1.00  0.00     0.077 A 
ENDROOT
BRANCH  12  17
HETATM   17  C12 UNL     1      -9.629 -32.203  19.848  1.00  0.00     0.213 C 
HETATM   18  O6  UNL     1      -9.437 -32.114  21.041  1.00  0.00    -0.644 OA
HETATM   19  O7  UNL     1      -8.720 -33.081  19.197  1.00  0.00    -0.644 OA
ENDBRANCH  12  17
BRANCH  11  20
HETATM   20  O5  UNL     1     -12.000 -33.487  19.382  1.00  0.00    -0.357 OA
ATOM     21  H5  UNL     1     -11.581 -33.684  20.211  1.00  0.00     0.217 HD
ENDBRANCH  11  20
BRANCH  10  22
HETATM   22  O4  UNL     1     -14.047 -32.391  17.819  1.00  0.00    -0.358 OA
ATOM     23  H4  UNL     1     -14.862 -31.911  17.908  1.00  0.00     0.217 HD
ENDBRANCH  10  22
BRANCH   1  24
HETATM   24  O1  UNL     1      -7.125 -27.917  19.038  1.00  0.00    -0.362 OA
HETATM   25  C1  UNL     1      -7.069 -26.972  20.060  1.00  0.00     0.205 C 
ENDBRANCH   1  24
TORSDOF 4
ENDMDL
