MODEL 4
REMARK VINA RESULT: -7.462349142      2.557      2.775
REMARK  4 active torsions:
REMARK  status: ('A' for Active; 'I' for Inactive)
REMARK    1  A    between atoms: O1_2  and  C2_3 
REMARK    2  A    between atoms: C9_12  and  O4_13 
REMARK    3  A    between atoms: C10_15  and  O5_16 
REMARK    4  A    between atoms: C11_18  and  C12_19 
ROOT
HETATM    1  C2  UNL     1      -7.717 -32.100  16.854  1.00  0.00     0.300 C 
HETATM    2  O2  UNL     1      -7.046 -32.433  15.702  1.00  0.00    -0.352 OA
HETATM    3  C3  UNL     1      -7.617 -32.050  14.526  1.00  0.00     0.127 C 
HETATM    4  C4  UNL     1      -8.079 -33.317  13.805  1.00  0.00     0.040 C 
HETATM    5  C5  UNL     1      -8.708 -31.039  14.597  1.00  0.00     0.097 C 
HETATM    6  C6  UNL     1      -8.423 -30.086  15.710  1.00  0.00     0.071 A 
HETATM    7  O3  UNL     1      -8.633 -28.792  15.625  1.00  0.00    -0.313 OA
HETATM    8  C7  UNL     1      -8.362 -28.006  16.643  1.00  0.00     0.093 A 
HETATM    9  C8  UNL     1      -8.602 -26.667  16.493  1.00  0.00     0.077 A 
HETATM   10  C9  UNL     1      -8.343 -25.771  17.515  1.00  0.00     0.102 A 
HETATM   11  C10 UNL     1      -7.840 -26.248  18.687  1.00  0.00     0.117 A 
HETATM   12  C11 UNL     1      -7.576 -27.637  18.882  1.00  0.00     0.093 A 
HETATM   13  C13 UNL     1      -7.843 -28.495  17.850  1.00  0.00     0.069 A 
HETATM   14  C14 UNL     1      -7.612 -29.851  17.965  1.00  0.00     0.199 A 
HETATM   15  O8  UNL     1      -7.157 -30.387  18.989  1.00  0.00    -0.287 OA
HETATM   16  C15 UNL     1      -7.919 -30.647  16.854  1.00  0.00     0.077 A 
ENDROOT
BRANCH  12  17
HETATM   17  C12 UNL     1      -7.046 -28.043  20.149  1.00  0.00     0.213 C 
HETATM   18  O6  UNL     1      -7.622 -28.250  21.195  1.00  0.00    -0.644 OA
HETATM   19  O7  UNL     1      -5.641 -28.242  20.233  1.00  0.00    -0.644 OA
ENDBRANCH  12  17
BRANCH  11  20
HETATM   20  O5  UNL     1      -7.572 -25.393  19.718  1.00  0.00    -0.357 OA
ATOM     21  H5  UNL     1      -6.826 -25.546  20.284  1.00  0.00     0.217 HD
ENDBRANCH  11  20
BRANCH  10  22
HETATM   22  O4  UNL     1      -8.608 -24.415  17.308  1.00  0.00    -0.358 OA
ATOM     23  H4  UNL     1      -9.484 -24.152  17.052  1.00  0.00     0.217 HD
ENDBRANCH  10  22
BRANCH   1  24
HETATM   24  O1  UNL     1      -7.031 -32.570  17.959  1.00  0.00    -0.362 OA
HETATM   25  C1  UNL     1      -7.747 -33.652  18.466  1.00  0.00     0.205 C 
ENDBRANCH   1  24
TORSDOF 4
ENDMDL
