MODEL 1
REMARK VINA RESULT: -7.904984729      0.000      0.000
REMARK  4 active torsions:
REMARK  status: ('A' for Active; 'I' for Inactive)
REMARK    1  A    between atoms: O1_2  and  C2_3 
REMARK    2  A    between atoms: C9_12  and  O4_13 
REMARK    3  A    between atoms: C10_15  and  O5_16 
REMARK    4  A    between atoms: C11_18  and  C12_19 
ROOT
HETATM    1  C2  UNL     1     -10.137 -31.588  19.556  1.00  0.00     0.300 C 
HETATM    2  O2  UNL     1      -9.967 -32.656  18.707  1.00  0.00    -0.352 OA
HETATM    3  C3  UNL     1     -10.777 -32.706  17.613  1.00  0.00     0.127 C 
HETATM    4  C4  UNL     1     -11.728 -33.889  17.799  1.00  0.00     0.040 C 
HETATM    5  C5  UNL     1     -11.519 -31.465  17.258  1.00  0.00     0.097 C 
HETATM    6  C6  UNL     1     -10.679 -30.278  17.593  1.00  0.00     0.071 A 
HETATM    7  O3  UNL     1     -10.595 -29.213  16.828  1.00  0.00    -0.313 OA
HETATM    8  C7  UNL     1      -9.837 -28.199  17.181  1.00  0.00     0.093 A 
HETATM    9  C8  UNL     1      -9.791 -27.118  16.342  1.00  0.00     0.077 A 
HETATM   10  C9  UNL     1      -9.017 -26.010  16.639  1.00  0.00     0.102 A 
HETATM   11  C10 UNL     1      -8.293 -26.011  17.791  1.00  0.00     0.117 A 
HETATM   12  C11 UNL     1      -8.314 -27.119  18.692  1.00  0.00     0.093 A 
HETATM   13  C13 UNL     1      -9.090 -28.199  18.367  1.00  0.00     0.069 A 
HETATM   14  C14 UNL     1      -9.159 -29.306  19.189  1.00  0.00     0.199 A 
HETATM   15  O8  UNL     1      -8.540 -29.408  20.260  1.00  0.00    -0.287 OA
HETATM   16  C15 UNL     1      -9.981 -30.359  18.770  1.00  0.00     0.077 A 
ENDROOT
BRANCH  12  17
HETATM   17  C12 UNL     1      -7.518 -27.028  19.879  1.00  0.00     0.213 C 
HETATM   18  O6  UNL     1      -7.801 -26.566  20.963  1.00  0.00    -0.644 OA
HETATM   19  O7  UNL     1      -6.195 -27.544  19.817  1.00  0.00    -0.644 OA
ENDBRANCH  12  17
BRANCH  11  20
HETATM   20  O5  UNL     1      -7.517 -24.935  18.117  1.00  0.00    -0.357 OA
ATOM     21  H5  UNL     1      -7.785 -24.345  18.811  1.00  0.00     0.217 HD
ENDBRANCH  11  20
BRANCH  10  22
HETATM   22  O4  UNL     1      -9.008 -24.934  15.748  1.00  0.00    -0.358 OA
ATOM     23  H4  UNL     1      -8.240 -24.793  15.205  1.00  0.00     0.217 HD
ENDBRANCH  10  22
BRANCH   1  24
HETATM   24  O1  UNL     1      -9.265 -31.685  20.624  1.00  0.00    -0.362 OA
HETATM   25  C1  UNL     1      -9.979 -32.208  21.700  1.00  0.00     0.205 C 
ENDBRANCH   1  24
TORSDOF 4
ENDMDL
