MODEL 5
REMARK VINA RESULT: -7.445858539      1.779      5.858
REMARK  4 active torsions:
REMARK  status: ('A' for Active; 'I' for Inactive)
REMARK    1  A    between atoms: O1_2  and  C2_3 
REMARK    2  A    between atoms: C9_12  and  O4_13 
REMARK    3  A    between atoms: C10_15  and  O5_16 
REMARK    4  A    between atoms: C11_18  and  C12_19 
ROOT
HETATM    1  C2  UNL     1      -7.672 -26.548  19.107  1.00  0.00     0.300 C 
HETATM    2  O2  UNL     1      -8.422 -25.800  18.231  1.00  0.00    -0.352 OA
HETATM    3  C3  UNL     1      -8.594 -26.310  16.980  1.00  0.00     0.127 C 
HETATM    4  C4  UNL     1      -7.824 -25.414  16.009  1.00  0.00     0.040 C 
HETATM    5  C5  UNL     1      -8.256 -27.746  16.777  1.00  0.00     0.097 C 
HETATM    6  C6  UNL     1      -8.586 -28.508  18.017  1.00  0.00     0.071 A 
HETATM    7  O3  UNL     1      -9.133 -29.702  18.006  1.00  0.00    -0.313 OA
HETATM    8  C7  UNL     1      -9.399 -30.321  19.134  1.00  0.00     0.093 A 
HETATM    9  C8  UNL     1      -9.970 -31.563  19.058  1.00  0.00     0.077 A 
HETATM   10  C9  UNL     1     -10.281 -32.282  20.199  1.00  0.00     0.102 A 
HETATM   11  C10 UNL     1     -10.009 -31.730  21.412  1.00  0.00     0.117 A 
HETATM   12  C11 UNL     1      -9.414 -30.437  21.534  1.00  0.00     0.093 A 
HETATM   13  C13 UNL     1      -9.119 -29.753  20.385  1.00  0.00     0.069 A 
HETATM   14  C14 UNL     1      -8.544 -28.499  20.425  1.00  0.00     0.199 A 
HETATM   15  O8  UNL     1      -8.256 -27.907  21.477  1.00  0.00    -0.287 OA
HETATM   16  C15 UNL     1      -8.280 -27.881  19.196  1.00  0.00     0.077 A 
ENDROOT
BRANCH  12  17
HETATM   17  C12 UNL     1      -9.166 -29.939  22.853  1.00  0.00     0.213 C 
HETATM   18  O6  UNL     1      -8.118 -29.832  23.452  1.00  0.00    -0.644 OA
HETATM   19  O7  UNL     1     -10.289 -29.496  23.603  1.00  0.00    -0.644 OA
ENDBRANCH  12  17
BRANCH  11  20
HETATM   20  O5  UNL     1     -10.303 -32.411  22.559  1.00  0.00    -0.357 OA
ATOM     21  H5  UNL     1      -9.673 -32.445  23.269  1.00  0.00     0.217 HD
ENDBRANCH  11  20
BRANCH  10  22
HETATM   22  O4  UNL     1     -10.862 -33.546  20.063  1.00  0.00    -0.358 OA
ATOM     23  H4  UNL     1     -11.753 -33.677  20.367  1.00  0.00     0.217 HD
ENDBRANCH  10  22
BRANCH   1  24
HETATM   24  O1  UNL     1      -7.568 -25.898  20.323  1.00  0.00    -0.362 OA
HETATM   25  C1  UNL     1      -7.663 -24.530  20.074  1.00  0.00     0.205 C 
ENDBRANCH   1  24
TORSDOF 4
ENDMDL
