MODEL 3
REMARK VINA RESULT: -7.832204133      1.364      5.788
REMARK  4 active torsions:
REMARK  status: ('A' for Active; 'I' for Inactive)
REMARK    1  A    between atoms: O1_2  and  C2_3 
REMARK    2  A    between atoms: C9_12  and  O4_13 
REMARK    3  A    between atoms: C10_15  and  O5_16 
REMARK    4  A    between atoms: C11_18  and  C12_19 
ROOT
HETATM    1  C2  UNL     1      -8.676 -27.501  18.357  1.00  0.00     0.300 C 
HETATM    2  O2  UNL     1      -9.439 -26.366  18.222  1.00  0.00    -0.352 OA
HETATM    3  C3  UNL     1     -10.039 -26.168  17.015  1.00  0.00     0.127 C 
HETATM    4  C4  UNL     1      -9.365 -24.962  16.360  1.00  0.00     0.040 C 
HETATM    5  C5  UNL     1     -10.094 -27.330  16.085  1.00  0.00     0.097 C 
HETATM    6  C6  UNL     1     -10.255 -28.585  16.875  1.00  0.00     0.071 A 
HETATM    7  O3  UNL     1     -11.039 -29.574  16.510  1.00  0.00    -0.313 OA
HETATM    8  C7  UNL     1     -11.136 -30.654  17.251  1.00  0.00     0.093 A 
HETATM    9  C8  UNL     1     -11.970 -31.649  16.818  1.00  0.00     0.077 A 
HETATM   10  C9  UNL     1     -12.130 -32.819  17.540  1.00  0.00     0.102 A 
HETATM   11  C10 UNL     1     -11.436 -32.968  18.701  1.00  0.00     0.117 A 
HETATM   12  C11 UNL     1     -10.557 -31.953  19.187  1.00  0.00     0.093 A 
HETATM   13  C13 UNL     1     -10.423 -30.808  18.449  1.00  0.00     0.069 A 
HETATM   14  C14 UNL     1      -9.592 -29.785  18.856  1.00  0.00     0.199 A 
HETATM   15  O8  UNL     1      -8.916 -29.819  19.897  1.00  0.00    -0.287 OA
HETATM   16  C15 UNL     1      -9.522 -28.655  18.032  1.00  0.00     0.077 A 
ENDROOT
BRANCH  12  17
HETATM   17  C12 UNL     1      -9.871 -32.200  20.420  1.00  0.00     0.213 C 
HETATM   18  O6  UNL     1     -10.209 -31.942  21.555  1.00  0.00    -0.644 OA
HETATM   19  O7  UNL     1      -8.606 -32.841  20.343  1.00  0.00    -0.644 OA
ENDBRANCH  12  17
BRANCH  11  20
HETATM   20  O5  UNL     1     -11.569 -34.109  19.440  1.00  0.00    -0.357 OA
ATOM     21  H5  UNL     1     -12.317 -34.680  19.307  1.00  0.00     0.217 HD
ENDBRANCH  11  20
BRANCH  10  22
HETATM   22  O4  UNL     1     -12.994 -33.803  17.050  1.00  0.00    -0.358 OA
ATOM     23  H4  UNL     1     -12.670 -34.691  16.953  1.00  0.00     0.217 HD
ENDBRANCH  10  22
BRANCH   1  24
HETATM   24  O1  UNL     1      -8.118 -27.554  19.621  1.00  0.00    -0.362 OA
HETATM   25  C1  UNL     1      -7.611 -26.289  19.908  1.00  0.00     0.205 C 
ENDBRANCH   1  24
TORSDOF 4
ENDMDL
