MODEL 17
REMARK VINA RESULT: -9.171877606      3.535      4.700
REMARK  10 active torsions:
REMARK  status: ('A' for Active; 'I' for Inactive)
REMARK    1  A    between atoms: O1_2  and  C2_3 
REMARK    2  A    between atoms: C2_3  and  C3_5 
REMARK    3  A    between atoms: C3_5  and  C4_6 
REMARK    4  A    between atoms: C3_5  and  C12_18 
REMARK    5  A    between atoms: C4_6  and  C5_7 
REMARK    6  A    between atoms: C9_11  and  C10_12 
REMARK    7  A    between atoms: C12_18  and  N3_20 
REMARK       I    between atoms: N3_20  and  C14_22 
REMARK    8  A    between atoms: C14_22  and  C15_24 
REMARK    9  A    between atoms: C18_27  and  C19_28 
REMARK   10  A    between atoms: N4_31  and  O4_32 
ROOT
HETATM    1  C12 UNL     1       4.490   5.575  20.143  1.00  0.00     0.094 C 
HETATM    2  C13 UNL     1       3.865   6.440  19.113  1.00  0.00     0.033 C 
ENDROOT
BRANCH   1   3
HETATM    3  C3  UNL     1       5.226   6.286  21.247  1.00  0.00     0.112 C 
BRANCH   3   4
HETATM    4  C2  UNL     1       6.695   6.228  21.073  1.00  0.00     0.265 C 
HETATM    5  O2  UNL     1       7.371   5.340  21.625  1.00  0.00    -0.265 OA
BRANCH   4   6
HETATM    6  O1  UNL     1       7.341   7.177  20.283  1.00  0.00    -0.326 OA
HETATM    7  C1  UNL     1       7.113   8.576  20.441  1.00  0.00     0.213 C 
ENDBRANCH   4   6
ENDBRANCH   3   4
BRANCH   3   8
HETATM    8  C4  UNL     1       4.752   5.955  22.615  1.00  0.00     0.055 C 
BRANCH   8   9
HETATM    9  C5  UNL     1       4.498   7.079  23.517  1.00  0.00    -0.056 A 
HETATM   10  C6  UNL     1       5.586   7.815  23.980  1.00  0.00     0.007 A 
HETATM   11  C7  UNL     1       5.421   8.899  24.810  1.00  0.00     0.002 A 
HETATM   12  C8  UNL     1       4.146   9.264  25.191  1.00  0.00     0.015 A 
HETATM   13  C9  UNL     1       3.046   8.532  24.733  1.00  0.00     0.005 A 
HETATM   14  C11 UNL     1       3.213   7.451  23.904  1.00  0.00     0.022 A 
BRANCH  13  15
HETATM   15  C10 UNL     1       1.729   8.956  25.156  1.00  0.00     0.120 C 
HETATM   16  N1  UNL     1       1.045   9.987  24.441  1.00  0.00    -0.082 NA
HETATM   17  N2  UNL     1       1.120   8.451  26.157  1.00  0.00    -0.387 N 
ATOM     18  H22 UNL     1       1.608   7.715  26.667  1.00  0.00     0.157 HD
ATOM     19  H21 UNL     1       0.191   8.749  26.456  1.00  0.00     0.157 HD
ENDBRANCH  13  15
ENDBRANCH   8   9
ENDBRANCH   3   8
ENDBRANCH   1   3
BRANCH   1  20
HETATM   20  N3  UNL     1       5.388   4.558  19.596  1.00  0.00    -0.352 N 
HETATM   21  C14 UNL     1       5.261   3.180  19.851  1.00  0.00     0.252 C 
HETATM   22  O3  UNL     1       4.307   2.815  20.596  1.00  0.00    -0.268 OA
ATOM     23  H3  UNL     1       6.152   4.865  18.994  1.00  0.00     0.163 HD
BRANCH  21  24
HETATM   24  C15 UNL     1       6.170   2.200  19.295  1.00  0.00     0.032 A 
HETATM   25  C16 UNL     1       5.744   1.385  18.271  1.00  0.00     0.018 A 
HETATM   26  C17 UNL     1       6.593   0.422  17.708  1.00  0.00     0.013 A 
HETATM   27  C18 UNL     1       7.877   0.275  18.175  1.00  0.00    -0.026 A 
HETATM   28  C24 UNL     1       8.300   1.090  19.198  1.00  0.00     0.013 A 
HETATM   29  C25 UNL     1       7.452   2.055  19.763  1.00  0.00     0.018 A 
BRANCH  27  30
HETATM   30  C19 UNL     1       8.763  -0.729  17.598  1.00  0.00    -0.023 A 
HETATM   31  C20 UNL     1       8.349  -1.581  16.586  1.00  0.00     0.032 A 
HETATM   32  C21 UNL     1       9.258  -2.497  16.109  1.00  0.00     0.123 A 
HETATM   33  N4  UNL     1      10.520  -2.614  16.560  1.00  0.00    -0.247 N 
HETATM   34  C22 UNL     1      10.938  -1.794  17.542  1.00  0.00     0.123 A 
HETATM   35  C23 UNL     1      10.058  -0.865  18.046  1.00  0.00     0.032 A 
BRANCH  33  36
HETATM   36  O4  UNL     1      11.406  -3.550  16.046  1.00  0.00    -0.284 OA
ATOM     37  H4  UNL     1      11.507  -3.694  15.113  1.00  0.00     0.245 HD
ENDBRANCH  33  36
ENDBRANCH  27  30
ENDBRANCH  21  24
ENDBRANCH   1  20
TORSDOF 10
ENDMDL
