MODEL 15
REMARK VINA RESULT: -9.209521853      2.719      4.524
REMARK  10 active torsions:
REMARK  status: ('A' for Active; 'I' for Inactive)
REMARK    1  A    between atoms: O1_2  and  C2_3 
REMARK    2  A    between atoms: C2_3  and  C3_5 
REMARK    3  A    between atoms: C3_5  and  C4_6 
REMARK    4  A    between atoms: C3_5  and  C12_18 
REMARK    5  A    between atoms: C4_6  and  C5_7 
REMARK    6  A    between atoms: C9_11  and  C10_12 
REMARK    7  A    between atoms: C12_18  and  N3_20 
REMARK       I    between atoms: N3_20  and  C14_22 
REMARK    8  A    between atoms: C14_22  and  C15_24 
REMARK    9  A    between atoms: C18_27  and  C19_28 
REMARK   10  A    between atoms: N4_31  and  O4_32 
ROOT
HETATM    1  C12 UNL     1       5.181   4.051  21.623  1.00  0.00     0.094 C 
HETATM    2  C13 UNL     1       4.195   3.668  22.662  1.00  0.00     0.033 C 
ENDROOT
BRANCH   1   3
HETATM    3  C3  UNL     1       4.837   5.261  20.796  1.00  0.00     0.112 C 
BRANCH   3   4
HETATM    4  C2  UNL     1       4.163   4.903  19.528  1.00  0.00     0.265 C 
HETATM    5  O2  UNL     1       2.954   4.604  19.508  1.00  0.00    -0.265 OA
BRANCH   4   6
HETATM    6  O1  UNL     1       4.881   4.897  18.334  1.00  0.00    -0.326 OA
HETATM    7  C1  UNL     1       4.509   4.073  17.231  1.00  0.00     0.213 C 
ENDBRANCH   4   6
ENDBRANCH   3   4
BRANCH   3   8
HETATM    8  C4  UNL     1       5.942   6.243  20.653  1.00  0.00     0.055 C 
BRANCH   8   9
HETATM    9  C5  UNL     1       6.219   7.099  21.806  1.00  0.00    -0.056 A 
HETATM   10  C6  UNL     1       5.148   7.522  22.590  1.00  0.00     0.007 A 
HETATM   11  C7  UNL     1       5.336   8.307  23.704  1.00  0.00     0.002 A 
HETATM   12  C8  UNL     1       6.617   8.684  24.050  1.00  0.00     0.015 A 
HETATM   13  C9  UNL     1       7.701   8.267  23.270  1.00  0.00     0.005 A 
HETATM   14  C11 UNL     1       7.510   7.483  22.160  1.00  0.00     0.022 A 
BRANCH  13  15
HETATM   15  C10 UNL     1       9.025   8.684  23.675  1.00  0.00     0.120 C 
HETATM   16  N1  UNL     1       9.496   8.390  24.992  1.00  0.00    -0.082 NA
HETATM   17  N2  UNL     1       9.825   9.316  22.908  1.00  0.00    -0.387 N 
ATOM     18  H22 UNL     1       9.489   9.525  21.968  1.00  0.00     0.157 HD
ATOM     19  H21 UNL     1      10.759   9.610  23.193  1.00  0.00     0.157 HD
ENDBRANCH  13  15
ENDBRANCH   8   9
ENDBRANCH   3   8
ENDBRANCH   1   3
BRANCH   1  20
HETATM   20  N3  UNL     1       5.522   2.967  20.702  1.00  0.00    -0.352 N 
HETATM   21  C14 UNL     1       6.825   2.708  20.241  1.00  0.00     0.252 C 
HETATM   22  O3  UNL     1       7.748   3.464  20.660  1.00  0.00    -0.268 OA
ATOM     23  H3  UNL     1       4.768   2.363  20.373  1.00  0.00     0.163 HD
BRANCH  21  24
HETATM   24  C15 UNL     1       7.126   1.628  19.326  1.00  0.00     0.032 A 
HETATM   25  C16 UNL     1       8.410   1.138  19.255  1.00  0.00     0.018 A 
HETATM   26  C17 UNL     1       8.742   0.095  18.379  1.00  0.00     0.013 A 
HETATM   27  C18 UNL     1       7.781  -0.462  17.571  1.00  0.00    -0.026 A 
HETATM   28  C24 UNL     1       6.498   0.028  17.644  1.00  0.00     0.013 A 
HETATM   29  C25 UNL     1       6.164   1.073  18.519  1.00  0.00     0.018 A 
BRANCH  27  30
HETATM   30  C19 UNL     1       8.122  -1.543  16.654  1.00  0.00    -0.023 A 
HETATM   31  C20 UNL     1       7.186  -2.113  15.806  1.00  0.00     0.032 A 
HETATM   32  C21 UNL     1       7.604  -3.130  14.980  1.00  0.00     0.123 A 
HETATM   33  N4  UNL     1       8.864  -3.602  14.943  1.00  0.00    -0.247 N 
HETATM   34  C22 UNL     1       9.786  -3.060  15.760  1.00  0.00     0.123 A 
HETATM   35  C23 UNL     1       9.405  -2.041  16.602  1.00  0.00     0.032 A 
BRANCH  33  36
HETATM   36  O4  UNL     1       9.246  -4.628  14.090  1.00  0.00    -0.284 OA
ATOM     37  H4  UNL     1       8.705  -5.395  13.946  1.00  0.00     0.245 HD
ENDBRANCH  33  36
ENDBRANCH  27  30
ENDBRANCH  21  24
ENDBRANCH   1  20
TORSDOF 10
ENDMDL
