MODEL 1
REMARK VINA RESULT: -10.701674856      0.000      0.000
REMARK  10 active torsions:
REMARK  status: ('A' for Active; 'I' for Inactive)
REMARK    1  A    between atoms: O1_2  and  C2_3 
REMARK    2  A    between atoms: C2_3  and  C3_5 
REMARK    3  A    between atoms: C3_5  and  C4_6 
REMARK    4  A    between atoms: C3_5  and  C12_18 
REMARK    5  A    between atoms: C4_6  and  C5_7 
REMARK    6  A    between atoms: C9_11  and  C10_12 
REMARK    7  A    between atoms: C12_18  and  N3_20 
REMARK       I    between atoms: N3_20  and  C14_22 
REMARK    8  A    between atoms: C14_22  and  C15_24 
REMARK    9  A    between atoms: C18_27  and  C19_28 
REMARK   10  A    between atoms: N4_31  and  O4_32 
ROOT
HETATM    1  C12 UNL     1       4.616   6.621  23.275  1.00  0.00     0.094 C 
HETATM    2  C13 UNL     1       3.584   7.438  22.592  1.00  0.00     0.033 C 
ENDROOT
BRANCH   1   3
HETATM    3  C3  UNL     1       5.657   7.383  24.051  1.00  0.00     0.112 C 
BRANCH   3   4
HETATM    4  C2  UNL     1       5.059   8.390  24.957  1.00  0.00     0.265 C 
HETATM    5  O2  UNL     1       5.548   9.531  25.058  1.00  0.00    -0.265 OA
BRANCH   4   6
HETATM    6  O1  UNL     1       3.934   8.067  25.713  1.00  0.00    -0.326 OA
HETATM    7  C1  UNL     1       2.866   8.992  25.912  1.00  0.00     0.213 C 
ENDBRANCH   4   6
ENDBRANCH   3   4
BRANCH   3   8
HETATM    8  C4  UNL     1       6.791   7.883  23.233  1.00  0.00     0.055 C 
BRANCH   8   9
HETATM    9  C5  UNL     1       8.051   8.133  23.933  1.00  0.00    -0.056 A 
HETATM   10  C6  UNL     1       8.951   9.037  23.374  1.00  0.00     0.007 A 
HETATM   11  C7  UNL     1      10.143   9.341  23.989  1.00  0.00     0.002 A 
HETATM   12  C8  UNL     1      10.452   8.734  25.189  1.00  0.00     0.015 A 
HETATM   13  C9  UNL     1       9.557   7.823  25.760  1.00  0.00     0.005 A 
HETATM   14  C11 UNL     1       8.367   7.523  25.144  1.00  0.00     0.022 A 
BRANCH  13  15
HETATM   15  C10 UNL     1       9.923   7.216  27.020  1.00  0.00     0.120 C 
HETATM   16  N1  UNL     1      11.300   7.092  27.382  1.00  0.00    -0.082 NA
HETATM   17  N2  UNL     1       9.068   6.771  27.857  1.00  0.00    -0.387 N 
ATOM     18  H22 UNL     1       8.085   6.859  27.599  1.00  0.00     0.157 HD
ATOM     19  H21 UNL     1       9.326   6.342  28.746  1.00  0.00     0.157 HD
ENDBRANCH  13  15
ENDBRANCH   8   9
ENDBRANCH   3   8
ENDBRANCH   1   3
BRANCH   1  20
HETATM   20  N3  UNL     1       5.316   5.690  22.391  1.00  0.00    -0.352 N 
HETATM   21  C14 UNL     1       5.004   4.323  22.283  1.00  0.00     0.252 C 
HETATM   22  O3  UNL     1       4.056   3.888  22.998  1.00  0.00    -0.268 OA
ATOM     23  H3  UNL     1       6.077   6.054  21.817  1.00  0.00     0.163 HD
BRANCH  21  24
HETATM   24  C15 UNL     1       5.720   3.429  21.399  1.00  0.00     0.032 A 
HETATM   25  C16 UNL     1       5.171   2.207  21.082  1.00  0.00     0.018 A 
HETATM   26  C17 UNL     1       5.835   1.312  20.231  1.00  0.00     0.013 A 
HETATM   27  C18 UNL     1       7.056   1.644  19.695  1.00  0.00    -0.026 A 
HETATM   28  C24 UNL     1       7.601   2.865  20.012  1.00  0.00     0.013 A 
HETATM   29  C25 UNL     1       6.939   3.763  20.864  1.00  0.00     0.018 A 
BRANCH  27  30
HETATM   30  C19 UNL     1       7.753   0.714  18.814  1.00  0.00    -0.023 A 
HETATM   31  C20 UNL     1       9.121   0.506  18.898  1.00  0.00     0.032 A 
HETATM   32  C21 UNL     1       9.687  -0.390  18.021  1.00  0.00     0.123 A 
HETATM   33  N4  UNL     1       8.997  -1.076  17.092  1.00  0.00    -0.247 N 
HETATM   34  C22 UNL     1       7.668  -0.887  16.998  1.00  0.00     0.123 A 
HETATM   35  C23 UNL     1       7.065   0.002  17.857  1.00  0.00     0.032 A 
BRANCH  33  36
HETATM   36  O4  UNL     1       9.607  -1.975  16.229  1.00  0.00    -0.284 OA
ATOM     37  H4  UNL     1      10.011  -2.778  16.536  1.00  0.00     0.245 HD
ENDBRANCH  33  36
ENDBRANCH  27  30
ENDBRANCH  21  24
ENDBRANCH   1  20
TORSDOF 10
ENDMDL
