MODEL 10
REMARK VINA RESULT: -9.575549839      3.203      4.351
REMARK  10 active torsions:
REMARK  status: ('A' for Active; 'I' for Inactive)
REMARK    1  A    between atoms: O1_2  and  C2_3 
REMARK    2  A    between atoms: C2_3  and  C3_5 
REMARK    3  A    between atoms: C3_5  and  C4_6 
REMARK    4  A    between atoms: C3_5  and  C12_18 
REMARK    5  A    between atoms: C4_6  and  C5_7 
REMARK    6  A    between atoms: C9_11  and  C10_12 
REMARK    7  A    between atoms: C12_18  and  N3_20 
REMARK       I    between atoms: N3_20  and  C14_22 
REMARK    8  A    between atoms: C14_22  and  C15_24 
REMARK    9  A    between atoms: C18_27  and  C19_28 
REMARK   10  A    between atoms: N4_31  and  O4_32 
ROOT
HETATM    1  C12 UNL     1       4.135   5.329  20.511  1.00  0.00     0.094 C 
HETATM    2  C13 UNL     1       3.627   6.235  19.453  1.00  0.00     0.033 C 
ENDROOT
BRANCH   1   3
HETATM    3  C3  UNL     1       4.660   5.992  21.757  1.00  0.00     0.112 C 
BRANCH   3   4
HETATM    4  C2  UNL     1       4.235   5.291  22.989  1.00  0.00     0.265 C 
HETATM    5  O2  UNL     1       3.821   5.926  23.978  1.00  0.00    -0.265 OA
BRANCH   4   6
HETATM    6  O1  UNL     1       4.296   3.900  23.056  1.00  0.00    -0.326 OA
HETATM    7  C1  UNL     1       3.148   3.106  23.351  1.00  0.00     0.213 C 
ENDBRANCH   4   6
ENDBRANCH   3   4
BRANCH   3   8
HETATM    8  C4  UNL     1       4.480   7.466  21.791  1.00  0.00     0.055 C 
BRANCH   8   9
HETATM    9  C5  UNL     1       5.695   8.280  21.752  1.00  0.00    -0.056 A 
HETATM   10  C6  UNL     1       6.600   8.171  22.805  1.00  0.00     0.007 A 
HETATM   11  C7  UNL     1       7.775   8.887  22.823  1.00  0.00     0.002 A 
HETATM   12  C8  UNL     1       8.060   9.733  21.771  1.00  0.00     0.015 A 
HETATM   13  C9  UNL     1       7.158   9.852  20.708  1.00  0.00     0.005 A 
HETATM   14  C11 UNL     1       5.987   9.136  20.693  1.00  0.00     0.022 A 
BRANCH  13  15
HETATM   15  C10 UNL     1       7.503  10.748  19.626  1.00  0.00     0.120 C 
HETATM   16  N1  UNL     1       8.284  11.916  19.886  1.00  0.00    -0.082 NA
HETATM   17  N2  UNL     1       7.145  10.555  18.417  1.00  0.00    -0.387 N 
ATOM     18  H22 UNL     1       6.588   9.722  18.231  1.00  0.00     0.157 HD
ATOM     19  H21 UNL     1       7.388  11.187  17.654  1.00  0.00     0.157 HD
ENDBRANCH  13  15
ENDBRANCH   8   9
ENDBRANCH   3   8
ENDBRANCH   1   3
BRANCH   1  20
HETATM   20  N3  UNL     1       5.156   4.389  20.046  1.00  0.00    -0.352 N 
HETATM   21  C14 UNL     1       4.893   3.052  19.699  1.00  0.00     0.252 C 
HETATM   22  O3  UNL     1       3.697   2.654  19.797  1.00  0.00    -0.268 OA
ATOM     23  H3  UNL     1       6.116   4.724  19.969  1.00  0.00     0.163 HD
BRANCH  21  24
HETATM   24  C15 UNL     1       5.928   2.149  19.245  1.00  0.00     0.032 A 
HETATM   25  C16 UNL     1       5.667   1.287  18.204  1.00  0.00     0.018 A 
HETATM   26  C17 UNL     1       6.643   0.395  17.737  1.00  0.00     0.013 A 
HETATM   27  C18 UNL     1       7.888   0.366  18.318  1.00  0.00    -0.026 A 
HETATM   28  C24 UNL     1       8.146   1.228  19.358  1.00  0.00     0.013 A 
HETATM   29  C25 UNL     1       7.172   2.121  19.827  1.00  0.00     0.018 A 
BRANCH  27  30
HETATM   30  C19 UNL     1       8.904  -0.564  17.841  1.00  0.00    -0.023 A 
HETATM   31  C20 UNL     1       8.668  -1.438  16.792  1.00  0.00     0.032 A 
HETATM   32  C21 UNL     1       9.690  -2.279  16.416  1.00  0.00     0.123 A 
HETATM   33  N4  UNL     1      10.901  -2.303  17.001  1.00  0.00    -0.247 N 
HETATM   34  C22 UNL     1      11.148  -1.460  18.021  1.00  0.00     0.123 A 
HETATM   35  C23 UNL     1      10.151  -0.603  18.426  1.00  0.00     0.032 A 
BRANCH  33  36
HETATM   36  O4  UNL     1      11.907  -3.165  16.588  1.00  0.00    -0.284 OA
ATOM     37  H4  UNL     1      12.822  -2.912  16.585  1.00  0.00     0.245 HD
ENDBRANCH  33  36
ENDBRANCH  27  30
ENDBRANCH  21  24
ENDBRANCH   1  20
TORSDOF 10
ENDMDL
