MODEL 2
REMARK VINA RESULT: -10.577984621      0.311      1.197
REMARK  10 active torsions:
REMARK  status: ('A' for Active; 'I' for Inactive)
REMARK    1  A    between atoms: O1_2  and  C2_3 
REMARK    2  A    between atoms: C2_3  and  C3_5 
REMARK    3  A    between atoms: C3_5  and  C4_6 
REMARK    4  A    between atoms: C3_5  and  C12_18 
REMARK    5  A    between atoms: C4_6  and  C5_7 
REMARK    6  A    between atoms: C9_11  and  C10_12 
REMARK    7  A    between atoms: C12_18  and  N3_20 
REMARK       I    between atoms: N3_20  and  C14_22 
REMARK    8  A    between atoms: C14_22  and  C15_24 
REMARK    9  A    between atoms: C18_27  and  C19_28 
REMARK   10  A    between atoms: N4_31  and  O4_32 
ROOT
HETATM    1  C12 UNL     1       4.366   6.654  23.508  1.00  0.00     0.094 C 
HETATM    2  C13 UNL     1       3.300   7.450  22.853  1.00  0.00     0.033 C 
ENDROOT
BRANCH   1   3
HETATM    3  C3  UNL     1       5.436   7.438  24.220  1.00  0.00     0.112 C 
BRANCH   3   4
HETATM    4  C2  UNL     1       4.874   8.485  25.102  1.00  0.00     0.265 C 
HETATM    5  O2  UNL     1       5.312   9.651  25.073  1.00  0.00    -0.265 OA
BRANCH   4   6
HETATM    6  O1  UNL     1       3.838   8.174  25.982  1.00  0.00    -0.326 OA
HETATM    7  C1  UNL     1       2.619   8.914  26.007  1.00  0.00     0.213 C 
ENDBRANCH   4   6
ENDBRANCH   3   4
BRANCH   3   8
HETATM    8  C4  UNL     1       6.547   7.895  23.348  1.00  0.00     0.055 C 
BRANCH   8   9
HETATM    9  C5  UNL     1       7.837   8.137  23.994  1.00  0.00    -0.056 A 
HETATM   10  C6  UNL     1       8.724   9.024  23.389  1.00  0.00     0.007 A 
HETATM   11  C7  UNL     1       9.944   9.320  23.953  1.00  0.00     0.002 A 
HETATM   12  C8  UNL     1      10.294   8.721  25.145  1.00  0.00     0.015 A 
HETATM   13  C9  UNL     1       9.412   7.828  25.762  1.00  0.00     0.005 A 
HETATM   14  C11 UNL     1       8.195   7.535  25.198  1.00  0.00     0.022 A 
BRANCH  13  15
HETATM   15  C10 UNL     1       9.822   7.229  27.013  1.00  0.00     0.120 C 
HETATM   16  N1  UNL     1      11.206   7.177  27.362  1.00  0.00    -0.082 NA
HETATM   17  N2  UNL     1       9.000   6.730  27.852  1.00  0.00    -0.387 N 
ATOM     18  H22 UNL     1       8.011   6.767  27.604  1.00  0.00     0.157 HD
ATOM     19  H21 UNL     1       9.288   6.307  28.735  1.00  0.00     0.157 HD
ENDBRANCH  13  15
ENDBRANCH   8   9
ENDBRANCH   3   8
ENDBRANCH   1   3
BRANCH   1  20
HETATM   20  N3  UNL     1       5.032   5.706  22.615  1.00  0.00    -0.352 N 
HETATM   21  C14 UNL     1       4.685   4.347  22.511  1.00  0.00     0.252 C 
HETATM   22  O3  UNL     1       3.737   3.935  23.239  1.00  0.00    -0.268 OA
ATOM     23  H3  UNL     1       5.793   6.052  22.031  1.00  0.00     0.163 HD
BRANCH  21  24
HETATM   24  C15 UNL     1       5.368   3.436  21.618  1.00  0.00     0.032 A 
HETATM   25  C16 UNL     1       6.533   3.836  21.004  1.00  0.00     0.018 A 
HETATM   26  C17 UNL     1       7.223   2.984  20.130  1.00  0.00     0.013 A 
HETATM   27  C18 UNL     1       6.741   1.723  19.869  1.00  0.00    -0.026 A 
HETATM   28  C24 UNL     1       5.577   1.326  20.484  1.00  0.00     0.013 A 
HETATM   29  C25 UNL     1       4.885   2.177  21.359  1.00  0.00     0.018 A 
BRANCH  27  30
HETATM   30  C19 UNL     1       7.451   0.836  18.956  1.00  0.00    -0.023 A 
HETATM   31  C20 UNL     1       6.797   0.128  17.960  1.00  0.00     0.032 A 
HETATM   32  C21 UNL     1       7.554  -0.686  17.150  1.00  0.00     0.123 A 
HETATM   33  N4  UNL     1       8.887  -0.835  17.264  1.00  0.00    -0.247 N 
HETATM   34  C22 UNL     1       9.537  -0.155  18.226  1.00  0.00     0.123 A 
HETATM   35  C23 UNL     1       8.815   0.669  19.056  1.00  0.00     0.032 A 
BRANCH  33  36
HETATM   36  O4  UNL     1       9.614  -1.664  16.422  1.00  0.00    -0.284 OA
ATOM     37  H4  UNL     1      10.355  -1.351  15.918  1.00  0.00     0.245 HD
ENDBRANCH  33  36
ENDBRANCH  27  30
ENDBRANCH  21  24
ENDBRANCH   1  20
TORSDOF 10
ENDMDL
