MODEL 3
REMARK VINA RESULT: -10.472712427      1.172      1.704
REMARK  10 active torsions:
REMARK  status: ('A' for Active; 'I' for Inactive)
REMARK    1  A    between atoms: O1_2  and  C2_3 
REMARK    2  A    between atoms: C2_3  and  C3_5 
REMARK    3  A    between atoms: C3_5  and  C4_6 
REMARK    4  A    between atoms: C3_5  and  C12_18 
REMARK    5  A    between atoms: C4_6  and  C5_7 
REMARK    6  A    between atoms: C9_11  and  C10_12 
REMARK    7  A    between atoms: C12_18  and  N3_20 
REMARK       I    between atoms: N3_20  and  C14_22 
REMARK    8  A    between atoms: C14_22  and  C15_24 
REMARK    9  A    between atoms: C18_27  and  C19_28 
REMARK   10  A    between atoms: N4_31  and  O4_32 
ROOT
HETATM    1  C12 UNL     1       5.599   7.641  21.870  1.00  0.00     0.094 C 
HETATM    2  C13 UNL     1       5.806   8.898  21.110  1.00  0.00     0.033 C 
ENDROOT
BRANCH   1   3
HETATM    3  C3  UNL     1       6.096   7.636  23.291  1.00  0.00     0.112 C 
BRANCH   3   4
HETATM    4  C2  UNL     1       5.072   7.149  24.243  1.00  0.00     0.265 C 
HETATM    5  O2  UNL     1       4.552   6.026  24.105  1.00  0.00    -0.265 OA
BRANCH   4   6
HETATM    6  O1  UNL     1       4.678   7.950  25.313  1.00  0.00    -0.326 OA
HETATM    7  C1  UNL     1       3.316   8.315  25.523  1.00  0.00     0.213 C 
ENDBRANCH   4   6
ENDBRANCH   3   4
BRANCH   3   8
HETATM    8  C4  UNL     1       6.782   8.885  23.707  1.00  0.00     0.055 C 
BRANCH   8   9
HETATM    9  C5  UNL     1       8.134   8.748  24.249  1.00  0.00    -0.056 A 
HETATM   10  C6  UNL     1       9.181   9.386  23.590  1.00  0.00     0.007 A 
HETATM   11  C7  UNL     1      10.473   9.321  24.057  1.00  0.00     0.002 A 
HETATM   12  C8  UNL     1      10.735   8.605  25.207  1.00  0.00     0.015 A 
HETATM   13  C9  UNL     1       9.692   7.959  25.878  1.00  0.00     0.005 A 
HETATM   14  C11 UNL     1       8.403   8.026  25.410  1.00  0.00     0.022 A 
BRANCH  13  15
HETATM   15  C10 UNL     1      10.014   7.225  27.082  1.00  0.00     0.120 C 
HETATM   16  N1  UNL     1      11.380   7.024  27.453  1.00  0.00    -0.082 NA
HETATM   17  N2  UNL     1       9.131   6.730  27.858  1.00  0.00    -0.387 N 
ATOM     18  H22 UNL     1       8.156   6.873  27.593  1.00  0.00     0.157 HD
ATOM     19  H21 UNL     1       9.358   6.212  28.707  1.00  0.00     0.157 HD
ENDBRANCH  13  15
ENDBRANCH   8   9
ENDBRANCH   3   8
ENDBRANCH   1   3
BRANCH   1  20
HETATM   20  N3  UNL     1       6.138   6.453  21.208  1.00  0.00    -0.352 N 
HETATM   21  C14 UNL     1       5.358   5.351  20.813  1.00  0.00     0.252 C 
HETATM   22  O3  UNL     1       4.117   5.407  21.049  1.00  0.00    -0.268 OA
ATOM     23  H3  UNL     1       7.140   6.422  21.021  1.00  0.00     0.163 HD
BRANCH  21  24
HETATM   24  C15 UNL     1       5.925   4.190  20.163  1.00  0.00     0.032 A 
HETATM   25  C16 UNL     1       7.177   3.751  20.532  1.00  0.00     0.018 A 
HETATM   26  C17 UNL     1       7.762   2.632  19.923  1.00  0.00     0.013 A 
HETATM   27  C18 UNL     1       7.089   1.948  18.940  1.00  0.00    -0.026 A 
HETATM   28  C24 UNL     1       5.838   2.388  18.574  1.00  0.00     0.013 A 
HETATM   29  C25 UNL     1       5.251   3.508  19.181  1.00  0.00     0.018 A 
BRANCH  27  30
HETATM   30  C19 UNL     1       7.695   0.787  18.300  1.00  0.00    -0.023 A 
HETATM   31  C20 UNL     1       6.996  -0.012  17.409  1.00  0.00     0.032 A 
HETATM   32  C21 UNL     1       7.655  -1.087  16.859  1.00  0.00     0.123 A 
HETATM   33  N4  UNL     1       8.933  -1.408  17.131  1.00  0.00    -0.247 N 
HETATM   34  C22 UNL     1       9.627  -0.643  17.994  1.00  0.00     0.123 A 
HETATM   35  C23 UNL     1       9.002   0.441  18.565  1.00  0.00     0.032 A 
BRANCH  33  36
HETATM   36  O4  UNL     1       9.562  -2.500  16.550  1.00  0.00    -0.284 OA
ATOM     37  H4  UNL     1      10.486  -2.681  16.679  1.00  0.00     0.245 HD
ENDBRANCH  33  36
ENDBRANCH  27  30
ENDBRANCH  21  24
ENDBRANCH   1  20
TORSDOF 10
ENDMDL
