MODEL 2
REMARK VINA RESULT: -9.272695408      0.369      1.089
REMARK  3 active torsions:
REMARK  status: ('A' for Active; 'I' for Inactive)
REMARK    1  A    between atoms: C2_5  and  C3_6 
REMARK    2  A    between atoms: C8_11  and  N3_12 
REMARK       I    between atoms: N3_12  and  C9_14 
REMARK       I    between atoms: C9_14  and  N4_16 
REMARK    3  A    between atoms: N4_16  and  C10_18 
ROOT
HETATM    1  N3  UNL     1      32.474  32.832  13.512  1.00  0.00    -0.293 N 
ATOM      2  H3  UNL     1      33.014  32.009  13.246  1.00  0.00     0.172 HD
HETATM    3  C9  UNL     1      32.969  33.645  14.580  1.00  0.00     0.326 C 
HETATM    4  O1  UNL     1      32.314  34.645  14.868  1.00  0.00    -0.247 OA
HETATM    5  N4  UNL     1      34.141  33.306  15.272  1.00  0.00    -0.309 N 
ATOM      6  H4  UNL     1      34.644  32.478  14.956  1.00  0.00     0.170 HD
ENDROOT
BRANCH   1   7
HETATM    7  C8  UNL     1      31.278  33.101  12.802  1.00  0.00     0.127 A 
HETATM    8  N1  UNL     1      30.537  32.032  12.333  1.00  0.00    -0.281 N 
HETATM    9  C1  UNL     1      30.842  30.634  12.607  1.00  0.00     0.179 C 
HETATM   10  N2  UNL     1      29.514  32.512  11.657  1.00  0.00    -0.301 N 
HETATM   11  C2  UNL     1      29.544  33.871  11.652  1.00  0.00     0.037 A 
ATOM     12  H2  UNL     1      28.800  31.945  11.200  1.00  0.00     0.187 HD
HETATM   13  C7  UNL     1      30.646  34.241  12.369  1.00  0.00     0.077 A 
BRANCH  11  14
HETATM   14  C3  UNL     1      28.508  34.696  10.967  1.00  0.00    -0.007 C 
HETATM   15  C4  UNL     1      27.127  34.190  11.387  1.00  0.00     0.021 C 
HETATM   16  C5  UNL     1      28.712  34.526   9.477  1.00  0.00     0.021 C 
HETATM   17  C6  UNL     1      28.633  36.151  11.318  1.00  0.00     0.021 C 
ENDBRANCH  11  14
ENDBRANCH   1   7
BRANCH   5  18
HETATM   18  C10 UNL     1      34.681  34.009  16.364  1.00  0.00     0.036 A 
HETATM   19  C11 UNL     1      35.958  34.482  16.460  1.00  0.00     0.031 A 
HETATM   20  C12 UNL     1      36.385  35.204  17.542  1.00  0.00     0.026 A 
HETATM   21  C13 UNL     1      35.553  35.492  18.588  1.00  0.00     0.034 A 
HETATM   22 CL1  UNL     1      36.096  36.422  19.981  1.00  0.00    -0.084 Cl
HETATM   23  C14 UNL     1      34.251  35.033  18.535  1.00  0.00     0.026 A 
HETATM   24  C15 UNL     1      33.843  34.312  17.442  1.00  0.00     0.031 A 
ENDBRANCH   5  18
TORSDOF 3
ENDMDL
