MODEL 6
REMARK VINA RESULT: -7.782299385      3.219      8.196
REMARK  3 active torsions:
REMARK  status: ('A' for Active; 'I' for Inactive)
REMARK    1  A    between atoms: C2_5  and  C3_6 
REMARK    2  A    between atoms: C8_11  and  N3_12 
REMARK       I    between atoms: N3_12  and  C9_14 
REMARK       I    between atoms: C9_14  and  N4_16 
REMARK    3  A    between atoms: N4_16  and  C10_18 
ROOT
HETATM    1  N3  UNL     1      34.043  33.044  15.086  1.00  0.00    -0.293 N 
ATOM      2  H3  UNL     1      34.351  32.183  14.634  1.00  0.00     0.172 HD
HETATM    3  C9  UNL     1      32.908  33.721  14.538  1.00  0.00     0.326 C 
HETATM    4  O1  UNL     1      32.539  34.743  15.113  1.00  0.00    -0.247 OA
HETATM    5  N4  UNL     1      32.256  33.244  13.392  1.00  0.00    -0.309 N 
ATOM      6  H4  UNL     1      32.602  32.373  12.989  1.00  0.00     0.170 HD
ENDROOT
BRANCH   1   7
HETATM    7  C8  UNL     1      34.764  33.497  16.217  1.00  0.00     0.127 A 
HETATM    8  N1  UNL     1      34.939  32.626  17.278  1.00  0.00    -0.281 N 
HETATM    9  C1  UNL     1      34.521  31.230  17.275  1.00  0.00     0.179 C 
HETATM   10  N2  UNL     1      35.575  33.272  18.233  1.00  0.00    -0.301 N 
HETATM   11  C2  UNL     1      35.832  34.551  17.851  1.00  0.00     0.037 A 
ATOM     12  H2  UNL     1      35.837  32.870  19.133  1.00  0.00     0.187 HD
HETATM   13  C7  UNL     1      35.327  34.693  16.590  1.00  0.00     0.077 A 
BRANCH  11  14
HETATM   14  C3  UNL     1      36.546  35.523  18.728  1.00  0.00    -0.007 C 
HETATM   15  C4  UNL     1      35.571  36.634  19.119  1.00  0.00     0.021 C 
HETATM   16  C5  UNL     1      37.704  36.082  17.929  1.00  0.00     0.021 C 
HETATM   17  C6  UNL     1      37.077  34.867  19.970  1.00  0.00     0.021 C 
ENDBRANCH  11  14
ENDBRANCH   1   7
BRANCH   5  18
HETATM   18  C10 UNL     1      31.168  33.860  12.750  1.00  0.00     0.036 A 
HETATM   19  C11 UNL     1      29.933  34.073  13.291  1.00  0.00     0.031 A 
HETATM   20  C12 UNL     1      28.945  34.731  12.609  1.00  0.00     0.026 A 
HETATM   21  C13 UNL     1      29.142  35.213  11.345  1.00  0.00     0.034 A 
HETATM   22 CL1  UNL     1      27.876  36.062  10.463  1.00  0.00    -0.084 Cl
HETATM   23  C14 UNL     1      30.377  35.021  10.756  1.00  0.00     0.026 A 
HETATM   24  C15 UNL     1      31.353  34.360  11.456  1.00  0.00     0.031 A 
ENDBRANCH   5  18
TORSDOF 3
ENDMDL
