MODEL 4
REMARK VINA RESULT: -8.397382976      4.854      5.403
REMARK  3 active torsions:
REMARK  status: ('A' for Active; 'I' for Inactive)
REMARK    1  A    between atoms: C2_5  and  C3_6 
REMARK    2  A    between atoms: C8_11  and  N3_12 
REMARK       I    between atoms: N3_12  and  C9_14 
REMARK       I    between atoms: C9_14  and  N4_16 
REMARK    3  A    between atoms: N4_16  and  C10_18 
ROOT
HETATM    1  N3  UNL     1      29.325  30.465  12.390  1.00  0.00    -0.293 N 
ATOM      2  H3  UNL     1      28.637  29.755  12.638  1.00  0.00     0.172 HD
HETATM    3  C9  UNL     1      30.706  30.174  12.625  1.00  0.00     0.326 C 
HETATM    4  O1  UNL     1      31.520  31.035  12.296  1.00  0.00    -0.247 OA
HETATM    5  N4  UNL     1      31.107  28.968  13.217  1.00  0.00    -0.309 N 
ATOM      6  H4  UNL     1      30.376  28.291  13.435  1.00  0.00     0.170 HD
ENDROOT
BRANCH   1   7
HETATM    7  C8  UNL     1      28.857  31.679  11.832  1.00  0.00     0.127 A 
HETATM    8  N1  UNL     1      28.182  31.631  10.626  1.00  0.00    -0.281 N 
HETATM    9  C1  UNL     1      27.823  30.402   9.930  1.00  0.00     0.179 C 
HETATM   10  N2  UNL     1      27.898  32.868  10.269  1.00  0.00    -0.301 N 
HETATM   11  C2  UNL     1      28.364  33.746  11.196  1.00  0.00     0.037 A 
ATOM     12  H2  UNL     1      27.400  33.128   9.418  1.00  0.00     0.187 HD
HETATM   13  C7  UNL     1      28.962  33.005  12.174  1.00  0.00     0.077 A 
BRANCH  11  14
HETATM   14  C3  UNL     1      28.186  35.221  11.064  1.00  0.00    -0.007 C 
HETATM   15  C4  UNL     1      27.074  35.664  12.016  1.00  0.00     0.021 C 
HETATM   16  C5  UNL     1      27.805  35.502   9.626  1.00  0.00     0.021 C 
HETATM   17  C6  UNL     1      29.449  35.965  11.393  1.00  0.00     0.021 C 
ENDBRANCH  11  14
ENDBRANCH   1   7
BRANCH   5  18
HETATM   18  C10 UNL     1      32.429  28.609  13.534  1.00  0.00     0.036 A 
HETATM   19  C11 UNL     1      33.335  28.047  12.681  1.00  0.00     0.031 A 
HETATM   20  C12 UNL     1      34.622  27.778  13.064  1.00  0.00     0.026 A 
HETATM   21  C13 UNL     1      35.072  28.060  14.323  1.00  0.00     0.034 A 
HETATM   22 CL1  UNL     1      36.727  27.718  14.819  1.00  0.00    -0.084 Cl
HETATM   23  C14 UNL     1      34.191  28.630  15.221  1.00  0.00     0.026 A 
HETATM   24  C15 UNL     1      32.906  28.891  14.819  1.00  0.00     0.031 A 
ENDBRANCH   5  18
TORSDOF 3
ENDMDL
