MODEL 1
REMARK VINA RESULT: -9.397644041      0.000      0.000
REMARK  3 active torsions:
REMARK  status: ('A' for Active; 'I' for Inactive)
REMARK    1  A    between atoms: C2_5  and  C3_6 
REMARK    2  A    between atoms: C8_11  and  N3_12 
REMARK       I    between atoms: N3_12  and  C9_14 
REMARK       I    between atoms: C9_14  and  N4_16 
REMARK    3  A    between atoms: N4_16  and  C10_18 
ROOT
HETATM    1  N3  UNL     1      32.734  33.169  13.246  1.00  0.00    -0.293 N 
ATOM      2  H3  UNL     1      33.432  32.581  12.792  1.00  0.00     0.172 HD
HETATM    3  C9  UNL     1      33.100  33.834  14.458  1.00  0.00     0.326 C 
HETATM    4  O1  UNL     1      32.251  34.557  14.975  1.00  0.00    -0.247 OA
HETATM    5  N4  UNL     1      34.367  33.658  15.033  1.00  0.00    -0.309 N 
ATOM      6  H4  UNL     1      35.028  33.067  14.530  1.00  0.00     0.170 HD
ENDROOT
BRANCH   1   7
HETATM    7  C8  UNL     1      31.459  33.277  12.638  1.00  0.00     0.127 A 
HETATM    8  N1  UNL     1      30.747  32.117  12.393  1.00  0.00    -0.281 N 
HETATM    9  C1  UNL     1      31.169  30.787  12.811  1.00  0.00     0.179 C 
HETATM   10  N2  UNL     1      29.633  32.448  11.773  1.00  0.00    -0.301 N 
HETATM   11  C2  UNL     1      29.573  33.794  11.590  1.00  0.00     0.037 A 
ATOM     12  H2  UNL     1      28.916  31.788  11.472  1.00  0.00     0.187 HD
HETATM   13  C7  UNL     1      30.714  34.314  12.132  1.00  0.00     0.077 A 
BRANCH  11  14
HETATM   14  C3  UNL     1      28.423  34.463  10.918  1.00  0.00    -0.007 C 
HETATM   15  C4  UNL     1      27.173  33.607  11.126  1.00  0.00     0.021 C 
HETATM   16  C5  UNL     1      28.762  34.571   9.447  1.00  0.00     0.021 C 
HETATM   17  C6  UNL     1      28.181  35.839  11.469  1.00  0.00     0.021 C 
ENDBRANCH  11  14
ENDBRANCH   1   7
BRANCH   5  18
HETATM   18  C10 UNL     1      34.806  34.226  16.243  1.00  0.00     0.036 A 
HETATM   19  C11 UNL     1      34.060  34.372  17.377  1.00  0.00     0.031 A 
HETATM   20  C12 UNL     1      34.587  34.890  18.530  1.00  0.00     0.026 A 
HETATM   21  C13 UNL     1      35.892  35.289  18.608  1.00  0.00     0.034 A 
HETATM   22 CL1  UNL     1      36.576  35.953  20.089  1.00  0.00    -0.084 Cl
HETATM   23  C14 UNL     1      36.685  35.160  17.485  1.00  0.00     0.026 A 
HETATM   24  C15 UNL     1      36.139  34.639  16.340  1.00  0.00     0.031 A 
ENDBRANCH   5  18
TORSDOF 3
ENDMDL
