MODEL 5
REMARK VINA RESULT: -7.850049512      3.323      8.547
REMARK  3 active torsions:
REMARK  status: ('A' for Active; 'I' for Inactive)
REMARK    1  A    between atoms: C2_5  and  C3_6 
REMARK    2  A    between atoms: C8_11  and  N3_12 
REMARK       I    between atoms: N3_12  and  C9_14 
REMARK       I    between atoms: C9_14  and  N4_16 
REMARK    3  A    between atoms: N4_16  and  C10_18 
ROOT
HETATM    1  N3  UNL     1      35.151  33.803  15.731  1.00  0.00    -0.293 N 
ATOM      2  H3  UNL     1      35.830  33.366  15.107  1.00  0.00     0.172 HD
HETATM    3  C9  UNL     1      33.793  33.893  15.290  1.00  0.00     0.326 C 
HETATM    4  O1  UNL     1      32.988  34.400  16.069  1.00  0.00    -0.247 OA
HETATM    5  N4  UNL     1      33.405  33.434  14.023  1.00  0.00    -0.309 N 
ATOM      6  H4  UNL     1      34.124  32.998  13.446  1.00  0.00     0.170 HD
ENDROOT
BRANCH   1   7
HETATM    7  C8  UNL     1      35.610  34.282  16.982  1.00  0.00     0.127 A 
HETATM    8  N1  UNL     1      35.493  33.456  18.086  1.00  0.00    -0.281 N 
HETATM    9  C1  UNL     1      35.023  32.078  18.037  1.00  0.00     0.179 C 
HETATM   10  N2  UNL     1      35.919  34.123  19.139  1.00  0.00    -0.301 N 
HETATM   11  C2  UNL     1      36.316  35.372  18.781  1.00  0.00     0.037 A 
ATOM     12  H2  UNL     1      35.946  33.753  20.090  1.00  0.00     0.187 HD
HETATM   13  C7  UNL     1      36.125  35.473  17.432  1.00  0.00     0.077 A 
BRANCH  11  14
HETATM   14  C3  UNL     1      36.851  36.358  19.764  1.00  0.00    -0.007 C 
HETATM   15  C4  UNL     1      36.122  37.687  19.567  1.00  0.00     0.021 C 
HETATM   16  C5  UNL     1      38.331  36.511  19.485  1.00  0.00     0.021 C 
HETATM   17  C6  UNL     1      36.663  35.891  21.178  1.00  0.00     0.021 C 
ENDBRANCH  11  14
ENDBRANCH   1   7
BRANCH   5  18
HETATM   18  C10 UNL     1      32.111  33.522  13.479  1.00  0.00     0.036 A 
HETATM   19  C11 UNL     1      31.313  34.630  13.483  1.00  0.00     0.031 A 
HETATM   20  C12 UNL     1      30.083  34.640  12.881  1.00  0.00     0.026 A 
HETATM   21  C13 UNL     1      29.587  33.539  12.241  1.00  0.00     0.034 A 
HETATM   22 CL1  UNL     1      28.007  33.547  11.463  1.00  0.00    -0.084 Cl
HETATM   23  C14 UNL     1      30.359  32.395  12.212  1.00  0.00     0.026 A 
HETATM   24  C15 UNL     1      31.588  32.404  12.820  1.00  0.00     0.031 A 
ENDBRANCH   5  18
TORSDOF 3
ENDMDL
