MODEL 7
REMARK VINA RESULT: -4.943544208      1.311      2.210
REMARK  3 active torsions:
REMARK  status: ('A' for Active; 'I' for Inactive)
REMARK    1  A    between atoms: C1_2  and  C2_4 
REMARK    2  A    between atoms: C2_4  and  O3_5 
REMARK    3  A    between atoms: O3_5  and  P1_6 
ROOT
HETATM    1  O3  UNL     1      -9.995  -6.386  48.579  1.00  0.00    -0.272 OA
ENDROOT
BRANCH   1   2
HETATM    2  C2  UNL     1      -9.988  -7.435  47.714  1.00  0.00     0.295 C 
BRANCH   2   3
HETATM    3  C1  UNL     1      -8.599  -7.963  47.664  1.00  0.00     0.198 C 
HETATM    4  O1  UNL     1      -8.125  -8.715  48.572  1.00  0.00    -0.646 OA
HETATM    5  O2  UNL     1      -7.736  -7.664  46.622  1.00  0.00    -0.646 OA
ENDBRANCH   2   3
ENDBRANCH   1   2
BRANCH   1   6
HETATM    6  P1  UNL     1     -11.373  -6.501  49.511  1.00  0.00     0.422 P 
HETATM    7  O4  UNL     1     -11.223  -5.048  49.934  1.00  0.00    -0.617 OA
HETATM    8  O5  UNL     1     -12.849  -6.301  48.874  1.00  0.00    -0.617 OA
HETATM    9  O6  UNL     1     -11.244  -7.031  51.088  1.00  0.00    -0.617 OA
ENDBRANCH   1   6
TORSDOF 3
ENDMDL
