MODEL 1
REMARK VINA RESULT: -5.355766268      0.000      0.000
REMARK  3 active torsions:
REMARK  status: ('A' for Active; 'I' for Inactive)
REMARK    1  A    between atoms: C1_2  and  C2_4 
REMARK    2  A    between atoms: C2_4  and  O3_5 
REMARK    3  A    between atoms: O3_5  and  P1_6 
ROOT
HETATM    1  O3  UNL     1      -9.982  -7.877  47.667  1.00  0.00    -0.272 OA
ENDROOT
BRANCH   1   2
HETATM    2  C2  UNL     1      -8.998  -8.595  48.271  1.00  0.00     0.295 C 
BRANCH   2   3
HETATM    3  C1  UNL     1      -7.697  -8.088  47.759  1.00  0.00     0.198 C 
HETATM    4  O1  UNL     1      -7.565  -7.620  46.586  1.00  0.00    -0.646 OA
HETATM    5  O2  UNL     1      -6.548  -8.097  48.535  1.00  0.00    -0.646 OA
ENDBRANCH   2   3
ENDBRANCH   1   2
BRANCH   1   6
HETATM    6  P1  UNL     1     -10.492  -6.706  48.739  1.00  0.00     0.422 P 
HETATM    7  O4  UNL     1     -11.917  -6.838  48.223  1.00  0.00    -0.617 OA
HETATM    8  O5  UNL     1     -10.873  -7.065  50.271  1.00  0.00    -0.617 OA
HETATM    9  O6  UNL     1     -10.417  -5.102  48.285  1.00  0.00    -0.617 OA
ENDBRANCH   1   6
TORSDOF 3
ENDMDL
