MODEL 6
REMARK VINA RESULT: -4.965423182      2.556      4.453
REMARK  3 active torsions:
REMARK  status: ('A' for Active; 'I' for Inactive)
REMARK    1  A    between atoms: C1_2  and  C2_4 
REMARK    2  A    between atoms: C2_4  and  O3_5 
REMARK    3  A    between atoms: O3_5  and  P1_6 
ROOT
HETATM    1  O3  UNL     1     -10.912  -7.795  49.809  1.00  0.00    -0.272 OA
ENDROOT
BRANCH   1   2
HETATM    2  C2  UNL     1     -11.712  -6.817  50.310  1.00  0.00     0.295 C 
BRANCH   2   3
HETATM    3  C1  UNL     1     -11.832  -7.045  51.775  1.00  0.00     0.198 C 
HETATM    4  O1  UNL     1     -11.017  -7.777  52.417  1.00  0.00    -0.646 OA
HETATM    5  O2  UNL     1     -12.845  -6.471  52.528  1.00  0.00    -0.646 OA
ENDBRANCH   2   3
ENDBRANCH   1   2
BRANCH   1   6
HETATM    6  P1  UNL     1     -10.205  -7.214  48.416  1.00  0.00     0.422 P 
HETATM    7  O4  UNL     1     -11.574  -7.060  47.771  1.00  0.00    -0.617 OA
HETATM    8  O5  UNL     1      -9.807  -5.653  48.252  1.00  0.00    -0.617 OA
HETATM    9  O6  UNL     1      -9.713  -8.295  47.244  1.00  0.00    -0.617 OA
ENDBRANCH   1   6
TORSDOF 3
ENDMDL
