MODEL 2
REMARK VINA RESULT: -5.283239054      0.121      1.065
REMARK  3 active torsions:
REMARK  status: ('A' for Active; 'I' for Inactive)
REMARK    1  A    between atoms: C1_2  and  C2_4 
REMARK    2  A    between atoms: C2_4  and  O3_5 
REMARK    3  A    between atoms: O3_5  and  P1_6 
ROOT
HETATM    1  O3  UNL     1     -10.081  -7.844  47.684  1.00  0.00    -0.272 OA
ENDROOT
BRANCH   1   2
HETATM    2  C2  UNL     1      -9.128  -8.618  48.268  1.00  0.00     0.295 C 
BRANCH   2   3
HETATM    3  C1  UNL     1      -7.805  -8.121  47.804  1.00  0.00     0.198 C 
HETATM    4  O1  UNL     1      -6.775  -8.137  48.547  1.00  0.00    -0.646 OA
HETATM    5  O2  UNL     1      -7.617  -7.610  46.529  1.00  0.00    -0.646 OA
ENDBRANCH   2   3
ENDBRANCH   1   2
BRANCH   1   6
HETATM    6  P1  UNL     1     -10.538  -6.679  48.786  1.00  0.00     0.422 P 
HETATM    7  O4  UNL     1     -11.975  -6.763  48.296  1.00  0.00    -0.617 OA
HETATM    8  O5  UNL     1     -10.898  -7.053  50.319  1.00  0.00    -0.617 OA
HETATM    9  O6  UNL     1     -10.428  -5.070  48.356  1.00  0.00    -0.617 OA
ENDBRANCH   1   6
TORSDOF 3
ENDMDL
