MODEL 4
REMARK VINA RESULT: -5.097549250      1.200      2.027
REMARK  3 active torsions:
REMARK  status: ('A' for Active; 'I' for Inactive)
REMARK    1  A    between atoms: C1_2  and  C2_4 
REMARK    2  A    between atoms: C2_4  and  O3_5 
REMARK    3  A    between atoms: O3_5  and  P1_6 
ROOT
HETATM    1  O3  UNL     1     -10.414  -7.713  49.016  1.00  0.00    -0.272 OA
ENDROOT
BRANCH   1   2
HETATM    2  C2  UNL     1     -10.031  -7.713  47.712  1.00  0.00     0.295 C 
BRANCH   2   3
HETATM    3  C1  UNL     1      -8.576  -8.021  47.674  1.00  0.00     0.198 C 
HETATM    4  O1  UNL     1      -7.993  -8.661  48.603  1.00  0.00    -0.646 OA
HETATM    5  O2  UNL     1      -7.769  -7.625  46.619  1.00  0.00    -0.646 OA
ENDBRANCH   2   3
ENDBRANCH   1   2
BRANCH   1   6
HETATM    6  P1  UNL     1     -11.252  -6.300  49.302  1.00  0.00     0.422 P 
HETATM    7  O4  UNL     1     -11.404  -6.674  50.769  1.00  0.00    -0.617 OA
HETATM    8  O5  UNL     1     -10.488  -4.904  49.601  1.00  0.00    -0.617 OA
HETATM    9  O6  UNL     1     -12.905  -6.278  49.079  1.00  0.00    -0.617 OA
ENDBRANCH   1   6
TORSDOF 3
ENDMDL
