MODEL 3
REMARK VINA RESULT: -5.137682912      0.717      1.510
REMARK  3 active torsions:
REMARK  status: ('A' for Active; 'I' for Inactive)
REMARK    1  A    between atoms: C1_2  and  C2_4 
REMARK    2  A    between atoms: C2_4  and  O3_5 
REMARK    3  A    between atoms: O3_5  and  P1_6 
ROOT
HETATM    1  O3  UNL     1      -9.874  -8.076  48.967  1.00  0.00    -0.272 OA
ENDROOT
BRANCH   1   2
HETATM    2  C2  UNL     1      -9.534  -8.367  47.684  1.00  0.00     0.295 C 
BRANCH   2   3
HETATM    3  C1  UNL     1      -8.090  -8.050  47.522  1.00  0.00     0.198 C 
HETATM    4  O1  UNL     1      -7.622  -7.541  46.458  1.00  0.00    -0.646 OA
HETATM    5  O2  UNL     1      -7.167  -8.294  48.527  1.00  0.00    -0.646 OA
ENDBRANCH   2   3
ENDBRANCH   1   2
BRANCH   1   6
HETATM    6  P1  UNL     1     -10.690  -6.622  48.963  1.00  0.00     0.422 P 
HETATM    7  O4  UNL     1     -10.999  -6.778  50.444  1.00  0.00    -0.617 OA
HETATM    8  O5  UNL     1      -9.916  -5.211  49.137  1.00  0.00    -0.617 OA
HETATM    9  O6  UNL     1     -12.312  -6.605  48.571  1.00  0.00    -0.617 OA
ENDBRANCH   1   6
TORSDOF 3
ENDMDL
