MODEL 10
REMARK VINA RESULT: -4.891484393      3.300      5.058
REMARK  3 active torsions:
REMARK  status: ('A' for Active; 'I' for Inactive)
REMARK    1  A    between atoms: C1_2  and  C2_4 
REMARK    2  A    between atoms: C2_4  and  O3_5 
REMARK    3  A    between atoms: O3_5  and  P1_6 
ROOT
HETATM    1  O3  UNL     1     -12.470  -6.214  49.313  1.00  0.00    -0.272 OA
ENDROOT
BRANCH   1   2
HETATM    2  C2  UNL     1     -12.456  -5.383  50.389  1.00  0.00     0.295 C 
BRANCH   2   3
HETATM    3  C1  UNL     1     -12.896  -6.174  51.569  1.00  0.00     0.198 C 
HETATM    4  O1  UNL     1     -12.072  -6.730  52.360  1.00  0.00    -0.646 OA
HETATM    5  O2  UNL     1     -14.236  -6.352  51.876  1.00  0.00    -0.646 OA
ENDBRANCH   2   3
ENDBRANCH   1   2
BRANCH   1   6
HETATM    6  P1  UNL     1     -10.910  -6.742  49.054  1.00  0.00     0.422 P 
HETATM    7  O4  UNL     1     -11.289  -7.209  47.656  1.00  0.00    -0.617 OA
HETATM    8  O5  UNL     1      -9.746  -5.738  48.547  1.00  0.00    -0.617 OA
HETATM    9  O6  UNL     1     -10.491  -8.290  49.516  1.00  0.00    -0.617 OA
ENDBRANCH   1   6
TORSDOF 3
ENDMDL
