MODEL 13
REMARK VINA RESULT: -4.772524520      3.616      5.608
REMARK  3 active torsions:
REMARK  status: ('A' for Active; 'I' for Inactive)
REMARK    1  A    between atoms: C1_2  and  C2_4 
REMARK    2  A    between atoms: C2_4  and  O3_5 
REMARK    3  A    between atoms: O3_5  and  P1_6 
ROOT
HETATM    1  O3  UNL     1     -12.715  -6.152  49.173  1.00  0.00    -0.272 OA
ENDROOT
BRANCH   1   2
HETATM    2  C2  UNL     1     -12.995  -5.418  50.282  1.00  0.00     0.295 C 
BRANCH   2   3
HETATM    3  C1  UNL     1     -14.472  -5.425  50.461  1.00  0.00     0.198 C 
HETATM    4  O1  UNL     1     -15.271  -5.129  49.520  1.00  0.00    -0.646 OA
HETATM    5  O2  UNL     1     -15.064  -5.756  51.670  1.00  0.00    -0.646 OA
ENDBRANCH   2   3
ENDBRANCH   1   2
BRANCH   1   6
HETATM    6  P1  UNL     1     -11.111  -6.600  49.248  1.00  0.00     0.422 P 
HETATM    7  O4  UNL     1     -11.173  -7.106  47.815  1.00  0.00    -0.617 OA
HETATM    8  O5  UNL     1      -9.919  -5.542  48.963  1.00  0.00    -0.617 OA
HETATM    9  O6  UNL     1     -10.719  -8.116  49.824  1.00  0.00    -0.617 OA
ENDBRANCH   1   6
TORSDOF 3
ENDMDL
