MODEL 7
REMARK VINA RESULT: -7.924383804      1.283      1.565
REMARK  9 active torsions:
REMARK  status: ('A' for Active; 'I' for Inactive)
REMARK    1  A    between atoms: N4_17  and  C9_18 
REMARK    2  A    between atoms: C9_18  and  C10_19 
REMARK    3  A    between atoms: C10_19  and  O3_20 
REMARK    4  A    between atoms: C10_19  and  C11_22 
REMARK    5  A    between atoms: C11_22  and  O4_23 
REMARK    6  A    between atoms: C11_22  and  C12_25 
REMARK    7  A    between atoms: C12_25  and  O5_26 
REMARK    8  A    between atoms: C12_25  and  C13_28 
REMARK    9  A    between atoms: C13_28  and  O6_29 
ROOT
HETATM    1  C1  UNL     1      72.389  27.988  44.279  1.00  0.00     0.049 C 
HETATM    2  C2  UNL     1      73.028  27.071  43.289  1.00  0.00    -0.054 A 
HETATM    3  C3  UNL     1      72.290  26.120  42.649  1.00  0.00     0.039 A 
HETATM    4  C4  UNL     1      72.873  25.267  41.731  1.00  0.00     0.060 A 
HETATM    5  N1  UNL     1      72.131  24.338  41.110  1.00  0.00    -0.347 N 
ATOM      6  H1  UNL     1      71.135  24.249  41.308  1.00  0.00     0.166 HD
HETATM    7  C5  UNL     1      72.729  23.527  40.220  1.00  0.00     0.146 A 
HETATM    8  C6  UNL     1      72.051  22.541  39.529  1.00  0.00     0.280 A 
HETATM    9  O1  UNL     1      70.810  22.378  39.729  1.00  0.00    -0.265 OA
HETATM   10  N2  UNL     1      72.753  21.790  38.664  1.00  0.00    -0.273 N 
ATOM     11  H2  UNL     1      72.264  21.060  38.147  1.00  0.00     0.173 HD
HETATM   12  C7  UNL     1      74.070  21.956  38.446  1.00  0.00     0.328 A 
HETATM   13  O2  UNL     1      74.616  21.191  37.612  1.00  0.00    -0.247 OA
HETATM   14  N3  UNL     1      74.802  22.905  39.088  1.00  0.00    -0.292 N 
ATOM     15  H3  UNL     1      75.801  23.017  38.908  1.00  0.00     0.172 HD
HETATM   16  C8  UNL     1      74.156  23.688  39.967  1.00  0.00     0.145 A 
HETATM   17  N4  UNL     1      74.891  24.636  40.606  1.00  0.00    -0.327 N 
HETATM   18  C14 UNL     1      74.247  25.420  41.484  1.00  0.00     0.063 A 
HETATM   19  C15 UNL     1      74.977  26.388  42.139  1.00  0.00     0.039 A 
HETATM   20  C16 UNL     1      74.375  27.236  43.060  1.00  0.00    -0.054 A 
HETATM   21  C17 UNL     1      75.158  28.269  43.758  1.00  0.00     0.049 C 
ENDROOT
BRANCH  17  22
HETATM   22  C9  UNL     1      76.272  24.786  40.354  1.00  0.00     0.165 C 
BRANCH  22  23
HETATM   23  C10 UNL     1      77.181  23.799  41.012  1.00  0.00     0.167 C 
BRANCH  23  24
HETATM   24  O3  UNL     1      77.244  23.800  42.364  1.00  0.00    -0.391 OA
ATOM     25  H3  UNL     1      78.064  24.055  42.770  1.00  0.00     0.210 HD
ENDBRANCH  23  24
BRANCH  23  26
HETATM   26  C11 UNL     1      78.552  23.947  40.349  1.00  0.00     0.179 C 
BRANCH  26  27
HETATM   27  O4  UNL     1      79.305  22.788  40.512  1.00  0.00    -0.390 OA
ATOM     28  H4  UNL     1      78.742  22.043  40.685  1.00  0.00     0.210 HD
ENDBRANCH  26  27
BRANCH  26  29
HETATM   29  C12 UNL     1      79.276  25.167  40.824  1.00  0.00     0.173 C 
BRANCH  29  30
HETATM   30  O5  UNL     1      79.631  25.906  39.695  1.00  0.00    -0.391 OA
ATOM     31  H5  UNL     1      79.637  26.822  39.947  1.00  0.00     0.210 HD
ENDBRANCH  29  30
BRANCH  29  32
HETATM   32  C13 UNL     1      80.535  24.826  41.591  1.00  0.00     0.198 C 
BRANCH  32  33
HETATM   33  O6  UNL     1      80.154  24.227  42.801  1.00  0.00    -0.398 OA
ATOM     34  H6  UNL     1      80.245  23.286  42.702  1.00  0.00     0.209 HD
ENDBRANCH  32  33
ENDBRANCH  29  32
ENDBRANCH  26  29
ENDBRANCH  23  26
ENDBRANCH  22  23
ENDBRANCH  17  22
TORSDOF 9
ENDMDL
