MODEL 2
REMARK VINA RESULT: -8.333362781      0.997      1.260
REMARK  9 active torsions:
REMARK  status: ('A' for Active; 'I' for Inactive)
REMARK    1  A    between atoms: N4_17  and  C9_18 
REMARK    2  A    between atoms: C9_18  and  C10_19 
REMARK    3  A    between atoms: C10_19  and  O3_20 
REMARK    4  A    between atoms: C10_19  and  C11_22 
REMARK    5  A    between atoms: C11_22  and  O4_23 
REMARK    6  A    between atoms: C11_22  and  C12_25 
REMARK    7  A    between atoms: C12_25  and  O5_26 
REMARK    8  A    between atoms: C12_25  and  C13_28 
REMARK    9  A    between atoms: C13_28  and  O6_29 
ROOT
HETATM    1  C1  UNL     1      70.848  27.623  43.966  1.00  0.00     0.049 C 
HETATM    2  C2  UNL     1      71.674  26.743  43.086  1.00  0.00    -0.054 A 
HETATM    3  C3  UNL     1      71.087  25.774  42.328  1.00  0.00     0.039 A 
HETATM    4  C4  UNL     1      71.844  24.955  41.513  1.00  0.00     0.060 A 
HETATM    5  N1  UNL     1      71.249  24.007  40.773  1.00  0.00    -0.347 N 
ATOM      6  H1  UNL     1      70.238  23.879  40.805  1.00  0.00     0.166 HD
HETATM    7  C5  UNL     1      72.015  23.231  39.987  1.00  0.00     0.146 A 
HETATM    8  C6  UNL     1      71.497  22.228  39.188  1.00  0.00     0.280 A 
HETATM    9  O1  UNL     1      70.246  22.017  39.182  1.00  0.00    -0.265 OA
HETATM   10  N2  UNL     1      72.358  21.515  38.444  1.00  0.00    -0.273 N 
ATOM     11  H2  UNL     1      71.987  20.774  37.850  1.00  0.00     0.173 HD
HETATM   12  C7  UNL     1      73.685  21.732  38.444  1.00  0.00     0.328 A 
HETATM   13  O2  UNL     1      74.389  20.999  37.705  1.00  0.00    -0.247 OA
HETATM   14  N3  UNL     1      74.267  22.699  39.203  1.00  0.00    -0.292 N 
ATOM     15  H3  UNL     1      75.276  22.851  39.190  1.00  0.00     0.172 HD
HETATM   16  C8  UNL     1      73.456  23.447  39.970  1.00  0.00     0.145 A 
HETATM   17  N4  UNL     1      74.041  24.413  40.728  1.00  0.00    -0.327 N 
HETATM   18  C14 UNL     1      73.233  25.162  41.494  1.00  0.00     0.063 A 
HETATM   19  C15 UNL     1      73.809  26.147  42.265  1.00  0.00     0.039 A 
HETATM   20  C16 UNL     1      73.032  26.961  43.081  1.00  0.00    -0.054 A 
HETATM   21  C17 UNL     1      73.652  28.013  43.904  1.00  0.00     0.049 C 
ENDROOT
BRANCH  17  22
HETATM   22  C9  UNL     1      75.438  24.617  40.704  1.00  0.00     0.165 C 
BRANCH  22  23
HETATM   23  C10 UNL     1      76.002  25.223  39.459  1.00  0.00     0.167 C 
BRANCH  23  24
HETATM   24  O3  UNL     1      76.759  24.436  38.660  1.00  0.00    -0.391 OA
ATOM     25  H3  UNL     1      76.714  24.580  37.722  1.00  0.00     0.210 HD
ENDBRANCH  23  24
BRANCH  23  26
HETATM   26  C11 UNL     1      76.711  26.513  39.876  1.00  0.00     0.179 C 
BRANCH  26  27
HETATM   27  O4  UNL     1      77.340  27.103  38.784  1.00  0.00    -0.390 OA
ATOM     28  H4  UNL     1      78.061  26.564  38.480  1.00  0.00     0.210 HD
ENDBRANCH  26  27
BRANCH  26  29
HETATM   29  C12 UNL     1      77.649  26.293  41.022  1.00  0.00     0.173 C 
BRANCH  29  30
HETATM   30  O5  UNL     1      77.453  27.337  41.925  1.00  0.00    -0.391 OA
ATOM     31  H5  UNL     1      76.537  27.584  41.877  1.00  0.00     0.210 HD
ENDBRANCH  29  30
BRANCH  29  32
HETATM   32  C13 UNL     1      79.099  26.297  40.586  1.00  0.00     0.198 C 
BRANCH  32  33
HETATM   33  O6  UNL     1      79.335  25.120  39.862  1.00  0.00    -0.398 OA
ATOM     34  H6  UNL     1      80.221  25.160  39.520  1.00  0.00     0.209 HD
ENDBRANCH  32  33
ENDBRANCH  29  32
ENDBRANCH  26  29
ENDBRANCH  23  26
ENDBRANCH  22  23
ENDBRANCH  17  22
TORSDOF 9
ENDMDL
