MODEL 5
REMARK VINA RESULT: -8.067492088      2.525      5.145
REMARK  9 active torsions:
REMARK  status: ('A' for Active; 'I' for Inactive)
REMARK    1  A    between atoms: N4_17  and  C9_18 
REMARK    2  A    between atoms: C9_18  and  C10_19 
REMARK    3  A    between atoms: C10_19  and  O3_20 
REMARK    4  A    between atoms: C10_19  and  C11_22 
REMARK    5  A    between atoms: C11_22  and  O4_23 
REMARK    6  A    between atoms: C11_22  and  C12_25 
REMARK    7  A    between atoms: C12_25  and  O5_26 
REMARK    8  A    between atoms: C12_25  and  C13_28 
REMARK    9  A    between atoms: C13_28  and  O6_29 
ROOT
HETATM    1  C1  UNL     1      71.500  21.805  38.869  1.00  0.00     0.049 C 
HETATM    2  C2  UNL     1      72.321  22.817  39.599  1.00  0.00    -0.054 A 
HETATM    3  C3  UNL     1      71.736  23.684  40.474  1.00  0.00     0.039 A 
HETATM    4  C4  UNL     1      72.488  24.623  41.153  1.00  0.00     0.060 A 
HETATM    5  N1  UNL     1      71.896  25.466  42.011  1.00  0.00    -0.347 N 
ATOM      6  H1  UNL     1      70.889  25.425  42.171  1.00  0.00     0.166 HD
HETATM    7  C5  UNL     1      72.658  26.365  42.658  1.00  0.00     0.146 A 
HETATM    8  C6  UNL     1      72.142  27.275  43.562  1.00  0.00     0.280 A 
HETATM    9  O1  UNL     1      70.897  27.278  43.805  1.00  0.00    -0.265 OA
HETATM   10  N2  UNL     1      72.999  28.127  44.148  1.00  0.00    -0.273 N 
ATOM     11  H2  UNL     1      72.630  28.803  44.817  1.00  0.00     0.173 HD
HETATM   12  C7  UNL     1      74.320  28.132  43.895  1.00  0.00     0.328 A 
HETATM   13  O2  UNL     1      75.020  28.978  44.506  1.00  0.00    -0.247 OA
HETATM   14  N3  UNL     1      74.899  27.268  43.020  1.00  0.00    -0.292 N 
ATOM     15  H3  UNL     1      75.903  27.285  42.841  1.00  0.00     0.172 HD
HETATM   16  C8  UNL     1      74.093  26.390  42.401  1.00  0.00     0.145 A 
HETATM   17  N4  UNL     1      74.674  25.527  41.526  1.00  0.00    -0.327 N 
HETATM   18  C14 UNL     1      73.871  24.648  40.908  1.00  0.00     0.063 A 
HETATM   19  C15 UNL     1      74.445  23.765  40.020  1.00  0.00     0.039 A 
HETATM   20  C16 UNL     1      73.673  22.827  39.346  1.00  0.00    -0.054 A 
HETATM   21  C17 UNL     1      74.291  21.884  38.398  1.00  0.00     0.049 C 
ENDROOT
BRANCH  17  22
HETATM   22  C9  UNL     1      76.065  25.556  41.284  1.00  0.00     0.165 C 
BRANCH  22  23
HETATM   23  C10 UNL     1      76.927  24.826  42.263  1.00  0.00     0.167 C 
BRANCH  23  24
HETATM   24  O3  UNL     1      77.229  25.447  43.427  1.00  0.00    -0.391 OA
ATOM     25  H3  UNL     1      76.517  25.636  44.027  1.00  0.00     0.210 HD
ENDBRANCH  23  24
BRANCH  23  26
HETATM   26  C11 UNL     1      78.165  24.353  41.498  1.00  0.00     0.179 C 
BRANCH  26  27
HETATM   27  O4  UNL     1      79.210  24.076  42.375  1.00  0.00    -0.390 OA
ATOM     28  H4  UNL     1      79.705  24.863  42.566  1.00  0.00     0.210 HD
ENDBRANCH  26  27
BRANCH  26  29
HETATM   29  C12 UNL     1      78.564  25.318  40.425  1.00  0.00     0.173 C 
BRANCH  29  30
HETATM   30  O5  UNL     1      78.953  24.569  39.315  1.00  0.00    -0.391 OA
ATOM     31  H5  UNL     1      78.654  23.678  39.458  1.00  0.00     0.210 HD
ENDBRANCH  29  30
BRANCH  29  32
HETATM   32  C13 UNL     1      79.725  26.195  40.845  1.00  0.00     0.198 C 
BRANCH  32  33
HETATM   33  O6  UNL     1      80.089  26.984  39.744  1.00  0.00    -0.398 OA
ATOM     34  H6  UNL     1      80.980  27.284  39.882  1.00  0.00     0.209 HD
ENDBRANCH  32  33
ENDBRANCH  29  32
ENDBRANCH  26  29
ENDBRANCH  23  26
ENDBRANCH  22  23
ENDBRANCH  17  22
TORSDOF 9
ENDMDL
