MODEL 3
REMARK VINA RESULT: -8.110062581      3.230      6.240
REMARK  9 active torsions:
REMARK  status: ('A' for Active; 'I' for Inactive)
REMARK    1  A    between atoms: N4_17  and  C9_18 
REMARK    2  A    between atoms: C9_18  and  C10_19 
REMARK    3  A    between atoms: C10_19  and  O3_20 
REMARK    4  A    between atoms: C10_19  and  C11_22 
REMARK    5  A    between atoms: C11_22  and  O4_23 
REMARK    6  A    between atoms: C11_22  and  C12_25 
REMARK    7  A    between atoms: C12_25  and  O5_26 
REMARK    8  A    between atoms: C12_25  and  C13_28 
REMARK    9  A    between atoms: C13_28  and  O6_29 
ROOT
HETATM    1  C1  UNL     1      77.391  24.056  39.030  1.00  0.00     0.049 C 
HETATM    2  C2  UNL     1      76.152  24.338  39.815  1.00  0.00    -0.054 A 
HETATM    3  C3  UNL     1      74.940  23.889  39.382  1.00  0.00     0.039 A 
HETATM    4  C4  UNL     1      73.790  24.146  40.101  1.00  0.00     0.060 A 
HETATM    5  N1  UNL     1      72.606  23.695  39.661  1.00  0.00    -0.347 N 
ATOM      6  H1  UNL     1      72.541  23.161  38.794  1.00  0.00     0.166 HD
HETATM    7  C5  UNL     1      71.506  23.960  40.387  1.00  0.00     0.146 A 
HETATM    8  C6  UNL     1      70.242  23.538  40.018  1.00  0.00     0.280 A 
HETATM    9  O1  UNL     1      70.093  22.870  38.950  1.00  0.00    -0.265 OA
HETATM   10  N2  UNL     1      69.217  23.862  40.822  1.00  0.00    -0.273 N 
ATOM     11  H2  UNL     1      68.280  23.555  40.561  1.00  0.00     0.173 HD
HETATM   12  C7  UNL     1      69.365  24.570  41.956  1.00  0.00     0.328 A 
HETATM   13  O2  UNL     1      68.329  24.810  42.625  1.00  0.00    -0.247 OA
HETATM   14  N3  UNL     1      70.576  25.018  42.384  1.00  0.00    -0.292 N 
ATOM     15  H3  UNL     1      70.671  25.552  43.247  1.00  0.00     0.172 HD
HETATM   16  C8  UNL     1      71.642  24.725  41.620  1.00  0.00     0.145 A 
HETATM   17  N4  UNL     1      72.851  25.175  42.050  1.00  0.00    -0.327 N 
HETATM   18  C14 UNL     1      73.918  24.883  41.290  1.00  0.00     0.063 A 
HETATM   19  C15 UNL     1      75.151  25.328  41.713  1.00  0.00     0.039 A 
HETATM   20  C16 UNL     1      76.298  25.061  40.976  1.00  0.00    -0.054 A 
HETATM   21  C17 UNL     1      77.614  25.539  41.431  1.00  0.00     0.049 C 
ENDROOT
BRANCH  17  22
HETATM   22  C9  UNL     1      72.975  25.914  43.247  1.00  0.00     0.165 C 
BRANCH  22  23
HETATM   23  C10 UNL     1      72.680  27.377  43.159  1.00  0.00     0.167 C 
BRANCH  23  24
HETATM   24  O3  UNL     1      73.727  28.235  43.168  1.00  0.00    -0.391 OA
ATOM     25  H3  UNL     1      73.724  28.932  43.814  1.00  0.00     0.210 HD
ENDBRANCH  23  24
BRANCH  23  26
HETATM   26  C11 UNL     1      71.643  27.686  44.242  1.00  0.00     0.179 C 
BRANCH  26  27
HETATM   27  O4  UNL     1      71.300  26.530  44.938  1.00  0.00    -0.390 OA
ATOM     28  H4  UNL     1      70.640  26.037  44.466  1.00  0.00     0.210 HD
ENDBRANCH  26  27
BRANCH  26  29
HETATM   29  C12 UNL     1      70.445  28.392  43.686  1.00  0.00     0.173 C 
BRANCH  29  30
HETATM   30  O5  UNL     1      70.504  29.715  44.123  1.00  0.00    -0.391 OA
ATOM     31  H5  UNL     1      71.383  30.031  43.949  1.00  0.00     0.210 HD
ENDBRANCH  29  30
BRANCH  29  32
HETATM   32  C13 UNL     1      69.146  27.782  44.167  1.00  0.00     0.198 C 
BRANCH  32  33
HETATM   33  O6  UNL     1      68.257  27.752  43.083  1.00  0.00    -0.398 OA
ATOM     34  H6  UNL     1      67.753  28.557  43.095  1.00  0.00     0.209 HD
ENDBRANCH  32  33
ENDBRANCH  29  32
ENDBRANCH  26  29
ENDBRANCH  23  26
ENDBRANCH  22  23
ENDBRANCH  17  22
TORSDOF 9
ENDMDL
