MODEL 4
REMARK VINA RESULT: -8.073184928      1.989      4.752
REMARK  9 active torsions:
REMARK  status: ('A' for Active; 'I' for Inactive)
REMARK    1  A    between atoms: N4_17  and  C9_18 
REMARK    2  A    between atoms: C9_18  and  C10_19 
REMARK    3  A    between atoms: C10_19  and  O3_20 
REMARK    4  A    between atoms: C10_19  and  C11_22 
REMARK    5  A    between atoms: C11_22  and  O4_23 
REMARK    6  A    between atoms: C11_22  and  C12_25 
REMARK    7  A    between atoms: C12_25  and  O5_26 
REMARK    8  A    between atoms: C12_25  and  C13_28 
REMARK    9  A    between atoms: C13_28  and  O6_29 
ROOT
HETATM    1  C1  UNL     1      70.894  21.463  38.664  1.00  0.00     0.049 C 
HETATM    2  C2  UNL     1      71.914  22.358  39.288  1.00  0.00    -0.054 A 
HETATM    3  C3  UNL     1      71.543  23.307  40.194  1.00  0.00     0.039 A 
HETATM    4  C4  UNL     1      72.479  24.139  40.775  1.00  0.00     0.060 A 
HETATM    5  N1  UNL     1      72.096  25.065  41.666  1.00  0.00    -0.347 N 
ATOM      6  H1  UNL     1      71.113  25.167  41.921  1.00  0.00     0.166 HD
HETATM    7  C5  UNL     1      73.033  25.856  42.216  1.00  0.00     0.146 A 
HETATM    8  C6  UNL     1      72.738  26.839  43.142  1.00  0.00     0.280 A 
HETATM    9  O1  UNL     1      71.536  27.017  43.503  1.00  0.00    -0.265 OA
HETATM   10  N2  UNL     1      73.757  27.569  43.624  1.00  0.00    -0.273 N 
ATOM     11  H2  UNL     1      73.553  28.296  44.309  1.00  0.00     0.173 HD
HETATM   12  C7  UNL     1      75.036  27.386  43.247  1.00  0.00     0.328 A 
HETATM   13  O2  UNL     1      75.902  28.133  43.768  1.00  0.00    -0.247 OA
HETATM   14  N3  UNL     1      75.402  26.440  42.341  1.00  0.00    -0.292 N 
ATOM     15  H3  UNL     1      76.377  26.315  42.068  1.00  0.00     0.172 HD
HETATM   16  C8  UNL     1      74.426  25.677  41.823  1.00  0.00     0.145 A 
HETATM   17  N4  UNL     1      74.795  24.732  40.918  1.00  0.00    -0.327 N 
HETATM   18  C14 UNL     1      73.822  23.968  40.400  1.00  0.00     0.063 A 
HETATM   19  C15 UNL     1      74.180  23.004  39.483  1.00  0.00     0.039 A 
HETATM   20  C16 UNL     1      73.224  22.176  38.907  1.00  0.00    -0.054 A 
HETATM   21  C17 UNL     1      73.610  21.146  37.928  1.00  0.00     0.049 C 
ENDROOT
BRANCH  17  22
HETATM   22  C9  UNL     1      76.147  24.564  40.544  1.00  0.00     0.165 C 
BRANCH  22  23
HETATM   23  C10 UNL     1      76.589  25.279  39.308  1.00  0.00     0.167 C 
BRANCH  23  24
HETATM   24  O3  UNL     1      76.257  24.739  38.112  1.00  0.00    -0.391 OA
ATOM     25  H3  UNL     1      75.881  25.313  37.455  1.00  0.00     0.210 HD
ENDBRANCH  23  24
BRANCH  23  26
HETATM   26  C11 UNL     1      78.092  25.530  39.456  1.00  0.00     0.179 C 
BRANCH  26  27
HETATM   27  O4  UNL     1      78.808  24.350  39.274  1.00  0.00    -0.390 OA
ATOM     28  H4  UNL     1      79.741  24.523  39.262  1.00  0.00     0.210 HD
ENDBRANCH  26  27
BRANCH  26  29
HETATM   29  C12 UNL     1      78.424  26.204  40.750  1.00  0.00     0.173 C 
BRANCH  29  30
HETATM   30  O5  UNL     1      77.820  27.461  40.732  1.00  0.00    -0.391 OA
ATOM     31  H5  UNL     1      78.492  28.100  40.941  1.00  0.00     0.210 HD
ENDBRANCH  29  30
BRANCH  29  32
HETATM   32  C13 UNL     1      79.915  26.387  40.936  1.00  0.00     0.198 C 
BRANCH  32  33
HETATM   33  O6  UNL     1      80.420  27.003  39.782  1.00  0.00    -0.398 OA
ATOM     34  H6  UNL     1      81.102  27.609  40.050  1.00  0.00     0.209 HD
ENDBRANCH  32  33
ENDBRANCH  29  32
ENDBRANCH  26  29
ENDBRANCH  23  26
ENDBRANCH  22  23
ENDBRANCH  17  22
TORSDOF 9
ENDMDL
