MODEL 1
REMARK VINA RESULT: -8.960025487      0.000      0.000
REMARK  9 active torsions:
REMARK  status: ('A' for Active; 'I' for Inactive)
REMARK    1  A    between atoms: N4_17  and  C9_18 
REMARK    2  A    between atoms: C9_18  and  C10_19 
REMARK    3  A    between atoms: C10_19  and  O3_20 
REMARK    4  A    between atoms: C10_19  and  C11_22 
REMARK    5  A    between atoms: C11_22  and  O4_23 
REMARK    6  A    between atoms: C11_22  and  C12_25 
REMARK    7  A    between atoms: C12_25  and  O5_26 
REMARK    8  A    between atoms: C12_25  and  C13_28 
REMARK    9  A    between atoms: C13_28  and  O6_29 
ROOT
HETATM    1  C1  UNL     1      72.395  27.677  43.974  1.00  0.00     0.049 C 
HETATM    2  C2  UNL     1      72.985  26.699  43.012  1.00  0.00    -0.054 A 
HETATM    3  C3  UNL     1      72.186  25.830  42.330  1.00  0.00     0.039 A 
HETATM    4  C4  UNL     1      72.724  24.922  41.438  1.00  0.00     0.060 A 
HETATM    5  N1  UNL     1      71.923  24.075  40.775  1.00  0.00    -0.347 N 
ATOM      6  H1  UNL     1      70.914  24.090  40.921  1.00  0.00     0.166 HD
HETATM    7  C5  UNL     1      72.479  23.207  39.912  1.00  0.00     0.146 A 
HETATM    8  C6  UNL     1      71.738  22.296  39.182  1.00  0.00     0.280 A 
HETATM    9  O1  UNL     1      70.478  22.262  39.317  1.00  0.00    -0.265 OA
HETATM   10  N2  UNL     1      72.402  21.477  38.349  1.00  0.00    -0.273 N 
ATOM     11  H2  UNL     1      71.867  20.802  37.804  1.00  0.00     0.173 HD
HETATM   12  C7  UNL     1      73.738  21.505  38.199  1.00  0.00     0.328 A 
HETATM   13  O2  UNL     1      74.245  20.688  37.390  1.00  0.00    -0.247 OA
HETATM   14  N3  UNL     1      74.531  22.373  38.883  1.00  0.00    -0.292 N 
ATOM     15  H3  UNL     1      75.544  22.382  38.755  1.00  0.00     0.172 HD
HETATM   16  C8  UNL     1      73.925  23.219  39.732  1.00  0.00     0.145 A 
HETATM   17  N4  UNL     1      74.721  24.085  40.414  1.00  0.00    -0.327 N 
HETATM   18  C14 UNL     1      74.117  24.932  41.262  1.00  0.00     0.063 A 
HETATM   19  C15 UNL     1      74.909  25.818  41.959  1.00  0.00     0.039 A 
HETATM   20  C16 UNL     1      74.351  26.724  42.853  1.00  0.00    -0.054 A 
HETATM   21  C17 UNL     1      75.201  27.670  43.596  1.00  0.00     0.049 C 
ENDROOT
BRANCH  17  22
HETATM   22  C9  UNL     1      76.121  24.091  40.233  1.00  0.00     0.165 C 
BRANCH  22  23
HETATM   23  C10 UNL     1      76.630  24.767  39.001  1.00  0.00     0.167 C 
BRANCH  23  24
HETATM   24  O3  UNL     1      76.491  24.120  37.820  1.00  0.00    -0.391 OA
ATOM     25  H3  UNL     1      76.723  24.587  37.027  1.00  0.00     0.210 HD
ENDBRANCH  23  24
BRANCH  23  26
HETATM   26  C11 UNL     1      78.075  25.184  39.288  1.00  0.00     0.179 C 
BRANCH  26  27
HETATM   27  O4  UNL     1      78.889  24.065  39.436  1.00  0.00    -0.390 OA
ATOM     28  H4  UNL     1      79.800  24.292  39.293  1.00  0.00     0.210 HD
ENDBRANCH  26  27
BRANCH  26  29
HETATM   29  C12 UNL     1      78.168  26.114  40.457  1.00  0.00     0.173 C 
BRANCH  29  30
HETATM   30  O5  UNL     1      77.665  27.348  40.047  1.00  0.00    -0.391 OA
ATOM     31  H5  UNL     1      76.728  27.339  40.208  1.00  0.00     0.210 HD
ENDBRANCH  29  30
BRANCH  29  32
HETATM   32  C13 UNL     1      79.595  26.307  40.925  1.00  0.00     0.198 C 
BRANCH  32  33
HETATM   33  O6  UNL     1      80.302  26.950  39.899  1.00  0.00    -0.398 OA
ATOM     34  H6  UNL     1      80.247  26.406  39.122  1.00  0.00     0.209 HD
ENDBRANCH  32  33
ENDBRANCH  29  32
ENDBRANCH  26  29
ENDBRANCH  23  26
ENDBRANCH  22  23
ENDBRANCH  17  22
TORSDOF 9
ENDMDL
