MODEL 9
REMARK VINA RESULT: -9.693753842      2.235      9.308
REMARK  11 active torsions:
REMARK  status: ('A' for Active; 'I' for Inactive)
REMARK    1  A    between atoms: C7_7  and  C8_8 
REMARK    2  A    between atoms: C8_8  and  N1_9 
REMARK       I    between atoms: N1_9  and  C9_11 
REMARK    3  A    between atoms: C9_11  and  C10_13 
REMARK       I    between atoms: N2_14  and  C11_15 
REMARK    4  A    between atoms: C11_15  and  C12_17 
REMARK    5  A    between atoms: C12_17  and  O3_18 
REMARK    6  A    between atoms: C12_17  and  C13_20 
REMARK    7  A    between atoms: C13_20  and  C14_21 
REMARK    8  A    between atoms: C13_20  and  N3_28 
REMARK    9  A    between atoms: C14_21  and  C15_22 
REMARK       I    between atoms: N3_28  and  C21_30 
REMARK   10  A    between atoms: C21_30  and  C22_32 
REMARK   11  A    between atoms: C26_36  and  O5_37 
ROOT
HETATM    1  C12 UNL     1      16.876  -3.101  16.415  1.00  0.00     0.233 C 
ENDROOT
BRANCH   1   2
HETATM    2  C11 UNL     1      17.854  -2.045  16.459  1.00  0.00     0.252 C 
HETATM    3  N2  UNL     1      18.033  -1.190  17.602  1.00  0.00    -0.326 N 
HETATM    4  C10 UNL     1      19.038  -0.127  17.667  1.00  0.00     0.198 C 
HETATM    5  C29 UNL     1      17.230  -1.327  18.784  1.00  0.00     0.201 C 
HETATM    6  C30 UNL     1      18.464   1.056  18.367  1.00  0.00     0.032 C 
HETATM    7  S1  UNL     1      17.717   0.138  19.787  1.00  0.00    -0.137 SA
HETATM    8  C31 UNL     1      17.391   1.748  17.584  1.00  0.00     0.029 C 
HETATM    9  C32 UNL     1      19.483   2.042  18.805  1.00  0.00     0.029 C 
HETATM   10  O2  UNL     1      18.602  -1.836  15.474  1.00  0.00    -0.270 OA
BRANCH   4  11
HETATM   11  C9  UNL     1      20.318  -0.619  18.196  1.00  0.00     0.242 C 
HETATM   12  N1  UNL     1      21.506   0.106  17.925  1.00  0.00    -0.355 N 
ATOM     13  H1  UNL     1      21.428   0.957  17.368  1.00  0.00     0.162 HD
HETATM   14  O1  UNL     1      20.361  -1.670  18.881  1.00  0.00    -0.271 OA
BRANCH  12  15
HETATM   15  C8  UNL     1      22.805  -0.277  18.380  1.00  0.00     0.161 C 
BRANCH  15  16
HETATM   16  C7  UNL     1      23.532   0.770  19.130  1.00  0.00    -0.035 A 
HETATM   17  C2  UNL     1      24.925   0.707  19.092  1.00  0.00    -0.054 A 
HETATM   18  C1  UNL     1      25.631  -0.354  18.325  1.00  0.00     0.049 C 
HETATM   19  C3  UNL     1      25.645   1.658  19.786  1.00  0.00     0.007 A 
HETATM   20  C4  UNL     1      24.994   2.635  20.490  1.00  0.00     0.001 A 
HETATM   21  C5  UNL     1      23.623   2.733  20.556  1.00  0.00     0.001 A 
HETATM   22  C6  UNL     1      22.916   1.761  19.848  1.00  0.00     0.009 A 
ENDBRANCH  15  16
ENDBRANCH  12  15
ENDBRANCH   4  11
ENDBRANCH   1   2
BRANCH   1  23
HETATM   23  O3  UNL     1      15.605  -2.618  16.196  1.00  0.00    -0.384 OA
ATOM     24  H3  UNL     1      15.287  -2.835  15.327  1.00  0.00     0.210 HD
ENDBRANCH   1  23
BRANCH   1  25
HETATM   25  C13 UNL     1      17.217  -4.236  15.477  1.00  0.00     0.127 C 
BRANCH  25  26
HETATM   26  C14 UNL     1      16.455  -5.449  15.880  1.00  0.00     0.066 C 
BRANCH  26  27
HETATM   27  C15 UNL     1      15.795  -6.196  14.805  1.00  0.00    -0.056 A 
HETATM   28  C16 UNL     1      16.326  -7.384  14.380  1.00  0.00     0.007 A 
HETATM   29  C17 UNL     1      15.774  -8.158  13.359  1.00  0.00     0.001 A 
HETATM   30  C18 UNL     1      14.633  -7.686  12.758  1.00  0.00     0.000 A 
HETATM   31  C19 UNL     1      14.057  -6.484  13.157  1.00  0.00     0.001 A 
HETATM   32  C20 UNL     1      14.646  -5.767  14.168  1.00  0.00     0.007 A 
ENDBRANCH  26  27
ENDBRANCH  25  26
BRANCH  25  33
HETATM   33  N3  UNL     1      18.653  -4.462  15.434  1.00  0.00    -0.349 N 
HETATM   34  C21 UNL     1      19.382  -4.892  14.324  1.00  0.00     0.252 C 
HETATM   35  O4  UNL     1      18.754  -5.109  13.254  1.00  0.00    -0.268 OA
ATOM     36  H3  UNL     1      19.174  -4.291  16.293  1.00  0.00     0.163 HD
BRANCH  34  37
HETATM   37  C22 UNL     1      20.825  -5.110  14.289  1.00  0.00     0.040 A 
HETATM   38  C23 UNL     1      21.732  -4.114  14.556  1.00  0.00     0.018 A 
HETATM   39  C24 UNL     1      23.076  -4.435  14.504  1.00  0.00     0.004 A 
HETATM   40  C25 UNL     1      23.505  -5.707  14.197  1.00  0.00     0.037 A 
HETATM   41  C26 UNL     1      22.590  -6.721  13.926  1.00  0.00     0.072 A 
HETATM   42  C27 UNL     1      21.258  -6.403  13.976  1.00  0.00    -0.013 A 
HETATM   43  C28 UNL     1      20.225  -7.450  13.676  1.00  0.00     0.052 C 
BRANCH  41  44
HETATM   44  O5  UNL     1      23.036  -7.985  13.622  1.00  0.00    -0.360 OA
ATOM     45  H5  UNL     1      23.240  -8.597  14.320  1.00  0.00     0.217 HD
ENDBRANCH  41  44
ENDBRANCH  34  37
ENDBRANCH  25  33
ENDBRANCH   1  25
TORSDOF 11
ENDMDL
