MODEL 2
REMARK VINA RESULT: -11.890422256      0.742      1.445
REMARK  11 active torsions:
REMARK  status: ('A' for Active; 'I' for Inactive)
REMARK    1  A    between atoms: C7_7  and  C8_8 
REMARK    2  A    between atoms: C8_8  and  N1_9 
REMARK       I    between atoms: N1_9  and  C9_11 
REMARK    3  A    between atoms: C9_11  and  C10_13 
REMARK       I    between atoms: N2_14  and  C11_15 
REMARK    4  A    between atoms: C11_15  and  C12_17 
REMARK    5  A    between atoms: C12_17  and  O3_18 
REMARK    6  A    between atoms: C12_17  and  C13_20 
REMARK    7  A    between atoms: C13_20  and  C14_21 
REMARK    8  A    between atoms: C13_20  and  N3_28 
REMARK    9  A    between atoms: C14_21  and  C15_22 
REMARK       I    between atoms: N3_28  and  C21_30 
REMARK   10  A    between atoms: C21_30  and  C22_32 
REMARK   11  A    between atoms: C26_36  and  O5_37 
ROOT
HETATM    1  C12 UNL     1      20.696  -0.608  15.376  1.00  0.00     0.233 C 
ENDROOT
BRANCH   1   2
HETATM    2  C11 UNL     1      20.325  -1.899  14.858  1.00  0.00     0.252 C 
HETATM    3  N2  UNL     1      20.928  -3.126  15.305  1.00  0.00    -0.326 N 
HETATM    4  C10 UNL     1      20.544  -4.446  14.801  1.00  0.00     0.198 C 
HETATM    5  C29 UNL     1      21.961  -3.144  16.302  1.00  0.00     0.201 C 
HETATM    6  C30 UNL     1      21.759  -5.295  14.655  1.00  0.00     0.032 C 
HETATM    7  S1  UNL     1      22.507  -4.902  16.300  1.00  0.00    -0.137 SA
HETATM    8  C31 UNL     1      22.672  -4.843  13.557  1.00  0.00     0.029 C 
HETATM    9  C32 UNL     1      21.462  -6.741  14.501  1.00  0.00     0.029 C 
HETATM   10  O2  UNL     1      19.437  -1.993  13.977  1.00  0.00    -0.270 OA
BRANCH   4  11
HETATM   11  C9  UNL     1      19.451  -5.033  15.589  1.00  0.00     0.242 C 
HETATM   12  N1  UNL     1      18.324  -5.574  14.918  1.00  0.00    -0.355 N 
ATOM     13  H1  UNL     1      18.315  -5.540  13.899  1.00  0.00     0.162 HD
HETATM   14  O1  UNL     1      19.510  -5.055  16.842  1.00  0.00    -0.271 OA
BRANCH  12  15
HETATM   15  C8  UNL     1      17.202  -6.164  15.577  1.00  0.00     0.161 C 
BRANCH  15  16
HETATM   16  C7  UNL     1      15.941  -6.128  14.805  1.00  0.00    -0.035 A 
HETATM   17  C2  UNL     1      15.177  -4.966  14.917  1.00  0.00    -0.054 A 
HETATM   18  C1  UNL     1      15.622  -3.826  15.763  1.00  0.00     0.049 C 
HETATM   19  C3  UNL     1      13.987  -4.892  14.222  1.00  0.00     0.007 A 
HETATM   20  C4  UNL     1      13.579  -5.941  13.443  1.00  0.00     0.001 A 
HETATM   21  C5  UNL     1      14.301  -7.105  13.305  1.00  0.00     0.001 A 
HETATM   22  C6  UNL     1      15.499  -7.158  14.018  1.00  0.00     0.009 A 
ENDBRANCH  15  16
ENDBRANCH  12  15
ENDBRANCH   4  11
ENDBRANCH   1   2
BRANCH   1  23
HETATM   23  O3  UNL     1      20.350   0.411  14.517  1.00  0.00    -0.384 OA
ATOM     24  H3  UNL     1      19.840   0.097  13.780  1.00  0.00     0.210 HD
ENDBRANCH   1  23
BRANCH   1  25
HETATM   25  C13 UNL     1      20.232  -0.338  16.788  1.00  0.00     0.127 C 
BRANCH  25  26
HETATM   26  C14 UNL     1      18.897   0.318  16.747  1.00  0.00     0.066 C 
BRANCH  26  27
HETATM   27  C15 UNL     1      18.255   0.579  18.039  1.00  0.00    -0.056 A 
HETATM   28  C16 UNL     1      17.957   1.866  18.400  1.00  0.00     0.007 A 
HETATM   29  C17 UNL     1      17.356   2.210  19.611  1.00  0.00     0.001 A 
HETATM   30  C18 UNL     1      17.053   1.189  20.478  1.00  0.00     0.000 A 
HETATM   31  C19 UNL     1      17.336  -0.134  20.153  1.00  0.00     0.001 A 
HETATM   32  C20 UNL     1      17.927  -0.411  18.947  1.00  0.00     0.007 A 
ENDBRANCH  26  27
ENDBRANCH  25  26
BRANCH  25  33
HETATM   33  N3  UNL     1      21.218   0.441  17.520  1.00  0.00    -0.349 N 
HETATM   34  C21 UNL     1      21.932   0.014  18.641  1.00  0.00     0.252 C 
HETATM   35  O4  UNL     1      21.712  -1.149  19.073  1.00  0.00    -0.268 OA
ATOM     36  H3  UNL     1      21.405   1.385  17.184  1.00  0.00     0.163 HD
BRANCH  34  37
HETATM   37  C22 UNL     1      22.924   0.801  19.366  1.00  0.00     0.040 A 
HETATM   38  C23 UNL     1      24.253   0.455  19.416  1.00  0.00     0.018 A 
HETATM   39  C24 UNL     1      25.108   1.278  20.123  1.00  0.00     0.004 A 
HETATM   40  C25 UNL     1      24.657   2.413  20.762  1.00  0.00     0.037 A 
HETATM   41  C26 UNL     1      23.313   2.769  20.714  1.00  0.00     0.072 A 
HETATM   42  C27 UNL     1      22.464   1.952  20.014  1.00  0.00    -0.013 A 
HETATM   43  C28 UNL     1      21.000   2.276  19.942  1.00  0.00     0.052 C 
BRANCH  41  44
HETATM   44  O5  UNL     1      22.881   3.906  21.356  1.00  0.00    -0.360 OA
ATOM     45  H5  UNL     1      21.972   3.984  21.622  1.00  0.00     0.217 HD
ENDBRANCH  41  44
ENDBRANCH  34  37
ENDBRANCH  25  33
ENDBRANCH   1  25
TORSDOF 11
ENDMDL
