MODEL 6
REMARK VINA RESULT: -10.093481534      2.204      4.638
REMARK  11 active torsions:
REMARK  status: ('A' for Active; 'I' for Inactive)
REMARK    1  A    between atoms: C7_7  and  C8_8 
REMARK    2  A    between atoms: C8_8  and  N1_9 
REMARK       I    between atoms: N1_9  and  C9_11 
REMARK    3  A    between atoms: C9_11  and  C10_13 
REMARK       I    between atoms: N2_14  and  C11_15 
REMARK    4  A    between atoms: C11_15  and  C12_17 
REMARK    5  A    between atoms: C12_17  and  O3_18 
REMARK    6  A    between atoms: C12_17  and  C13_20 
REMARK    7  A    between atoms: C13_20  and  C14_21 
REMARK    8  A    between atoms: C13_20  and  N3_28 
REMARK    9  A    between atoms: C14_21  and  C15_22 
REMARK       I    between atoms: N3_28  and  C21_30 
REMARK   10  A    between atoms: C21_30  and  C22_32 
REMARK   11  A    between atoms: C26_36  and  O5_37 
ROOT
HETATM    1  C12 UNL     1      22.361  -2.612  17.259  1.00  0.00     0.233 C 
ENDROOT
BRANCH   1   2
HETATM    2  C11 UNL     1      21.012  -3.081  17.444  1.00  0.00     0.252 C 
HETATM    3  N2  UNL     1      20.003  -2.989  16.423  1.00  0.00    -0.326 N 
HETATM    4  C10 UNL     1      18.634  -3.481  16.593  1.00  0.00     0.198 C 
HETATM    5  C29 UNL     1      20.275  -2.407  15.139  1.00  0.00     0.201 C 
HETATM    6  C30 UNL     1      17.683  -2.537  15.943  1.00  0.00     0.032 C 
HETATM    7  S1  UNL     1      18.610  -2.339  14.355  1.00  0.00    -0.137 SA
HETATM    8  C31 UNL     1      17.584  -1.217  16.644  1.00  0.00     0.029 C 
HETATM    9  C32 UNL     1      16.327  -3.102  15.738  1.00  0.00     0.029 C 
HETATM   10  O2  UNL     1      20.668  -3.599  18.534  1.00  0.00    -0.270 OA
BRANCH   4  11
HETATM   11  C9  UNL     1      18.507  -4.889  16.187  1.00  0.00     0.242 C 
HETATM   12  N1  UNL     1      17.226  -5.496  16.181  1.00  0.00    -0.355 N 
ATOM     13  H1  UNL     1      16.427  -4.926  16.458  1.00  0.00     0.162 HD
HETATM   14  O1  UNL     1      19.521  -5.548  15.851  1.00  0.00    -0.271 OA
BRANCH  12  15
HETATM   15  C8  UNL     1      16.980  -6.854  15.813  1.00  0.00     0.161 C 
BRANCH  15  16
HETATM   16  C7  UNL     1      16.033  -7.031  14.692  1.00  0.00    -0.035 A 
HETATM   17  C2  UNL     1      16.238  -8.143  13.876  1.00  0.00    -0.054 A 
HETATM   18  C1  UNL     1      17.347  -9.100  14.135  1.00  0.00     0.049 C 
HETATM   19  C3  UNL     1      15.383  -8.343  12.810  1.00  0.00     0.007 A 
HETATM   20  C4  UNL     1      14.362  -7.463  12.573  1.00  0.00     0.001 A 
HETATM   21  C5  UNL     1      14.125  -6.353  13.352  1.00  0.00     0.001 A 
HETATM   22  C6  UNL     1      15.002  -6.171  14.421  1.00  0.00     0.009 A 
ENDBRANCH  15  16
ENDBRANCH  12  15
ENDBRANCH   4  11
ENDBRANCH   1   2
BRANCH   1  23
HETATM   23  O3  UNL     1      22.823  -2.860  15.986  1.00  0.00    -0.384 OA
ATOM     24  H3  UNL     1      22.236  -2.519  15.322  1.00  0.00     0.210 HD
ENDBRANCH   1  23
BRANCH   1  25
HETATM   25  C13 UNL     1      22.592  -1.177  17.673  1.00  0.00     0.127 C 
BRANCH  25  26
HETATM   26  C14 UNL     1      23.977  -1.036  18.197  1.00  0.00     0.066 C 
BRANCH  26  27
HETATM   27  C15 UNL     1      24.190  -0.004  19.216  1.00  0.00    -0.056 A 
HETATM   28  C16 UNL     1      24.745   1.196  18.859  1.00  0.00     0.007 A 
HETATM   29  C17 UNL     1      24.993   2.232  19.759  1.00  0.00     0.001 A 
HETATM   30  C18 UNL     1      24.657   2.019  21.074  1.00  0.00     0.000 A 
HETATM   31  C19 UNL     1      24.090   0.816  21.483  1.00  0.00     0.001 A 
HETATM   32  C20 UNL     1      23.868  -0.166  20.550  1.00  0.00     0.007 A 
ENDBRANCH  26  27
ENDBRANCH  25  26
BRANCH  25  33
HETATM   33  N3  UNL     1      21.583  -0.742  18.626  1.00  0.00    -0.349 N 
HETATM   34  C21 UNL     1      20.531   0.136  18.361  1.00  0.00     0.252 C 
HETATM   35  O4  UNL     1      20.432   0.605  17.196  1.00  0.00    -0.268 OA
ATOM     36  H3  UNL     1      21.651  -1.112  19.573  1.00  0.00     0.163 HD
BRANCH  34  37
HETATM   37  C22 UNL     1      19.519   0.563  19.323  1.00  0.00     0.040 A 
HETATM   38  C23 UNL     1      18.326  -0.097  19.487  1.00  0.00     0.018 A 
HETATM   39  C24 UNL     1      17.445   0.388  20.434  1.00  0.00     0.004 A 
HETATM   40  C25 UNL     1      17.740   1.496  21.197  1.00  0.00     0.037 A 
HETATM   41  C26 UNL     1      18.948   2.169  21.037  1.00  0.00     0.072 A 
HETATM   42  C27 UNL     1      19.822   1.689  20.096  1.00  0.00    -0.013 A 
HETATM   43  C28 UNL     1      21.133   2.384  19.866  1.00  0.00     0.052 C 
BRANCH  41  44
HETATM   44  O5  UNL     1      19.228   3.273  21.808  1.00  0.00    -0.360 OA
ATOM     45  H5  UNL     1      19.906   3.228  22.473  1.00  0.00     0.217 HD
ENDBRANCH  41  44
ENDBRANCH  34  37
ENDBRANCH  25  33
ENDBRANCH   1  25
TORSDOF 11
ENDMDL
