MODEL 10
REMARK VINA RESULT: -9.652725072      3.069     10.002
REMARK  11 active torsions:
REMARK  status: ('A' for Active; 'I' for Inactive)
REMARK    1  A    between atoms: C7_7  and  C8_8 
REMARK    2  A    between atoms: C8_8  and  N1_9 
REMARK       I    between atoms: N1_9  and  C9_11 
REMARK    3  A    between atoms: C9_11  and  C10_13 
REMARK       I    between atoms: N2_14  and  C11_15 
REMARK    4  A    between atoms: C11_15  and  C12_17 
REMARK    5  A    between atoms: C12_17  and  O3_18 
REMARK    6  A    between atoms: C12_17  and  C13_20 
REMARK    7  A    between atoms: C13_20  and  C14_21 
REMARK    8  A    between atoms: C13_20  and  N3_28 
REMARK    9  A    between atoms: C14_21  and  C15_22 
REMARK       I    between atoms: N3_28  and  C21_30 
REMARK   10  A    between atoms: C21_30  and  C22_32 
REMARK   11  A    between atoms: C26_36  and  O5_37 
ROOT
HETATM    1  C12 UNL     1      19.381  -5.802  14.504  1.00  0.00     0.233 C 
ENDROOT
BRANCH   1   2
HETATM    2  C11 UNL     1      19.510  -5.015  15.702  1.00  0.00     0.252 C 
HETATM    3  N2  UNL     1      19.820  -3.610  15.688  1.00  0.00    -0.326 N 
HETATM    4  C10 UNL     1      19.932  -2.795  16.899  1.00  0.00     0.198 C 
HETATM    5  C29 UNL     1      20.034  -2.894  14.462  1.00  0.00     0.201 C 
HETATM    6  C30 UNL     1      21.053  -1.826  16.742  1.00  0.00     0.032 C 
HETATM    7  S1  UNL     1      20.615  -1.246  15.042  1.00  0.00    -0.137 SA
HETATM    8  C31 UNL     1      22.403  -2.476  16.728  1.00  0.00     0.029 C 
HETATM    9  C32 UNL     1      21.034  -0.725  17.737  1.00  0.00     0.029 C 
HETATM   10  O2  UNL     1      19.350  -5.547  16.827  1.00  0.00    -0.270 OA
BRANCH   4  11
HETATM   11  C9  UNL     1      18.640  -2.211  17.285  1.00  0.00     0.242 C 
HETATM   12  N1  UNL     1      18.550  -1.451  18.479  1.00  0.00    -0.355 N 
ATOM     13  H1  UNL     1      19.399  -1.330  19.031  1.00  0.00     0.162 HD
HETATM   14  O1  UNL     1      17.624  -2.385  16.569  1.00  0.00    -0.271 OA
BRANCH  12  15
HETATM   15  C8  UNL     1      17.350  -0.842  18.958  1.00  0.00     0.161 C 
BRANCH  15  16
HETATM   16  C7  UNL     1      17.529   0.502  19.547  1.00  0.00    -0.035 A 
HETATM   17  C2  UNL     1      17.791   1.541  18.656  1.00  0.00    -0.054 A 
HETATM   18  C1  UNL     1      17.874   1.301  17.190  1.00  0.00     0.049 C 
HETATM   19  C3  UNL     1      17.975   2.812  19.162  1.00  0.00     0.007 A 
HETATM   20  C4  UNL     1      17.897   3.032  20.511  1.00  0.00     0.001 A 
HETATM   21  C5  UNL     1      17.642   2.036  21.426  1.00  0.00     0.001 A 
HETATM   22  C6  UNL     1      17.461   0.761  20.891  1.00  0.00     0.009 A 
ENDBRANCH  15  16
ENDBRANCH  12  15
ENDBRANCH   4  11
ENDBRANCH   1   2
BRANCH   1  23
HETATM   23  O3  UNL     1      20.278  -6.847  14.475  1.00  0.00    -0.384 OA
ATOM     24  H3  UNL     1      21.125  -6.599  14.826  1.00  0.00     0.210 HD
ENDBRANCH   1  23
BRANCH   1  25
HETATM   25  C13 UNL     1      17.974  -6.259  14.198  1.00  0.00     0.127 C 
BRANCH  25  26
HETATM   26  C14 UNL     1      17.010  -5.410  14.949  1.00  0.00     0.066 C 
BRANCH  26  27
HETATM   27  C15 UNL     1      15.622  -5.421  14.477  1.00  0.00    -0.056 A 
HETATM   28  C16 UNL     1      14.887  -4.265  14.508  1.00  0.00     0.007 A 
HETATM   29  C17 UNL     1      13.559  -4.181  14.090  1.00  0.00     0.001 A 
HETATM   30  C18 UNL     1      12.972  -5.332  13.622  1.00  0.00     0.000 A 
HETATM   31  C19 UNL     1      13.679  -6.528  13.571  1.00  0.00     0.001 A 
HETATM   32  C20 UNL     1      14.984  -6.548  13.996  1.00  0.00     0.007 A 
ENDBRANCH  26  27
ENDBRANCH  25  26
BRANCH  25  33
HETATM   33  N3  UNL     1      17.814  -7.676  14.480  1.00  0.00    -0.349 N 
HETATM   34  C21 UNL     1      18.036  -8.721  13.581  1.00  0.00     0.252 C 
HETATM   35  O4  UNL     1      18.408  -8.427  12.415  1.00  0.00    -0.268 OA
ATOM     36  H3  UNL     1      17.512  -7.930  15.420  1.00  0.00     0.163 HD
BRANCH  34  37
HETATM   37  C22 UNL     1      17.879 -10.142  13.876  1.00  0.00     0.040 A 
HETATM   38  C23 UNL     1      18.896 -10.911  14.386  1.00  0.00     0.018 A 
HETATM   39  C24 UNL     1      18.633 -12.245  14.637  1.00  0.00     0.004 A 
HETATM   40  C25 UNL     1      17.396 -12.797  14.390  1.00  0.00     0.037 A 
HETATM   41  C26 UNL     1      16.361 -12.023  13.874  1.00  0.00     0.072 A 
HETATM   42  C27 UNL     1      16.621 -10.701  13.623  1.00  0.00    -0.013 A 
HETATM   43  C28 UNL     1      15.549  -9.821  13.049  1.00  0.00     0.052 C 
BRANCH  41  44
HETATM   44  O5  UNL     1      15.132 -12.591  13.634  1.00  0.00    -0.360 OA
ATOM     45  H5  UNL     1      14.483 -12.630  14.327  1.00  0.00     0.217 HD
ENDBRANCH  41  44
ENDBRANCH  34  37
ENDBRANCH  25  33
ENDBRANCH   1  25
TORSDOF 11
ENDMDL
