MODEL 4
REMARK VINA RESULT: -11.700077953      0.781      1.795
REMARK  11 active torsions:
REMARK  status: ('A' for Active; 'I' for Inactive)
REMARK    1  A    between atoms: C7_7  and  C8_8 
REMARK    2  A    between atoms: C8_8  and  N1_9 
REMARK       I    between atoms: N1_9  and  C9_11 
REMARK    3  A    between atoms: C9_11  and  C10_13 
REMARK       I    between atoms: N2_14  and  C11_15 
REMARK    4  A    between atoms: C11_15  and  C12_17 
REMARK    5  A    between atoms: C12_17  and  O3_18 
REMARK    6  A    between atoms: C12_17  and  C13_20 
REMARK    7  A    between atoms: C13_20  and  C14_21 
REMARK    8  A    between atoms: C13_20  and  N3_28 
REMARK    9  A    between atoms: C14_21  and  C15_22 
REMARK       I    between atoms: N3_28  and  C21_30 
REMARK   10  A    between atoms: C21_30  and  C22_32 
REMARK   11  A    between atoms: C26_36  and  O5_37 
ROOT
HETATM    1  C12 UNL     1      20.699  -0.618  15.389  1.00  0.00     0.233 C 
ENDROOT
BRANCH   1   2
HETATM    2  C11 UNL     1      20.344  -1.913  14.869  1.00  0.00     0.252 C 
HETATM    3  N2  UNL     1      20.955  -3.134  15.324  1.00  0.00    -0.326 N 
HETATM    4  C10 UNL     1      20.588  -4.458  14.818  1.00  0.00     0.198 C 
HETATM    5  C29 UNL     1      21.979  -3.140  16.330  1.00  0.00     0.201 C 
HETATM    6  C30 UNL     1      21.813  -5.295  14.685  1.00  0.00     0.032 C 
HETATM    7  S1  UNL     1      22.542  -4.893  16.335  1.00  0.00    -0.137 SA
HETATM    8  C31 UNL     1      22.732  -4.836  13.595  1.00  0.00     0.029 C 
HETATM    9  C32 UNL     1      21.532  -6.744  14.530  1.00  0.00     0.029 C 
HETATM   10  O2  UNL     1      19.466  -2.017  13.980  1.00  0.00    -0.270 OA
BRANCH   4  11
HETATM   11  C9  UNL     1      19.493  -5.054  15.597  1.00  0.00     0.242 C 
HETATM   12  N1  UNL     1      18.398  -5.644  14.916  1.00  0.00    -0.355 N 
ATOM     13  H1  UNL     1      18.411  -5.636  13.897  1.00  0.00     0.162 HD
HETATM   14  O1  UNL     1      19.525  -5.042  16.851  1.00  0.00    -0.271 OA
BRANCH  12  15
HETATM   15  C8  UNL     1      17.277  -6.247  15.565  1.00  0.00     0.161 C 
BRANCH  15  16
HETATM   16  C7  UNL     1      15.996  -6.118  14.837  1.00  0.00    -0.035 A 
HETATM   17  C2  UNL     1      15.618  -7.204  14.048  1.00  0.00    -0.054 A 
HETATM   18  C1  UNL     1      16.460  -8.427  13.960  1.00  0.00     0.049 C 
HETATM   19  C3  UNL     1      14.434  -7.124  13.343  1.00  0.00     0.007 A 
HETATM   20  C4  UNL     1      13.659  -5.998  13.426  1.00  0.00     0.001 A 
HETATM   21  C5  UNL     1      13.996  -4.904  14.191  1.00  0.00     0.001 A 
HETATM   22  C6  UNL     1      15.196  -5.008  14.893  1.00  0.00     0.009 A 
ENDBRANCH  15  16
ENDBRANCH  12  15
ENDBRANCH   4  11
ENDBRANCH   1   2
BRANCH   1  23
HETATM   23  O3  UNL     1      20.346   0.397  14.527  1.00  0.00    -0.384 OA
ATOM     24  H3  UNL     1      20.854   1.185  14.679  1.00  0.00     0.210 HD
ENDBRANCH   1  23
BRANCH   1  25
HETATM   25  C13 UNL     1      20.223  -0.352  16.798  1.00  0.00     0.127 C 
BRANCH  25  26
HETATM   26  C14 UNL     1      18.879   0.284  16.749  1.00  0.00     0.066 C 
BRANCH  26  27
HETATM   27  C15 UNL     1      18.244   0.574  18.039  1.00  0.00    -0.056 A 
HETATM   28  C16 UNL     1      17.925   1.867  18.361  1.00  0.00     0.007 A 
HETATM   29  C17 UNL     1      17.329   2.239  19.566  1.00  0.00     0.001 A 
HETATM   30  C18 UNL     1      17.054   1.240  20.468  1.00  0.00     0.000 A 
HETATM   31  C19 UNL     1      17.359  -0.087  20.183  1.00  0.00     0.001 A 
HETATM   32  C20 UNL     1      17.944  -0.392  18.980  1.00  0.00     0.007 A 
ENDBRANCH  26  27
ENDBRANCH  25  26
BRANCH  25  33
HETATM   33  N3  UNL     1      21.194   0.442  17.534  1.00  0.00    -0.349 N 
HETATM   34  C21 UNL     1      21.938   0.014  18.634  1.00  0.00     0.252 C 
HETATM   35  O4  UNL     1      21.764  -1.165  19.041  1.00  0.00    -0.268 OA
ATOM     36  H3  UNL     1      21.345   1.399  17.216  1.00  0.00     0.163 HD
BRANCH  34  37
HETATM   37  C22 UNL     1      22.916   0.816  19.362  1.00  0.00     0.040 A 
HETATM   38  C23 UNL     1      24.251   0.498  19.407  1.00  0.00     0.018 A 
HETATM   39  C24 UNL     1      25.090   1.335  20.119  1.00  0.00     0.004 A 
HETATM   40  C25 UNL     1      24.617   2.455  20.766  1.00  0.00     0.037 A 
HETATM   41  C26 UNL     1      23.265   2.784  20.723  1.00  0.00     0.072 A 
HETATM   42  C27 UNL     1      22.432   1.953  20.019  1.00  0.00    -0.013 A 
HETATM   43  C28 UNL     1      20.962   2.246  19.952  1.00  0.00     0.052 C 
BRANCH  41  44
HETATM   44  O5  UNL     1      22.810   3.906  21.373  1.00  0.00    -0.360 OA
ATOM     45  H5  UNL     1      22.546   3.853  22.285  1.00  0.00     0.217 HD
ENDBRANCH  41  44
ENDBRANCH  34  37
ENDBRANCH  25  33
ENDBRANCH   1  25
TORSDOF 11
ENDMDL
