MODEL 1
REMARK VINA RESULT: -11.958689287      0.000      0.000
REMARK  11 active torsions:
REMARK  status: ('A' for Active; 'I' for Inactive)
REMARK    1  A    between atoms: C7_7  and  C8_8 
REMARK    2  A    between atoms: C8_8  and  N1_9 
REMARK       I    between atoms: N1_9  and  C9_11 
REMARK    3  A    between atoms: C9_11  and  C10_13 
REMARK       I    between atoms: N2_14  and  C11_15 
REMARK    4  A    between atoms: C11_15  and  C12_17 
REMARK    5  A    between atoms: C12_17  and  O3_18 
REMARK    6  A    between atoms: C12_17  and  C13_20 
REMARK    7  A    between atoms: C13_20  and  C14_21 
REMARK    8  A    between atoms: C13_20  and  N3_28 
REMARK    9  A    between atoms: C14_21  and  C15_22 
REMARK       I    between atoms: N3_28  and  C21_30 
REMARK   10  A    between atoms: C21_30  and  C22_32 
REMARK   11  A    between atoms: C26_36  and  O5_37 
ROOT
HETATM    1  C12 UNL     1      20.727  -0.723  15.526  1.00  0.00     0.233 C 
ENDROOT
BRANCH   1   2
HETATM    2  C11 UNL     1      20.360  -1.986  14.941  1.00  0.00     0.252 C 
HETATM    3  N2  UNL     1      20.970  -3.233  15.322  1.00  0.00    -0.326 N 
HETATM    4  C10 UNL     1      20.590  -4.526  14.750  1.00  0.00     0.198 C 
HETATM    5  C29 UNL     1      22.005  -3.298  16.314  1.00  0.00     0.201 C 
HETATM    6  C30 UNL     1      21.809  -5.360  14.557  1.00  0.00     0.032 C 
HETATM    7  S1  UNL     1      22.560  -5.051  16.219  1.00  0.00    -0.137 SA
HETATM    8  C31 UNL     1      22.718  -4.847  13.483  1.00  0.00     0.029 C 
HETATM    9  C32 UNL     1      21.518  -6.798  14.328  1.00  0.00     0.029 C 
HETATM   10  O2  UNL     1      19.471  -2.039  14.059  1.00  0.00    -0.270 OA
BRANCH   4  11
HETATM   11  C9  UNL     1      19.502  -5.158  15.509  1.00  0.00     0.242 C 
HETATM   12  N1  UNL     1      18.402  -5.719  14.809  1.00  0.00    -0.355 N 
ATOM     13  H1  UNL     1      18.409  -5.666  13.791  1.00  0.00     0.162 HD
HETATM   14  O1  UNL     1      19.541  -5.202  16.762  1.00  0.00    -0.271 OA
BRANCH  12  15
HETATM   15  C8  UNL     1      17.287  -6.352  15.437  1.00  0.00     0.161 C 
BRANCH  15  16
HETATM   16  C7  UNL     1      16.016  -6.255  14.688  1.00  0.00    -0.035 A 
HETATM   17  C2  UNL     1      15.275  -5.088  14.871  1.00  0.00    -0.054 A 
HETATM   18  C1  UNL     1      15.753  -4.000  15.766  1.00  0.00     0.049 C 
HETATM   19  C3  UNL     1      14.076  -4.958  14.199  1.00  0.00     0.007 A 
HETATM   20  C4  UNL     1      13.638  -5.959  13.374  1.00  0.00     0.001 A 
HETATM   21  C5  UNL     1      14.337  -7.127  13.166  1.00  0.00     0.001 A 
HETATM   22  C6  UNL     1      15.543  -7.236  13.857  1.00  0.00     0.009 A 
ENDBRANCH  15  16
ENDBRANCH  12  15
ENDBRANCH   4  11
ENDBRANCH   1   2
BRANCH   1  23
HETATM   23  O3  UNL     1      20.420   0.336  14.700  1.00  0.00    -0.384 OA
ATOM     24  H3  UNL     1      20.194   1.117  15.192  1.00  0.00     0.210 HD
ENDBRANCH   1  23
BRANCH   1  25
HETATM   25  C13 UNL     1      20.219  -0.507  16.932  1.00  0.00     0.127 C 
BRANCH  25  26
HETATM   26  C14 UNL     1      18.762  -0.208  16.885  1.00  0.00     0.066 C 
BRANCH  26  27
HETATM   27  C15 UNL     1      18.165   0.337  18.108  1.00  0.00    -0.056 A 
HETATM   28  C16 UNL     1      17.663  -0.515  19.055  1.00  0.00     0.007 A 
HETATM   29  C17 UNL     1      17.070  -0.088  20.243  1.00  0.00     0.001 A 
HETATM   30  C18 UNL     1      16.993   1.266  20.459  1.00  0.00     0.000 A 
HETATM   31  C19 UNL     1      17.490   2.170  19.525  1.00  0.00     0.001 A 
HETATM   32  C20 UNL     1      18.064   1.690  18.375  1.00  0.00     0.007 A 
ENDBRANCH  26  27
ENDBRANCH  25  26
BRANCH  25  33
HETATM   33  N3  UNL     1      20.983   0.529  17.608  1.00  0.00    -0.349 N 
HETATM   34  C21 UNL     1      21.745   0.362  18.765  1.00  0.00     0.252 C 
HETATM   35  O4  UNL     1      21.784  -0.785  19.286  1.00  0.00    -0.268 OA
ATOM     36  H3  UNL     1      20.961   1.463  17.199  1.00  0.00     0.163 HD
BRANCH  34  37
HETATM   37  C22 UNL     1      22.515   1.407  19.434  1.00  0.00     0.040 A 
HETATM   38  C23 UNL     1      21.924   2.439  20.120  1.00  0.00     0.018 A 
HETATM   39  C24 UNL     1      22.749   3.369  20.724  1.00  0.00     0.004 A 
HETATM   40  C25 UNL     1      24.122   3.275  20.649  1.00  0.00     0.037 A 
HETATM   41  C26 UNL     1      24.727   2.230  19.956  1.00  0.00     0.072 A 
HETATM   42  C27 UNL     1      23.908   1.309  19.355  1.00  0.00    -0.013 A 
HETATM   43  C28 UNL     1      24.503   0.171  18.579  1.00  0.00     0.052 C 
BRANCH  41  44
HETATM   44  O5  UNL     1      26.098   2.151  19.893  1.00  0.00    -0.360 OA
ATOM     45  H5  UNL     1      26.523   1.302  19.856  1.00  0.00     0.217 HD
ENDBRANCH  41  44
ENDBRANCH  34  37
ENDBRANCH  25  33
ENDBRANCH   1  25
TORSDOF 11
ENDMDL
