MODEL 3
REMARK VINA RESULT: -11.818986418      0.309      1.094
REMARK  11 active torsions:
REMARK  status: ('A' for Active; 'I' for Inactive)
REMARK    1  A    between atoms: C7_7  and  C8_8 
REMARK    2  A    between atoms: C8_8  and  N1_9 
REMARK       I    between atoms: N1_9  and  C9_11 
REMARK    3  A    between atoms: C9_11  and  C10_13 
REMARK       I    between atoms: N2_14  and  C11_15 
REMARK    4  A    between atoms: C11_15  and  C12_17 
REMARK    5  A    between atoms: C12_17  and  O3_18 
REMARK    6  A    between atoms: C12_17  and  C13_20 
REMARK    7  A    between atoms: C13_20  and  C14_21 
REMARK    8  A    between atoms: C13_20  and  N3_28 
REMARK    9  A    between atoms: C14_21  and  C15_22 
REMARK       I    between atoms: N3_28  and  C21_30 
REMARK   10  A    between atoms: C21_30  and  C22_32 
REMARK   11  A    between atoms: C26_36  and  O5_37 
ROOT
HETATM    1  C12 UNL     1      20.748  -0.768  15.483  1.00  0.00     0.233 C 
ENDROOT
BRANCH   1   2
HETATM    2  C11 UNL     1      20.413  -2.031  14.878  1.00  0.00     0.252 C 
HETATM    3  N2  UNL     1      21.002  -3.278  15.288  1.00  0.00    -0.326 N 
HETATM    4  C10 UNL     1      20.654  -4.570  14.695  1.00  0.00     0.198 C 
HETATM    5  C29 UNL     1      21.985  -3.344  16.333  1.00  0.00     0.201 C 
HETATM    6  C30 UNL     1      21.881  -5.404  14.564  1.00  0.00     0.032 C 
HETATM    7  S1  UNL     1      22.544  -5.097  16.263  1.00  0.00    -0.137 SA
HETATM    8  C31 UNL     1      22.844  -4.888  13.540  1.00  0.00     0.029 C 
HETATM    9  C32 UNL     1      21.604  -6.841  14.318  1.00  0.00     0.029 C 
HETATM   10  O2  UNL     1      19.571  -2.082  13.950  1.00  0.00    -0.270 OA
BRANCH   4  11
HETATM   11  C9  UNL     1      19.527  -5.204  15.394  1.00  0.00     0.242 C 
HETATM   12  N1  UNL     1      18.607  -5.992  14.657  1.00  0.00    -0.355 N 
ATOM     13  H1  UNL     1      18.764  -6.095  13.655  1.00  0.00     0.162 HD
HETATM   14  O1  UNL     1      19.379  -5.051  16.631  1.00  0.00    -0.271 OA
BRANCH  12  15
HETATM   15  C8  UNL     1      17.474  -6.651  15.226  1.00  0.00     0.161 C 
BRANCH  15  16
HETATM   16  C7  UNL     1      16.165  -6.150  14.755  1.00  0.00    -0.035 A 
HETATM   17  C2  UNL     1      15.441  -6.996  13.916  1.00  0.00    -0.054 A 
HETATM   18  C1  UNL     1      15.963  -8.335  13.530  1.00  0.00     0.049 C 
HETATM   19  C3  UNL     1      14.218  -6.566  13.444  1.00  0.00     0.007 A 
HETATM   20  C4  UNL     1      13.737  -5.335  13.801  1.00  0.00     0.001 A 
HETATM   21  C5  UNL     1      14.419  -4.468  14.625  1.00  0.00     0.001 A 
HETATM   22  C6  UNL     1      15.653  -4.924  15.088  1.00  0.00     0.009 A 
ENDBRANCH  15  16
ENDBRANCH  12  15
ENDBRANCH   4  11
ENDBRANCH   1   2
BRANCH   1  23
HETATM   23  O3  UNL     1      20.411   0.296  14.676  1.00  0.00    -0.384 OA
ATOM     24  H3  UNL     1      21.159   0.848  14.484  1.00  0.00     0.210 HD
ENDBRANCH   1  23
BRANCH   1  25
HETATM   25  C13 UNL     1      20.238  -0.590  16.894  1.00  0.00     0.127 C 
BRANCH  25  26
HETATM   26  C14 UNL     1      18.774  -0.329  16.856  1.00  0.00     0.066 C 
BRANCH  26  27
HETATM   27  C15 UNL     1      18.179   0.248  18.066  1.00  0.00    -0.056 A 
HETATM   28  C16 UNL     1      17.660  -0.580  19.025  1.00  0.00     0.007 A 
HETATM   29  C17 UNL     1      17.066  -0.123  20.202  1.00  0.00     0.001 A 
HETATM   30  C18 UNL     1      17.009   1.236  20.393  1.00  0.00     0.000 A 
HETATM   31  C19 UNL     1      17.525   2.115  19.446  1.00  0.00     0.001 A 
HETATM   32  C20 UNL     1      18.098   1.606  18.308  1.00  0.00     0.007 A 
ENDBRANCH  26  27
ENDBRANCH  25  26
BRANCH  25  33
HETATM   33  N3  UNL     1      20.978   0.454  17.586  1.00  0.00    -0.349 N 
HETATM   34  C21 UNL     1      21.741   0.289  18.743  1.00  0.00     0.252 C 
HETATM   35  O4  UNL     1      21.804  -0.864  19.248  1.00  0.00    -0.268 OA
ATOM     36  H3  UNL     1      20.934   1.393  17.190  1.00  0.00     0.163 HD
BRANCH  34  37
HETATM   37  C22 UNL     1      22.484   1.342  19.427  1.00  0.00     0.040 A 
HETATM   38  C23 UNL     1      21.869   2.402  20.045  1.00  0.00     0.018 A 
HETATM   39  C24 UNL     1      22.672   3.338  20.672  1.00  0.00     0.004 A 
HETATM   40  C25 UNL     1      24.044   3.221  20.686  1.00  0.00     0.037 A 
HETATM   41  C26 UNL     1      24.673   2.148  20.062  1.00  0.00     0.072 A 
HETATM   42  C27 UNL     1      23.879   1.221  19.439  1.00  0.00    -0.013 A 
HETATM   43  C28 UNL     1      24.501   0.051  18.733  1.00  0.00     0.052 C 
BRANCH  41  44
HETATM   44  O5  UNL     1      26.044   2.047  20.086  1.00  0.00    -0.360 OA
ATOM     45  H5  UNL     1      26.477   1.633  20.824  1.00  0.00     0.217 HD
ENDBRANCH  41  44
ENDBRANCH  34  37
ENDBRANCH  25  33
ENDBRANCH   1  25
TORSDOF 11
ENDMDL
