MODEL 7
REMARK VINA RESULT: -6.817638620      5.699      8.613
REMARK  4 active torsions:
REMARK  status: ('A' for Active; 'I' for Inactive)
REMARK    1  A    between atoms: C1_2  and  C2_4 
REMARK    2  A    between atoms: C5_8  and  S2_9 
REMARK    3  A    between atoms: S2_9  and  N1_12 
REMARK    4  A    between atoms: N1_12  and  C6_14 
ROOT
HETATM    1  S2  UNL     1      24.904   5.498  14.561  1.00  0.00     0.264 S 
HETATM    2  O3  UNL     1      25.175   4.011  14.643  1.00  0.00    -0.200 OA
HETATM    3  O4  UNL     1      26.217   6.191  14.673  1.00  0.00    -0.200 OA
ENDROOT
BRANCH   1   4
HETATM    4  C5  UNL     1      24.097   5.855  13.016  1.00  0.00     0.104 A 
HETATM    5  C2  UNL     1      23.844   7.139  12.640  1.00  0.00     0.104 A 
HETATM    6  S1  UNL     1      23.097   6.955  11.113  1.00  0.00    -0.094 SA
HETATM    7  C3  UNL     1      23.126   5.258  10.995  1.00  0.00     0.052 A 
HETATM    8  C4  UNL     1      23.726   4.874  12.165  1.00  0.00     0.034 A 
BRANCH   5   9
HETATM    9  C1  UNL     1      24.128   8.404  13.357  1.00  0.00     0.218 C 
HETATM   10  O1  UNL     1      25.098   9.085  12.953  1.00  0.00    -0.643 OA
HETATM   11  O2  UNL     1      23.378   8.837  14.421  1.00  0.00    -0.643 OA
ENDBRANCH   5   9
ENDBRANCH   1   4
BRANCH   1  12
HETATM   12  N1  UNL     1      23.920   5.912  15.904  1.00  0.00    -0.281 N 
ATOM     13  H1  UNL     1      22.904   5.888  15.811  1.00  0.00     0.179 HD
BRANCH  12  14
HETATM   14  C6  UNL     1      24.508   6.292  17.155  1.00  0.00     0.042 A 
HETATM   15  C7  UNL     1      24.836   7.601  17.446  1.00  0.00     0.032 A 
HETATM   16  C8  UNL     1      25.407   7.951  18.662  1.00  0.00     0.026 A 
HETATM   17  C9  UNL     1      25.669   7.002  19.629  1.00  0.00     0.034 A 
HETATM   18 CL1  UNL     1      26.387   7.415  21.173  1.00  0.00    -0.084 Cl
HETATM   19  C10 UNL     1      25.345   5.688  19.350  1.00  0.00     0.026 A 
HETATM   20  C11 UNL     1      24.779   5.356  18.136  1.00  0.00     0.032 A 
ENDBRANCH  12  14
ENDBRANCH   1  12
TORSDOF 4
ENDMDL
