MODEL 6
REMARK VINA RESULT: -6.831035479      5.689      8.564
REMARK  4 active torsions:
REMARK  status: ('A' for Active; 'I' for Inactive)
REMARK    1  A    between atoms: C1_2  and  C2_4 
REMARK    2  A    between atoms: C5_8  and  S2_9 
REMARK    3  A    between atoms: S2_9  and  N1_12 
REMARK    4  A    between atoms: N1_12  and  C6_14 
ROOT
HETATM    1  S2  UNL     1      24.910   5.510  14.579  1.00  0.00     0.264 S 
HETATM    2  O3  UNL     1      25.172   4.022  14.671  1.00  0.00    -0.200 OA
HETATM    3  O4  UNL     1      26.227   6.195  14.681  1.00  0.00    -0.200 OA
ENDROOT
BRANCH   1   4
HETATM    4  C5  UNL     1      24.099   5.860  13.034  1.00  0.00     0.104 A 
HETATM    5  C2  UNL     1      23.850   7.143  12.651  1.00  0.00     0.104 A 
HETATM    6  S1  UNL     1      23.097   6.952  11.127  1.00  0.00    -0.094 SA
HETATM    7  C3  UNL     1      23.120   5.254  11.020  1.00  0.00     0.052 A 
HETATM    8  C4  UNL     1      23.722   4.875  12.190  1.00  0.00     0.034 A 
BRANCH   5   9
HETATM    9  C1  UNL     1      24.140   8.411  13.360  1.00  0.00     0.218 C 
HETATM   10  O1  UNL     1      25.110   9.087  12.947  1.00  0.00    -0.643 OA
HETATM   11  O2  UNL     1      23.396   8.852  14.424  1.00  0.00    -0.643 OA
ENDBRANCH   5   9
ENDBRANCH   1   4
BRANCH   1  12
HETATM   12  N1  UNL     1      23.933   5.940  15.922  1.00  0.00    -0.281 N 
ATOM     13  H1  UNL     1      22.918   5.956  15.823  1.00  0.00     0.179 HD
BRANCH  12  14
HETATM   14  C6  UNL     1      24.527   6.276  17.183  1.00  0.00     0.042 A 
HETATM   15  C7  UNL     1      24.777   5.327  18.154  1.00  0.00     0.032 A 
HETATM   16  C8  UNL     1      25.352   5.671  19.370  1.00  0.00     0.026 A 
HETATM   17  C9  UNL     1      25.697   6.976  19.655  1.00  0.00     0.034 A 
HETATM   18 CL1  UNL     1      26.425   7.439  21.181  1.00  0.00    -0.084 Cl
HETATM   19  C10 UNL     1      25.451   7.936  18.691  1.00  0.00     0.026 A 
HETATM   20  C11 UNL     1      24.878   7.578  17.488  1.00  0.00     0.032 A 
ENDBRANCH  12  14
ENDBRANCH   1  12
TORSDOF 4
ENDMDL
