MODEL 1
REMARK VINA RESULT: -7.467504877      0.000      0.000
REMARK  4 active torsions:
REMARK  status: ('A' for Active; 'I' for Inactive)
REMARK    1  A    between atoms: C1_2  and  C2_4 
REMARK    2  A    between atoms: C5_8  and  S2_9 
REMARK    3  A    between atoms: S2_9  and  N1_12 
REMARK    4  A    between atoms: N1_12  and  C6_14 
ROOT
HETATM    1  S2  UNL     1      26.793   7.341  21.065  1.00  0.00     0.264 S 
HETATM    2  O3  UNL     1      27.309   6.082  20.404  1.00  0.00    -0.200 OA
HETATM    3  O4  UNL     1      25.774   6.926  22.067  1.00  0.00    -0.200 OA
ENDROOT
BRANCH   1   4
HETATM    4  C5  UNL     1      28.157   8.196  21.824  1.00  0.00     0.104 A 
HETATM    5  C2  UNL     1      28.873   7.617  22.828  1.00  0.00     0.104 A 
HETATM    6  S1  UNL     1      30.054   8.799  23.191  1.00  0.00    -0.094 SA
HETATM    7  C3  UNL     1      29.607   9.992  22.063  1.00  0.00     0.052 A 
HETATM    8  C4  UNL     1      28.535   9.430  21.423  1.00  0.00     0.034 A 
BRANCH   5   9
HETATM    9  C1  UNL     1      28.693   6.295  23.472  1.00  0.00     0.218 C 
HETATM   10  O1  UNL     1      28.023   6.261  24.529  1.00  0.00    -0.643 OA
HETATM   11  O2  UNL     1      29.226   5.142  22.956  1.00  0.00    -0.643 OA
ENDBRANCH   5   9
ENDBRANCH   1   4
BRANCH   1  12
HETATM   12  N1  UNL     1      26.047   8.289  19.846  1.00  0.00    -0.281 N 
ATOM     13  H1  UNL     1      26.243   9.289  19.793  1.00  0.00     0.179 HD
BRANCH  12  14
HETATM   14  C6  UNL     1      25.150   7.692  18.899  1.00  0.00     0.042 A 
HETATM   15  C7  UNL     1      24.082   6.910  19.292  1.00  0.00     0.032 A 
HETATM   16  C8  UNL     1      23.224   6.339  18.361  1.00  0.00     0.026 A 
HETATM   17  C9  UNL     1      23.407   6.531  17.007  1.00  0.00     0.034 A 
HETATM   18 CL1  UNL     1      22.339   5.823  15.811  1.00  0.00    -0.084 Cl
HETATM   19  C10 UNL     1      24.472   7.312  16.602  1.00  0.00     0.026 A 
HETATM   20  C11 UNL     1      25.316   7.872  17.539  1.00  0.00     0.032 A 
ENDBRANCH  12  14
ENDBRANCH   1  12
TORSDOF 4
ENDMDL
