MODEL 4
REMARK VINA RESULT: -6.972556831      5.265      7.242
REMARK  4 active torsions:
REMARK  status: ('A' for Active; 'I' for Inactive)
REMARK    1  A    between atoms: C1_2  and  C2_4 
REMARK    2  A    between atoms: C5_8  and  S2_9 
REMARK    3  A    between atoms: S2_9  and  N1_12 
REMARK    4  A    between atoms: N1_12  and  C6_14 
ROOT
HETATM    1  S2  UNL     1      24.992   6.525  14.243  1.00  0.00     0.264 S 
HETATM    2  O3  UNL     1      24.861   7.165  12.878  1.00  0.00    -0.200 OA
HETATM    3  O4  UNL     1      26.430   6.189  14.435  1.00  0.00    -0.200 OA
ENDROOT
BRANCH   1   4
HETATM    4  C5  UNL     1      24.410   7.668  15.477  1.00  0.00     0.104 A 
HETATM    5  C2  UNL     1      24.444   7.345  16.799  1.00  0.00     0.104 A 
HETATM    6  S1  UNL     1      23.814   8.744  17.555  1.00  0.00    -0.094 SA
HETATM    7  C3  UNL     1      23.524   9.696  16.175  1.00  0.00     0.052 A 
HETATM    8  C4  UNL     1      23.932   8.888  15.147  1.00  0.00     0.034 A 
BRANCH   5   9
HETATM    9  C1  UNL     1      24.903   6.098  17.454  1.00  0.00     0.218 C 
HETATM   10  O1  UNL     1      25.844   6.195  18.274  1.00  0.00    -0.643 OA
HETATM   11  O2  UNL     1      24.340   4.875  17.193  1.00  0.00    -0.643 OA
ENDBRANCH   5   9
ENDBRANCH   1   4
BRANCH   1  12
HETATM   12  N1  UNL     1      24.063   5.083  14.222  1.00  0.00    -0.281 N 
ATOM     13  H1  UNL     1      24.266   4.343  14.893  1.00  0.00     0.179 HD
BRANCH  12  14
HETATM   14  C6  UNL     1      23.004   4.907  13.270  1.00  0.00     0.042 A 
HETATM   15  C7  UNL     1      23.127   4.067  12.182  1.00  0.00     0.032 A 
HETATM   16  C8  UNL     1      22.092   3.909  11.270  1.00  0.00     0.026 A 
HETATM   17  C9  UNL     1      20.900   4.588  11.416  1.00  0.00     0.034 A 
HETATM   18 CL1  UNL     1      19.576   4.408  10.281  1.00  0.00    -0.084 Cl
HETATM   19  C10 UNL     1      20.765   5.433  12.502  1.00  0.00     0.026 A 
HETATM   20  C11 UNL     1      21.803   5.579  13.399  1.00  0.00     0.032 A 
ENDBRANCH  12  14
ENDBRANCH   1  12
TORSDOF 4
ENDMDL
