MODEL 5
REMARK VINA RESULT: -6.854193720      5.858      7.855
REMARK  4 active torsions:
REMARK  status: ('A' for Active; 'I' for Inactive)
REMARK    1  A    between atoms: C1_2  and  C2_4 
REMARK    2  A    between atoms: C5_8  and  S2_9 
REMARK    3  A    between atoms: S2_9  and  N1_12 
REMARK    4  A    between atoms: N1_12  and  C6_14 
ROOT
HETATM    1  S2  UNL     1      24.894   5.282  14.098  1.00  0.00     0.264 S 
HETATM    2  O3  UNL     1      25.702   5.495  12.837  1.00  0.00    -0.200 OA
HETATM    3  O4  UNL     1      25.427   4.059  14.760  1.00  0.00    -0.200 OA
ENDROOT
BRANCH   1   4
HETATM    4  C5  UNL     1      25.052   6.718  15.137  1.00  0.00     0.104 A 
HETATM    5  C2  UNL     1      24.459   6.763  16.361  1.00  0.00     0.104 A 
HETATM    6  S1  UNL     1      24.915   8.301  16.955  1.00  0.00    -0.094 SA
HETATM    7  C3  UNL     1      25.842   8.842  15.635  1.00  0.00     0.052 A 
HETATM    8  C4  UNL     1      25.772   7.796  14.754  1.00  0.00     0.034 A 
BRANCH   5   9
HETATM    9  C1  UNL     1      23.616   5.750  17.038  1.00  0.00     0.218 C 
HETATM   10  O1  UNL     1      22.421   5.667  16.674  1.00  0.00    -0.643 OA
HETATM   11  O2  UNL     1      24.096   4.926  18.022  1.00  0.00    -0.643 OA
ENDBRANCH   5   9
ENDBRANCH   1   4
BRANCH   1  12
HETATM   12  N1  UNL     1      23.268   5.015  13.623  1.00  0.00    -0.281 N 
ATOM     13  H1  UNL     1      22.559   4.831  14.333  1.00  0.00     0.179 HD
BRANCH  12  14
HETATM   14  C6  UNL     1      22.893   5.047  12.239  1.00  0.00     0.042 A 
HETATM   15  C7  UNL     1      23.190   6.120  11.423  1.00  0.00     0.032 A 
HETATM   16  C8  UNL     1      22.818   6.134  10.085  1.00  0.00     0.026 A 
HETATM   17  C9  UNL     1      22.138   5.075   9.519  1.00  0.00     0.034 A 
HETATM   18 CL1  UNL     1      21.658   5.066   7.834  1.00  0.00    -0.084 Cl
HETATM   19  C10 UNL     1      21.836   3.995  10.327  1.00  0.00     0.026 A 
HETATM   20  C11 UNL     1      22.211   3.996  11.655  1.00  0.00     0.032 A 
ENDBRANCH  12  14
ENDBRANCH   1  12
TORSDOF 4
ENDMDL
