MODEL 3
REMARK VINA RESULT: -6.989342836      5.272      7.213
REMARK  4 active torsions:
REMARK  status: ('A' for Active; 'I' for Inactive)
REMARK    1  A    between atoms: C1_2  and  C2_4 
REMARK    2  A    between atoms: C5_8  and  S2_9 
REMARK    3  A    between atoms: S2_9  and  N1_12 
REMARK    4  A    between atoms: N1_12  and  C6_14 
ROOT
HETATM    1  S2  UNL     1      24.995   6.519  14.239  1.00  0.00     0.264 S 
HETATM    2  O3  UNL     1      24.867   7.163  12.875  1.00  0.00    -0.200 OA
HETATM    3  O4  UNL     1      26.431   6.180  14.432  1.00  0.00    -0.200 OA
ENDROOT
BRANCH   1   4
HETATM    4  C5  UNL     1      24.413   7.661  15.474  1.00  0.00     0.104 A 
HETATM    5  C2  UNL     1      24.445   7.335  16.796  1.00  0.00     0.104 A 
HETATM    6  S1  UNL     1      23.816   8.733  17.554  1.00  0.00    -0.094 SA
HETATM    7  C3  UNL     1      23.529   9.688  16.175  1.00  0.00     0.052 A 
HETATM    8  C4  UNL     1      23.937   8.882  15.146  1.00  0.00     0.034 A 
BRANCH   5   9
HETATM    9  C1  UNL     1      24.901   6.085  17.448  1.00  0.00     0.218 C 
HETATM   10  O1  UNL     1      25.837   6.181  18.275  1.00  0.00    -0.643 OA
HETATM   11  O2  UNL     1      24.342   4.863  17.179  1.00  0.00    -0.643 OA
ENDBRANCH   5   9
ENDBRANCH   1   4
BRANCH   1  12
HETATM   12  N1  UNL     1      24.063   5.079  14.212  1.00  0.00    -0.281 N 
ATOM     13  H1  UNL     1      24.274   4.330  14.871  1.00  0.00     0.179 HD
BRANCH  12  14
HETATM   14  C6  UNL     1      22.991   4.917  13.273  1.00  0.00     0.042 A 
HETATM   15  C7  UNL     1      21.794   5.594  13.401  1.00  0.00     0.032 A 
HETATM   16  C8  UNL     1      20.766   5.424  12.483  1.00  0.00     0.026 A 
HETATM   17  C9  UNL     1      20.902   4.571  11.407  1.00  0.00     0.034 A 
HETATM   18 CL1  UNL     1      19.622   4.338  10.232  1.00  0.00    -0.084 Cl
HETATM   19  C10 UNL     1      22.095   3.888  11.268  1.00  0.00     0.026 A 
HETATM   20  C11 UNL     1      23.107   4.068  12.189  1.00  0.00     0.032 A 
ENDBRANCH  12  14
ENDBRANCH   1  12
TORSDOF 4
ENDMDL
