MODEL 4
REMARK VINA RESULT: -10.735906388      3.478      5.496
REMARK  10 active torsions:
REMARK  status: ('A' for Active; 'I' for Inactive)
REMARK    1  A    between atoms: N5_13  and  C6_14 
REMARK    2  A    between atoms: C7_16  and  C8_17 
REMARK    3  A    between atoms: C8_17  and  O2_18 
REMARK    4  A    between atoms: O2_18  and  P1_19 
REMARK    5  A    between atoms: P1_19  and  O5_22 
REMARK    6  A    between atoms: O5_22  and  P2_23 
REMARK    7  A    between atoms: P2_23  and  O8_26 
REMARK    8  A    between atoms: O8_26  and  P3_27 
REMARK    9  A    between atoms: C9_31  and  O12_32 
REMARK   10  A    between atoms: C10_34  and  O13_35 
ROOT
HETATM    1  C6  UNL     1      36.097   0.732  45.332  1.00  0.00     0.159 C 
HETATM    2  O1  UNL     1      35.034   1.646  45.237  1.00  0.00    -0.326 OA
HETATM    3  C7  UNL     1      35.448   2.477  44.281  1.00  0.00     0.186 C 
HETATM    4  C9  UNL     1      36.742   2.006  43.603  1.00  0.00     0.186 C 
HETATM    5  C10 UNL     1      36.510   0.501  43.923  1.00  0.00     0.224 C 
ENDROOT
BRANCH   3   6
HETATM    6  C8  UNL     1      34.624   3.038  43.194  1.00  0.00     0.216 C 
BRANCH   6   7
HETATM    7  O2  UNL     1      33.418   2.299  43.099  1.00  0.00    -0.287 OA
BRANCH   7   8
HETATM    8  P1  UNL     1      32.255   3.486  43.630  1.00  0.00     0.417 P 
HETATM    9  O3  UNL     1      32.503   4.739  42.958  1.00  0.00    -0.624 OA
HETATM   10  O4  UNL     1      30.756   2.741  43.033  1.00  0.00    -0.624 OA
BRANCH   8  11
HETATM   11  O5  UNL     1      32.089   3.507  45.293  1.00  0.00    -0.180 OA
BRANCH  11  12
HETATM   12  P2  UNL     1      30.966   4.768  45.704  1.00  0.00     0.428 P 
HETATM   13  O6  UNL     1      30.144   4.234  46.838  1.00  0.00    -0.624 OA
HETATM   14  O7  UNL     1      30.036   5.251  44.413  1.00  0.00    -0.624 OA
BRANCH  12  15
HETATM   15  O8  UNL     1      31.912   6.069  46.292  1.00  0.00    -0.173 OA
BRANCH  15  16
HETATM   16  P3  UNL     1      31.049   7.499  46.145  1.00  0.00     0.431 P 
HETATM   17  O9  UNL     1      29.661   7.296  45.648  1.00  0.00    -0.616 OA
HETATM   18  O10 UNL     1      30.982   8.210  47.688  1.00  0.00    -0.616 OA
HETATM   19  O11 UNL     1      31.911   8.497  45.076  1.00  0.00    -0.616 OA
ENDBRANCH  15  16
ENDBRANCH  12  15
ENDBRANCH  11  12
ENDBRANCH   8  11
ENDBRANCH   7   8
ENDBRANCH   6   7
ENDBRANCH   3   6
BRANCH   4  20
HETATM   20  O12 UNL     1      37.799   2.493  44.303  1.00  0.00    -0.390 OA
ATOM     21  H12 UNL     1      38.313   3.046  43.728  1.00  0.00     0.210 HD
ENDBRANCH   4  20
BRANCH   1  22
HETATM   22  N5  UNL     1      35.996  -0.306  46.235  1.00  0.00    -0.273 N 
HETATM   23  C3  UNL     1      35.872  -0.200  47.568  1.00  0.00     0.146 A 
HETATM   24  N3  UNL     1      35.992   0.859  48.354  1.00  0.00    -0.336 N 
HETATM   25  C4  UNL     1      35.583  -1.403  48.122  1.00  0.00     0.120 A 
HETATM   26  C2  UNL     1      35.824   0.723  49.681  1.00  0.00     0.183 A 
ATOM     27  H3  UNL     1      36.211   1.772  47.956  1.00  0.00     0.168 HD
HETATM   28  N2  UNL     1      35.526  -0.460  50.248  1.00  0.00    -0.339 N 
HETATM   29  C1  UNL     1      35.403  -1.537  49.474  1.00  0.00     0.148 A 
ATOM     30  H2  UNL     1      35.397  -0.531  51.257  1.00  0.00     0.167 HD
HETATM   31  N1  UNL     1      34.950  -2.742  50.057  1.00  0.00    -0.080 NA
HETATM   32  N4  UNL     1      35.546  -2.281  47.100  1.00  0.00    -0.346 N 
HETATM   33  C5  UNL     1      35.802  -1.610  45.961  1.00  0.00     0.192 A 
ATOM     34  H4  UNL     1      35.358  -3.280  47.177  1.00  0.00     0.167 HD
ENDBRANCH   1  22
BRANCH   5  35
HETATM   35  O13 UNL     1      37.780  -0.028  43.730  1.00  0.00    -0.385 OA
ATOM     36  H13 UNL     1      37.993  -0.303  42.846  1.00  0.00     0.210 HD
ENDBRANCH   5  35
TORSDOF 10
ENDMDL
