MODEL 10
REMARK VINA RESULT: -10.015168370      5.476      6.831
REMARK  10 active torsions:
REMARK  status: ('A' for Active; 'I' for Inactive)
REMARK    1  A    between atoms: N5_13  and  C6_14 
REMARK    2  A    between atoms: C7_16  and  C8_17 
REMARK    3  A    between atoms: C8_17  and  O2_18 
REMARK    4  A    between atoms: O2_18  and  P1_19 
REMARK    5  A    between atoms: P1_19  and  O5_22 
REMARK    6  A    between atoms: O5_22  and  P2_23 
REMARK    7  A    between atoms: P2_23  and  O8_26 
REMARK    8  A    between atoms: O8_26  and  P3_27 
REMARK    9  A    between atoms: C9_31  and  O12_32 
REMARK   10  A    between atoms: C10_34  and  O13_35 
ROOT
HETATM    1  C6  UNL     1      33.469   6.028  38.852  1.00  0.00     0.159 C 
HETATM    2  O1  UNL     1      32.650   4.898  39.014  1.00  0.00    -0.326 OA
HETATM    3  C7  UNL     1      33.190   4.295  40.073  1.00  0.00     0.186 C 
HETATM    4  C9  UNL     1      34.290   5.133  40.737  1.00  0.00     0.186 C 
HETATM    5  C10 UNL     1      33.728   6.496  40.239  1.00  0.00     0.224 C 
ENDROOT
BRANCH   3   6
HETATM    6  C8  UNL     1      32.458   3.665  41.187  1.00  0.00     0.216 C 
BRANCH   6   7
HETATM    7  O2  UNL     1      32.774   4.342  42.391  1.00  0.00    -0.287 OA
BRANCH   7   8
HETATM    8  P1  UNL     1      32.070   3.270  43.574  1.00  0.00     0.417 P 
HETATM    9  O3  UNL     1      30.712   2.960  43.196  1.00  0.00    -0.624 OA
HETATM   10  O4  UNL     1      33.118   1.849  43.366  1.00  0.00    -0.624 OA
BRANCH   8  11
HETATM   11  O5  UNL     1      32.352   3.784  45.139  1.00  0.00    -0.180 OA
BRANCH  11  12
HETATM   12  P2  UNL     1      31.144   4.967  45.540  1.00  0.00     0.428 P 
HETATM   13  O6  UNL     1      30.248   4.315  46.550  1.00  0.00    -0.624 OA
HETATM   14  O7  UNL     1      30.312   5.517  44.209  1.00  0.00    -0.624 OA
BRANCH  12  15
HETATM   15  O8  UNL     1      31.977   6.249  46.310  1.00  0.00    -0.173 OA
BRANCH  15  16
HETATM   16  P3  UNL     1      31.081   7.660  46.173  1.00  0.00     0.431 P 
HETATM   17  O9  UNL     1      29.663   7.418  45.793  1.00  0.00    -0.616 OA
HETATM   18  O10 UNL     1      31.121   8.434  47.686  1.00  0.00    -0.616 OA
HETATM   19  O11 UNL     1      31.842   8.625  45.001  1.00  0.00    -0.616 OA
ENDBRANCH  15  16
ENDBRANCH  12  15
ENDBRANCH  11  12
ENDBRANCH   8  11
ENDBRANCH   7   8
ENDBRANCH   6   7
ENDBRANCH   3   6
BRANCH   4  20
HETATM   20  O12 UNL     1      35.474   4.849  40.135  1.00  0.00    -0.390 OA
ATOM     21  H12 UNL     1      36.160   5.340  40.570  1.00  0.00     0.210 HD
ENDBRANCH   4  20
BRANCH   1  22
HETATM   22  N5  UNL     1      33.180   6.912  37.833  1.00  0.00    -0.273 N 
HETATM   23  C3  UNL     1      32.122   7.736  37.765  1.00  0.00     0.146 A 
HETATM   24  N3  UNL     1      31.033   7.792  38.516  1.00  0.00    -0.336 N 
HETATM   25  C4  UNL     1      32.261   8.614  36.740  1.00  0.00     0.120 A 
HETATM   26  C2  UNL     1      30.091   8.714  38.253  1.00  0.00     0.183 A 
ATOM     27  H3  UNL     1      30.909   7.138  39.290  1.00  0.00     0.168 HD
HETATM   28  N2  UNL     1      30.217   9.601  37.249  1.00  0.00    -0.339 N 
HETATM   29  C1  UNL     1      31.304   9.560  36.481  1.00  0.00     0.148 A 
ATOM     30  H2  UNL     1      29.489  10.295  37.079  1.00  0.00     0.167 HD
HETATM   31  N1  UNL     1      31.495  10.581  35.523  1.00  0.00    -0.080 NA
HETATM   32  N4  UNL     1      33.433   8.309  36.150  1.00  0.00    -0.346 N 
HETATM   33  C5  UNL     1      33.982   7.275  36.814  1.00  0.00     0.192 A 
ATOM     34  H4  UNL     1      33.835   8.780  35.340  1.00  0.00     0.167 HD
ENDBRANCH   1  22
BRANCH   5  35
HETATM   35  O13 UNL     1      34.820   7.335  40.415  1.00  0.00    -0.385 OA
ATOM     36  H13 UNL     1      34.966   7.661  41.295  1.00  0.00     0.210 HD
ENDBRANCH   5  35
TORSDOF 10
ENDMDL
