MODEL 3
REMARK VINA RESULT: -10.927516173      0.996      1.922
REMARK  10 active torsions:
REMARK  status: ('A' for Active; 'I' for Inactive)
REMARK    1  A    between atoms: N5_13  and  C6_14 
REMARK    2  A    between atoms: C7_16  and  C8_17 
REMARK    3  A    between atoms: C8_17  and  O2_18 
REMARK    4  A    between atoms: O2_18  and  P1_19 
REMARK    5  A    between atoms: P1_19  and  O5_22 
REMARK    6  A    between atoms: O5_22  and  P2_23 
REMARK    7  A    between atoms: P2_23  and  O8_26 
REMARK    8  A    between atoms: O8_26  and  P3_27 
REMARK    9  A    between atoms: C9_31  and  O12_32 
REMARK   10  A    between atoms: C10_34  and  O13_35 
ROOT
HETATM    1  C6  UNL     1      36.419   1.543  42.135  1.00  0.00     0.159 C 
HETATM    2  O1  UNL     1      35.029   1.498  41.940  1.00  0.00    -0.326 OA
HETATM    3  C7  UNL     1      34.556   1.566  43.185  1.00  0.00     0.186 C 
HETATM    4  C9  UNL     1      35.654   1.837  44.222  1.00  0.00     0.186 C 
HETATM    5  C10 UNL     1      36.606   2.546  43.216  1.00  0.00     0.224 C 
ENDROOT
BRANCH   3   6
HETATM    6  C8  UNL     1      33.394   2.355  43.635  1.00  0.00     0.216 C 
BRANCH   6   7
HETATM    7  O2  UNL     1      33.420   3.622  43.001  1.00  0.00    -0.287 OA
BRANCH   7   8
HETATM    8  P1  UNL     1      32.011   4.375  43.702  1.00  0.00     0.417 P 
HETATM    9  O3  UNL     1      31.723   5.604  43.002  1.00  0.00    -0.624 OA
HETATM   10  O4  UNL     1      30.784   3.143  43.334  1.00  0.00    -0.624 OA
BRANCH   8  11
HETATM   11  O5  UNL     1      32.084   4.421  45.370  1.00  0.00    -0.180 OA
BRANCH  11  12
HETATM   12  P2  UNL     1      30.616   5.147  45.952  1.00  0.00     0.428 P 
HETATM   13  O6  UNL     1      29.877   4.060  46.674  1.00  0.00    -0.624 OA
HETATM   14  O7  UNL     1      29.713   5.837  44.739  1.00  0.00    -0.624 OA
BRANCH  12  15
HETATM   15  O8  UNL     1      31.094   6.324  47.100  1.00  0.00    -0.173 OA
BRANCH  15  16
HETATM   16  P3  UNL     1      31.144   7.832  46.368  1.00  0.00     0.431 P 
HETATM   17  O9  UNL     1      31.992   7.860  45.144  1.00  0.00    -0.616 OA
HETATM   18  O10 UNL     1      29.550   8.240  45.941  1.00  0.00    -0.616 OA
HETATM   19  O11 UNL     1      31.743   8.928  47.517  1.00  0.00    -0.616 OA
ENDBRANCH  15  16
ENDBRANCH  12  15
ENDBRANCH  11  12
ENDBRANCH   8  11
ENDBRANCH   7   8
ENDBRANCH   6   7
ENDBRANCH   3   6
BRANCH   4  20
HETATM   20  O12 UNL     1      36.173   0.648  44.624  1.00  0.00    -0.390 OA
ATOM     21  H12 UNL     1      37.104   0.645  44.438  1.00  0.00     0.210 HD
ENDBRANCH   4  20
BRANCH   1  22
HETATM   22  N5  UNL     1      37.242   1.512  41.028  1.00  0.00    -0.273 N 
HETATM   23  C3  UNL     1      38.385   0.818  40.900  1.00  0.00     0.146 A 
HETATM   24  N3  UNL     1      39.092   0.162  41.807  1.00  0.00    -0.336 N 
HETATM   25  C4  UNL     1      38.822   0.845  39.616  1.00  0.00     0.120 A 
HETATM   26  C2  UNL     1      40.223  -0.465  41.441  1.00  0.00     0.183 A 
ATOM     27  H3  UNL     1      38.781   0.133  42.777  1.00  0.00     0.168 HD
HETATM   28  N2  UNL     1      40.667  -0.460  40.170  1.00  0.00    -0.339 N 
HETATM   29  C1  UNL     1      39.971   0.196  39.243  1.00  0.00     0.148 A 
ATOM     30  H2  UNL     1      41.525  -0.952  39.921  1.00  0.00     0.167 HD
HETATM   31  N1  UNL     1      40.363   0.077  37.891  1.00  0.00    -0.080 NA
HETATM   32  N4  UNL     1      37.929   1.592  38.938  1.00  0.00    -0.346 N 
HETATM   33  C5  UNL     1      36.977   1.996  39.800  1.00  0.00     0.192 A 
ATOM     34  H4  UNL     1      37.968   1.813  37.943  1.00  0.00     0.167 HD
ENDBRANCH   1  22
BRANCH   5  35
HETATM   35  O13 UNL     1      37.817   2.505  43.895  1.00  0.00    -0.385 OA
ATOM     36  H13 UNL     1      37.829   2.015  44.709  1.00  0.00     0.210 HD
ENDBRANCH   5  35
TORSDOF 10
ENDMDL
