MODEL 2
REMARK VINA RESULT: -11.008967997      0.888      1.852
REMARK  10 active torsions:
REMARK  status: ('A' for Active; 'I' for Inactive)
REMARK    1  A    between atoms: N5_13  and  C6_14 
REMARK    2  A    between atoms: C7_16  and  C8_17 
REMARK    3  A    between atoms: C8_17  and  O2_18 
REMARK    4  A    between atoms: O2_18  and  P1_19 
REMARK    5  A    between atoms: P1_19  and  O5_22 
REMARK    6  A    between atoms: O5_22  and  P2_23 
REMARK    7  A    between atoms: P2_23  and  O8_26 
REMARK    8  A    between atoms: O8_26  and  P3_27 
REMARK    9  A    between atoms: C9_31  and  O12_32 
REMARK   10  A    between atoms: C10_34  and  O13_35 
ROOT
HETATM    1  C6  UNL     1      36.632   1.217  42.687  1.00  0.00     0.159 C 
HETATM    2  O1  UNL     1      35.291   0.805  42.767  1.00  0.00    -0.326 OA
HETATM    3  C7  UNL     1      35.071   0.778  44.081  1.00  0.00     0.186 C 
HETATM    4  C9  UNL     1      36.242   1.351  44.891  1.00  0.00     0.186 C 
HETATM    5  C10 UNL     1      36.759   2.260  43.739  1.00  0.00     0.224 C 
ENDROOT
BRANCH   3   6
HETATM    6  C8  UNL     1      33.856   1.245  44.773  1.00  0.00     0.216 C 
BRANCH   6   7
HETATM    7  O2  UNL     1      32.791   1.316  43.841  1.00  0.00    -0.287 OA
BRANCH   7   8
HETATM    8  P1  UNL     1      32.486   3.034  43.813  1.00  0.00     0.417 P 
HETATM    9  O3  UNL     1      33.537   3.699  43.081  1.00  0.00    -0.624 OA
HETATM   10  O4  UNL     1      30.965   3.064  42.892  1.00  0.00    -0.624 OA
BRANCH   8  11
HETATM   11  O5  UNL     1      32.084   3.628  45.322  1.00  0.00    -0.180 OA
BRANCH  11  12
HETATM   12  P2  UNL     1      31.245   5.134  45.100  1.00  0.00     0.428 P 
HETATM   13  O6  UNL     1      29.784   4.806  45.172  1.00  0.00    -0.624 OA
HETATM   14  O7  UNL     1      31.659   5.900  43.684  1.00  0.00    -0.624 OA
BRANCH  12  15
HETATM   15  O8  UNL     1      31.646   6.101  46.455  1.00  0.00    -0.173 OA
BRANCH  15  16
HETATM   16  P3  UNL     1      31.207   7.692  46.156  1.00  0.00     0.431 P 
HETATM   17  O9  UNL     1      31.972   8.309  45.038  1.00  0.00    -0.616 OA
HETATM   18  O10 UNL     1      29.554   7.695  45.759  1.00  0.00    -0.616 OA
HETATM   19  O11 UNL     1      31.467   8.562  47.590  1.00  0.00    -0.616 OA
ENDBRANCH  15  16
ENDBRANCH  12  15
ENDBRANCH  11  12
ENDBRANCH   8  11
ENDBRANCH   7   8
ENDBRANCH   6   7
ENDBRANCH   3   6
BRANCH   4  20
HETATM   20  O12 UNL     1      37.122   0.350  45.150  1.00  0.00    -0.390 OA
ATOM     21  H12 UNL     1      37.296  -0.116  44.341  1.00  0.00     0.210 HD
ENDBRANCH   4  20
BRANCH   1  22
HETATM   22  N5  UNL     1      37.201   1.376  41.441  1.00  0.00    -0.273 N 
HETATM   23  C3  UNL     1      38.342   0.819  41.004  1.00  0.00     0.146 A 
HETATM   24  N3  UNL     1      39.276   0.155  41.668  1.00  0.00    -0.336 N 
HETATM   25  C4  UNL     1      38.492   1.012  39.671  1.00  0.00     0.120 A 
HETATM   26  C2  UNL     1      40.350  -0.316  41.010  1.00  0.00     0.183 A 
ATOM     27  H3  UNL     1      39.181   0.002  42.671  1.00  0.00     0.168 HD
HETATM   28  N2  UNL     1      40.511  -0.145  39.686  1.00  0.00    -0.339 N 
HETATM   29  C1  UNL     1      39.584   0.522  39.000  1.00  0.00     0.148 A 
ATOM     30  H2  UNL     1      41.333  -0.520  39.212  1.00  0.00     0.167 HD
HETATM   31  N1  UNL     1      39.688   0.574  37.592  1.00  0.00    -0.080 NA
HETATM   32  N4  UNL     1      37.419   1.725  39.277  1.00  0.00    -0.346 N 
HETATM   33  C5  UNL     1      36.643   1.946  40.355  1.00  0.00     0.192 A 
ATOM     34  H4  UNL     1      37.228   2.043  38.328  1.00  0.00     0.167 HD
ENDBRANCH   1  22
BRANCH   5  35
HETATM   35  O13 UNL     1      38.047   2.554  44.166  1.00  0.00    -0.385 OA
ATOM     36  H13 UNL     1      38.141   2.824  45.073  1.00  0.00     0.210 HD
ENDBRANCH   5  35
TORSDOF 10
ENDMDL
