MODEL 12
REMARK VINA RESULT: -9.829362966      4.269      5.507
REMARK  10 active torsions:
REMARK  status: ('A' for Active; 'I' for Inactive)
REMARK    1  A    between atoms: N5_13  and  C6_14 
REMARK    2  A    between atoms: C7_16  and  C8_17 
REMARK    3  A    between atoms: C8_17  and  O2_18 
REMARK    4  A    between atoms: O2_18  and  P1_19 
REMARK    5  A    between atoms: P1_19  and  O5_22 
REMARK    6  A    between atoms: O5_22  and  P2_23 
REMARK    7  A    between atoms: P2_23  and  O8_26 
REMARK    8  A    between atoms: O8_26  and  P3_27 
REMARK    9  A    between atoms: C9_31  and  O12_32 
REMARK   10  A    between atoms: C10_34  and  O13_35 
ROOT
HETATM    1  C6  UNL     1      34.427   4.328  39.546  1.00  0.00     0.159 C 
HETATM    2  O1  UNL     1      33.446   3.798  40.401  1.00  0.00    -0.326 OA
HETATM    3  C7  UNL     1      34.096   2.809  41.015  1.00  0.00     0.186 C 
HETATM    4  C9  UNL     1      35.595   2.790  40.685  1.00  0.00     0.186 C 
HETATM    5  C10 UNL     1      35.672   4.310  40.359  1.00  0.00     0.224 C 
ENDROOT
BRANCH   3   6
HETATM    6  C8  UNL     1      34.010   2.462  42.445  1.00  0.00     0.216 C 
BRANCH   6   7
HETATM    7  O2  UNL     1      33.576   3.599  43.172  1.00  0.00    -0.287 OA
BRANCH   7   8
HETATM    8  P1  UNL     1      32.117   2.988  43.909  1.00  0.00     0.417 P 
HETATM    9  O3  UNL     1      31.048   2.992  42.940  1.00  0.00    -0.624 OA
HETATM   10  O4  UNL     1      32.626   1.324  44.273  1.00  0.00    -0.624 OA
BRANCH   8  11
HETATM   11  O5  UNL     1      31.825   3.682  45.401  1.00  0.00    -0.180 OA
BRANCH  11  12
HETATM   12  P2  UNL     1      31.197   5.280  45.135  1.00  0.00     0.428 P 
HETATM   13  O6  UNL     1      29.707   5.164  45.268  1.00  0.00    -0.624 OA
HETATM   14  O7  UNL     1      31.659   5.920  43.672  1.00  0.00    -0.624 OA
BRANCH  12  15
HETATM   15  O8  UNL     1      31.778   6.238  46.429  1.00  0.00    -0.173 OA
BRANCH  15  16
HETATM   16  P3  UNL     1      31.164   7.792  46.295  1.00  0.00     0.431 P 
HETATM   17  O9  UNL     1      29.678   7.830  46.227  1.00  0.00    -0.616 OA
HETATM   18  O10 UNL     1      31.674   8.658  47.666  1.00  0.00    -0.616 OA
HETATM   19  O11 UNL     1      31.829   8.474  44.890  1.00  0.00    -0.616 OA
ENDBRANCH  15  16
ENDBRANCH  12  15
ENDBRANCH  11  12
ENDBRANCH   8  11
ENDBRANCH   7   8
ENDBRANCH   6   7
ENDBRANCH   3   6
BRANCH   4  20
HETATM   20  O12 UNL     1      35.783   2.044  39.566  1.00  0.00    -0.390 OA
ATOM     21  H12 UNL     1      36.704   2.071  39.335  1.00  0.00     0.210 HD
ENDBRANCH   4  20
BRANCH   1  22
HETATM   22  N5  UNL     1      34.098   5.409  38.754  1.00  0.00    -0.273 N 
HETATM   23  C3  UNL     1      33.560   6.568  39.165  1.00  0.00     0.146 A 
HETATM   24  N3  UNL     1      33.053   6.905  40.341  1.00  0.00    -0.336 N 
HETATM   25  C4  UNL     1      33.566   7.483  38.164  1.00  0.00     0.120 A 
HETATM   26  C2  UNL     1      32.560   8.142  40.522  1.00  0.00     0.183 A 
ATOM     27  H3  UNL     1      33.037   6.230  41.105  1.00  0.00     0.168 HD
HETATM   28  N2  UNL     1      32.569   9.067  39.545  1.00  0.00    -0.339 N 
HETATM   29  C1  UNL     1      33.072   8.747  38.354  1.00  0.00     0.148 A 
ATOM     30  H2  UNL     1      32.194  10.001  39.714  1.00  0.00     0.167 HD
HETATM   31  N1  UNL     1      33.208   9.763  37.381  1.00  0.00    -0.080 NA
HETATM   32  N4  UNL     1      34.110   6.861  37.099  1.00  0.00    -0.346 N 
HETATM   33  C5  UNL     1      34.426   5.604  37.463  1.00  0.00     0.192 A 
ATOM     34  H4  UNL     1      34.257   7.272  36.178  1.00  0.00     0.167 HD
ENDBRANCH   1  22
BRANCH   5  35
HETATM   35  O13 UNL     1      36.868   4.389  39.659  1.00  0.00    -0.385 OA
ATOM     36  H13 UNL     1      37.306   3.566  39.476  1.00  0.00     0.210 HD
ENDBRANCH   5  35
TORSDOF 10
ENDMDL
