MODEL 2
REMARK VINA RESULT: -5.481686692      0.073      2.764
REMARK  0 active torsions:
REMARK  status: ('A' for Active; 'I' for Inactive)
ROOT
HETATM    1  C1  UNL     1      27.207   7.171   5.152  1.00  0.00     0.000 A 
HETATM    2  C2  UNL     1      26.546   6.524   6.181  1.00  0.00     0.000 A 
HETATM    3  C3  UNL     1      25.868   5.338   5.977  1.00  0.00     0.000 A 
HETATM    4  C4  UNL     1      25.866   4.802   4.692  1.00  0.00     0.000 A 
HETATM    5  C5  UNL     1      26.526   5.453   3.676  1.00  0.00     0.000 A 
HETATM    6  C6  UNL     1      27.205   6.641   3.882  1.00  0.00     0.000 A 
ENDROOT
TORSDOF 0
ENDMDL
