MODEL 1
REMARK VINA RESULT: -5.484114353      0.000      0.000
REMARK  0 active torsions:
REMARK  status: ('A' for Active; 'I' for Inactive)
ROOT
HETATM    1  C1  UNL     1      25.868   4.784   4.614  1.00  0.00     0.000 A 
HETATM    2  C2  UNL     1      26.556   5.467   3.627  1.00  0.00     0.000 A 
HETATM    3  C3  UNL     1      27.224   6.646   3.890  1.00  0.00     0.000 A 
HETATM    4  C4  UNL     1      27.187   7.141   5.191  1.00  0.00     0.000 A 
HETATM    5  C5  UNL     1      26.499   6.455   6.165  1.00  0.00     0.000 A 
HETATM    6  C6  UNL     1      25.831   5.272   5.901  1.00  0.00     0.000 A 
ENDROOT
TORSDOF 0
ENDMDL
