MODEL 3
REMARK VINA RESULT: -5.480265156      0.074      1.936
REMARK  0 active torsions:
REMARK  status: ('A' for Active; 'I' for Inactive)
ROOT
HETATM    1  C1  UNL     1      26.546   6.513   6.199  1.00  0.00     0.000 A 
HETATM    2  C2  UNL     1      27.202   7.144   5.157  1.00  0.00     0.000 A 
HETATM    3  C3  UNL     1      27.204   6.624   3.878  1.00  0.00     0.000 A 
HETATM    4  C4  UNL     1      26.523   5.429   3.659  1.00  0.00     0.000 A 
HETATM    5  C5  UNL     1      25.875   4.809   4.702  1.00  0.00     0.000 A 
HETATM    6  C6  UNL     1      25.872   5.332   5.983  1.00  0.00     0.000 A 
ENDROOT
TORSDOF 0
ENDMDL
