MODEL 5
REMARK VINA RESULT: -5.479302143      0.089      1.937
REMARK  0 active torsions:
REMARK  status: ('A' for Active; 'I' for Inactive)
ROOT
HETATM    1  C1  UNL     1      25.879   5.366   5.951  1.00  0.00     0.000 A 
HETATM    2  C2  UNL     1      26.580   6.538   6.172  1.00  0.00     0.000 A 
HETATM    3  C3  UNL     1      27.254   7.184   5.156  1.00  0.00     0.000 A 
HETATM    4  C4  UNL     1      27.213   6.619   3.884  1.00  0.00     0.000 A 
HETATM    5  C5  UNL     1      26.514   5.454   3.674  1.00  0.00     0.000 A 
HETATM    6  C6  UNL     1      25.837   4.807   4.694  1.00  0.00     0.000 A 
ENDROOT
TORSDOF 0
ENDMDL
