MODEL 4
REMARK VINA RESULT: -5.479907447      0.229      1.571
REMARK  0 active torsions:
REMARK  status: ('A' for Active; 'I' for Inactive)
ROOT
HETATM    1  C1  UNL     1      25.948   5.481   6.016  1.00  0.00     0.000 A 
HETATM    2  C2  UNL     1      25.843   4.826   4.802  1.00  0.00     0.000 A 
HETATM    3  C3  UNL     1      26.453   5.307   3.661  1.00  0.00     0.000 A 
HETATM    4  C4  UNL     1      27.186   6.486   3.763  1.00  0.00     0.000 A 
HETATM    5  C5  UNL     1      27.285   7.131   4.973  1.00  0.00     0.000 A 
HETATM    6  C6  UNL     1      26.673   6.647   6.117  1.00  0.00     0.000 A 
ENDROOT
TORSDOF 0
ENDMDL
