MODEL 4
REMARK VINA RESULT: -7.465710030      3.133      5.390
REMARK  10 active torsions:
REMARK  status: ('A' for Active; 'I' for Inactive)
REMARK    1  A    between atoms: N2_4  and  C3_5 
REMARK    2  A    between atoms: C4_7  and  C5_8 
REMARK    3  A    between atoms: C5_8  and  O2_9 
REMARK    4  A    between atoms: O2_9  and  P1_10 
REMARK    5  A    between atoms: P1_10  and  O5_13 
REMARK    6  A    between atoms: O5_13  and  P2_14 
REMARK    7  A    between atoms: P2_14  and  O8_17 
REMARK    8  A    between atoms: O8_17  and  P3_18 
REMARK    9  A    between atoms: C6_22  and  O12_23 
REMARK   10  A    between atoms: C7_25  and  O13_26 
ROOT
HETATM    1  C3  UNL     1       4.261   7.205  14.824  1.00  0.00     0.262 C 
HETATM    2  O1  UNL     1       4.302   8.600  15.015  1.00  0.00    -0.353 OA
HETATM    3  C4  UNL     1       5.479   8.985  14.543  1.00  0.00     0.180 C 
HETATM    4  C6  UNL     1       5.646   8.230  13.243  1.00  0.00     0.182 C 
HETATM    5  C7  UNL     1       5.405   6.834  13.870  1.00  0.00     0.198 C 
ENDROOT
BRANCH   1   6
HETATM    6  N2  UNL     1       3.055   6.915  14.048  1.00  0.00    -0.297 N 
HETATM    7  C2  UNL     1       2.631   5.651  13.772  1.00  0.00     0.190 A 
HETATM    8  N1  UNL     1       1.524   5.727  13.065  1.00  0.00    -0.340 N 
HETATM    9  C1  UNL     1       0.785   4.632  12.488  1.00  0.00     0.157 C 
HETATM   10  C11 UNL     1       1.209   7.015  12.868  1.00  0.00     0.148 A 
HETATM   11  C8  UNL     1       2.212   7.768  13.513  1.00  0.00     0.146 A 
HETATM   12  C10 UNL     1       0.226   7.731  12.229  1.00  0.00     0.278 A 
HETATM   13  N3  UNL     1       2.166   9.103  13.467  1.00  0.00    -0.314 N 
HETATM   14  C9  UNL     1       1.200   9.760  12.830  1.00  0.00     0.196 A 
ATOM     15  H3  UNL     1       2.898   9.637  13.936  1.00  0.00     0.170 HD
HETATM   16  N4  UNL     1       1.245  11.199  12.710  1.00  0.00    -0.063 NA
HETATM   17  N5  UNL     1       0.230   9.085  12.212  1.00  0.00    -0.295 N 
ATOM     18  H5  UNL     1      -0.511   9.590  11.726  1.00  0.00     0.171 HD
HETATM   19  O14 UNL     1      -0.698   7.088  11.648  1.00  0.00    -0.265 OA
ENDBRANCH   1   6
BRANCH   5  20
HETATM   20  O13 UNL     1       6.521   6.524  14.582  1.00  0.00    -0.388 OA
ATOM     21  H13 UNL     1       6.719   5.599  14.490  1.00  0.00     0.210 HD
ENDBRANCH   5  20
BRANCH   3  22
HETATM   22  C5  UNL     1       5.923  10.392  14.544  1.00  0.00     0.216 C 
BRANCH  22  23
HETATM   23  O2  UNL     1       4.676  11.056  14.284  1.00  0.00    -0.287 OA
BRANCH  23  24
HETATM   24  P1  UNL     1       4.660  12.495  15.126  1.00  0.00     0.417 P 
HETATM   25  O3  UNL     1       4.477  12.139  16.651  1.00  0.00    -0.624 OA
HETATM   26  O4  UNL     1       6.068  13.320  15.025  1.00  0.00    -0.624 OA
BRANCH  24  27
HETATM   27  O5  UNL     1       3.323  13.449  14.736  1.00  0.00    -0.180 OA
BRANCH  27  28
HETATM   28  P2  UNL     1       3.722  14.465  13.424  1.00  0.00     0.428 P 
HETATM   29  O6  UNL     1       2.468  15.051  12.877  1.00  0.00    -0.624 OA
HETATM   30  O7  UNL     1       4.779  15.687  13.825  1.00  0.00    -0.624 OA
BRANCH  28  31
HETATM   31  O8  UNL     1       4.498  13.490  12.248  1.00  0.00    -0.173 OA
BRANCH  31  32
HETATM   32  P3  UNL     1       4.257  14.137  10.716  1.00  0.00     0.431 P 
HETATM   33  O9  UNL     1       5.326  13.585   9.786  1.00  0.00    -0.616 OA
HETATM   34  O10 UNL     1       2.750  13.673  10.091  1.00  0.00    -0.616 OA
HETATM   35  O11 UNL     1       4.325  15.814  10.711  1.00  0.00    -0.616 OA
ENDBRANCH  31  32
ENDBRANCH  28  31
ENDBRANCH  27  28
ENDBRANCH  24  27
ENDBRANCH  23  24
ENDBRANCH  22  23
ENDBRANCH   3  22
BRANCH   4  36
HETATM   36  O12 UNL     1       6.944   8.314  12.761  1.00  0.00    -0.390 OA
ATOM     37  H12 UNL     1       7.467   7.564  13.018  1.00  0.00     0.210 HD
ENDBRANCH   4  36
TORSDOF 10
ENDMDL
