MODEL 1
REMARK VINA RESULT: -7.624785740      0.000      0.000
REMARK  10 active torsions:
REMARK  status: ('A' for Active; 'I' for Inactive)
REMARK    1  A    between atoms: N2_4  and  C3_5 
REMARK    2  A    between atoms: C4_7  and  C5_8 
REMARK    3  A    between atoms: C5_8  and  O2_9 
REMARK    4  A    between atoms: O2_9  and  P1_10 
REMARK    5  A    between atoms: P1_10  and  O5_13 
REMARK    6  A    between atoms: O5_13  and  P2_14 
REMARK    7  A    between atoms: P2_14  and  O8_17 
REMARK    8  A    between atoms: O8_17  and  P3_18 
REMARK    9  A    between atoms: C6_22  and  O12_23 
REMARK   10  A    between atoms: C7_25  and  O13_26 
ROOT
HETATM    1  C3  UNL     1       1.100  10.523  13.010  1.00  0.00     0.262 C 
HETATM    2  O1  UNL     1       1.890  10.169  14.121  1.00  0.00    -0.353 OA
HETATM    3  C4  UNL     1       1.482  10.952  15.108  1.00  0.00     0.180 C 
HETATM    4  C6  UNL     1      -0.028  10.947  15.014  1.00  0.00     0.182 C 
HETATM    5  C7  UNL     1      -0.069  11.374  13.526  1.00  0.00     0.198 C 
ENDROOT
BRANCH   1   6
HETATM    6  N2  UNL     1       0.456   9.299  12.536  1.00  0.00    -0.297 N 
HETATM    7  C2  UNL     1      -0.702   9.294  11.820  1.00  0.00     0.190 A 
HETATM    8  N1  UNL     1      -1.018   8.047  11.543  1.00  0.00    -0.340 N 
HETATM    9  C1  UNL     1      -2.207   7.578  10.877  1.00  0.00     0.157 C 
HETATM   10  C11 UNL     1      -0.092   7.229  12.064  1.00  0.00     0.148 A 
HETATM   11  C8  UNL     1       0.853   8.059  12.700  1.00  0.00     0.146 A 
HETATM   12  C10 UNL     1       0.140   5.876  12.133  1.00  0.00     0.278 A 
HETATM   13  N3  UNL     1       1.896   7.507  13.332  1.00  0.00    -0.314 N 
HETATM   14  C9  UNL     1       2.081   6.191  13.382  1.00  0.00     0.196 A 
ATOM     15  H3  UNL     1       2.572   8.117  13.790  1.00  0.00     0.170 HD
HETATM   16  N4  UNL     1       3.157   5.630  14.165  1.00  0.00    -0.063 NA
HETATM   17  N5  UNL     1       1.213   5.372  12.787  1.00  0.00    -0.295 N 
ATOM     18  H5  UNL     1       1.356   4.363  12.826  1.00  0.00     0.171 HD
HETATM   19  O14 UNL     1      -0.683   5.100  11.561  1.00  0.00    -0.265 OA
ENDBRANCH   1   6
BRANCH   5  20
HETATM   20  O13 UNL     1       0.262  12.692  13.485  1.00  0.00    -0.388 OA
ATOM     21  H13 UNL     1      -0.521  13.221  13.386  1.00  0.00     0.210 HD
ENDBRANCH   5  20
BRANCH   3  22
HETATM   22  C5  UNL     1       2.053  10.897  16.467  1.00  0.00     0.216 C 
BRANCH  22  23
HETATM   23  O2  UNL     1       3.441  11.128  16.172  1.00  0.00    -0.287 OA
BRANCH  23  24
HETATM   24  P1  UNL     1       4.361  10.340  17.317  1.00  0.00     0.417 P 
HETATM   25  O3  UNL     1       4.662  11.377  18.465  1.00  0.00    -0.624 OA
HETATM   26  O4  UNL     1       3.578   9.096  18.032  1.00  0.00    -0.624 OA
BRANCH  24  27
HETATM   27  O5  UNL     1       5.877   9.894  16.722  1.00  0.00    -0.180 OA
BRANCH  27  28
HETATM   28  P2  UNL     1       5.766   8.348  16.008  1.00  0.00     0.428 P 
HETATM   29  O6  UNL     1       7.114   7.953  15.516  1.00  0.00    -0.624 OA
HETATM   30  O7  UNL     1       5.186   7.177  17.040  1.00  0.00    -0.624 OA
BRANCH  28  31
HETATM   31  O8  UNL     1       4.658   8.470  14.707  1.00  0.00    -0.173 OA
BRANCH  31  32
HETATM   32  P3  UNL     1       5.418   9.139  13.366  1.00  0.00     0.431 P 
HETATM   33  O9  UNL     1       4.358   9.465  12.324  1.00  0.00    -0.616 OA
HETATM   34  O10 UNL     1       6.196  10.591  13.770  1.00  0.00    -0.616 OA
HETATM   35  O11 UNL     1       6.561   8.109  12.696  1.00  0.00    -0.616 OA
ENDBRANCH  31  32
ENDBRANCH  28  31
ENDBRANCH  27  28
ENDBRANCH  24  27
ENDBRANCH  23  24
ENDBRANCH  22  23
ENDBRANCH   3  22
BRANCH   4  36
HETATM   36  O12 UNL     1      -0.598  11.932  15.806  1.00  0.00    -0.390 OA
ATOM     37  H12 UNL     1      -0.921  11.583  16.628  1.00  0.00     0.210 HD
ENDBRANCH   4  36
TORSDOF 10
ENDMDL
