MODEL 2
REMARK VINA RESULT: -7.534807734      2.706      4.964
REMARK  10 active torsions:
REMARK  status: ('A' for Active; 'I' for Inactive)
REMARK    1  A    between atoms: N2_4  and  C3_5 
REMARK    2  A    between atoms: C4_7  and  C5_8 
REMARK    3  A    between atoms: C5_8  and  O2_9 
REMARK    4  A    between atoms: O2_9  and  P1_10 
REMARK    5  A    between atoms: P1_10  and  O5_13 
REMARK    6  A    between atoms: O5_13  and  P2_14 
REMARK    7  A    between atoms: P2_14  and  O8_17 
REMARK    8  A    between atoms: O8_17  and  P3_18 
REMARK    9  A    between atoms: C6_22  and  O12_23 
REMARK   10  A    between atoms: C7_25  and  O13_26 
ROOT
HETATM    1  C3  UNL     1       4.275   6.385  14.651  1.00  0.00     0.262 C 
HETATM    2  O1  UNL     1       4.330   7.575  15.404  1.00  0.00    -0.353 OA
HETATM    3  C4  UNL     1       5.465   8.161  15.053  1.00  0.00     0.180 C 
HETATM    4  C6  UNL     1       5.529   8.022  13.548  1.00  0.00     0.182 C 
HETATM    5  C7  UNL     1       5.340   6.485  13.550  1.00  0.00     0.198 C 
ENDROOT
BRANCH   1   6
HETATM    6  N2  UNL     1       3.011   6.404  13.915  1.00  0.00    -0.297 N 
HETATM    7  C2  UNL     1       2.368   5.276  13.507  1.00  0.00     0.190 A 
HETATM    8  N1  UNL     1       1.266   5.626  12.878  1.00  0.00    -0.340 N 
HETATM    9  C1  UNL     1       0.332   4.755  12.212  1.00  0.00     0.157 C 
HETATM   10  C11 UNL     1       1.170   6.963  12.862  1.00  0.00     0.148 A 
HETATM   11  C8  UNL     1       2.309   7.447  13.539  1.00  0.00     0.146 A 
HETATM   12  C10 UNL     1       0.303   7.910  12.373  1.00  0.00     0.278 A 
HETATM   13  N3  UNL     1       2.491   8.767  13.662  1.00  0.00    -0.314 N 
HETATM   14  C9  UNL     1       1.630   9.653  13.168  1.00  0.00     0.196 A 
ATOM     15  H3  UNL     1       3.319   9.105  14.152  1.00  0.00     0.170 HD
HETATM   16  N4  UNL     1       1.916  11.067  13.226  1.00  0.00    -0.063 NA
HETATM   17  N5  UNL     1       0.538   9.235  12.526  1.00  0.00    -0.295 N 
ATOM     18  H5  UNL     1      -0.122   9.915  12.149  1.00  0.00     0.171 HD
HETATM   19  O14 UNL     1      -0.738   7.511  11.771  1.00  0.00    -0.265 OA
ENDBRANCH   1   6
BRANCH   5  20
HETATM   20  O13 UNL     1       6.509   5.945  13.984  1.00  0.00    -0.388 OA
ATOM     21  H13 UNL     1       6.959   6.558  14.553  1.00  0.00     0.210 HD
ENDBRANCH   5  20
BRANCH   3  22
HETATM   22  C5  UNL     1       5.907   9.453  15.610  1.00  0.00     0.216 C 
BRANCH  22  23
HETATM   23  O2  UNL     1       4.953  10.337  15.001  1.00  0.00    -0.287 OA
BRANCH  23  24
HETATM   24  P1  UNL     1       4.184  11.195  16.205  1.00  0.00     0.417 P 
HETATM   25  O3  UNL     1       2.842  10.434  16.533  1.00  0.00    -0.624 OA
HETATM   26  O4  UNL     1       5.025  11.239  17.606  1.00  0.00    -0.624 OA
BRANCH  24  27
HETATM   27  O5  UNL     1       3.702  12.729  15.691  1.00  0.00    -0.180 OA
BRANCH  27  28
HETATM   28  P2  UNL     1       4.977  13.453  14.816  1.00  0.00     0.428 P 
HETATM   29  O6  UNL     1       4.941  14.922  15.050  1.00  0.00    -0.624 OA
HETATM   30  O7  UNL     1       6.480  12.861  15.218  1.00  0.00    -0.624 OA
BRANCH  28  31
HETATM   31  O8  UNL     1       4.718  13.097  13.160  1.00  0.00    -0.173 OA
BRANCH  31  32
HETATM   32  P3  UNL     1       3.772  14.293  12.456  1.00  0.00     0.431 P 
HETATM   33  O9  UNL     1       3.243  13.771  11.129  1.00  0.00    -0.616 OA
HETATM   34  O10 UNL     1       2.432  14.659  13.429  1.00  0.00    -0.616 OA
HETATM   35  O11 UNL     1       4.625  15.715  12.196  1.00  0.00    -0.616 OA
ENDBRANCH  31  32
ENDBRANCH  28  31
ENDBRANCH  27  28
ENDBRANCH  24  27
ENDBRANCH  23  24
ENDBRANCH  22  23
ENDBRANCH   3  22
BRANCH   4  36
HETATM   36  O12 UNL     1       6.784   8.344  13.053  1.00  0.00    -0.390 OA
ATOM     37  H12 UNL     1       7.473   8.135  13.672  1.00  0.00     0.210 HD
ENDBRANCH   4  36
TORSDOF 10
ENDMDL
