MODEL 11
REMARK VINA RESULT: -7.906183456      1.422      1.620
REMARK  6 active torsions:
REMARK  status: ('A' for Active; 'I' for Inactive)
REMARK    1  A    between atoms: C1_2  and  C2_4 
REMARK       I    between atoms: C2_4  and  N1_6 
REMARK    2  A    between atoms: N1_6  and  C3_8 
REMARK    3  A    between atoms: C6_12  and  C7_13 
REMARK    4  A    between atoms: C10_19  and  C11_20 
REMARK    5  A    between atoms: C11_20  and  O7_21 
REMARK    6  A    between atoms: O7_21  and  C12_22 
ROOT
HETATM    1  C3  UNL     1      10.430  45.837  19.541  1.00  0.00     0.095 A 
HETATM    2  S1  UNL     1      12.127  45.825  20.035  1.00  0.00    -0.072 SA
HETATM    3  C4  UNL     1      12.806  45.188  18.638  1.00  0.00     0.023 A 
HETATM    4  C5  UNL     1      11.743  44.986  17.809  1.00  0.00    -0.021 A 
HETATM    5  C6  UNL     1      10.510  45.322  18.293  1.00  0.00     0.082 A 
HETATM    6  C8  UNL     1      12.220  44.420  16.470  1.00  0.00     0.067 C 
HETATM    7  C9  UNL     1      13.319  45.425  16.060  1.00  0.00     0.173 C 
HETATM    8  O6  UNL     1      14.424  45.308  16.872  1.00  0.00    -0.378 OA
HETATM    9  C10 UNL     1      14.167  44.809  18.115  1.00  0.00     0.186 C 
ENDROOT
BRANCH   9  10
HETATM   10  C11 UNL     1      15.211  45.100  19.137  1.00  0.00     0.214 C 
BRANCH  10  11
HETATM   11  O7  UNL     1      16.485  44.883  18.543  1.00  0.00    -0.332 OA
BRANCH  11  12
HETATM   12  C12 UNL     1      17.681  45.083  19.269  1.00  0.00     0.164 A 
HETATM   13  N2  UNL     1      17.630  45.773  20.345  1.00  0.00    -0.259 N 
HETATM   14  S2  UNL     1      19.225  45.836  20.992  1.00  0.00     0.265 S 
ATOM     15  H2  UNL     1      16.798  46.207  20.746  1.00  0.00     0.181 HD
HETATM   16  O8  UNL     1      19.317  45.172  22.330  1.00  0.00    -0.200 OA
HETATM   17  O9  UNL     1      19.762  47.234  21.019  1.00  0.00    -0.200 OA
HETATM   18  C13 UNL     1      19.991  44.878  19.740  1.00  0.00     0.094 A 
HETATM   19  C14 UNL     1      21.285  44.493  19.575  1.00  0.00     0.026 A 
HETATM   20  C18 UNL     1      18.952  44.569  18.893  1.00  0.00     0.039 A 
HETATM   21  C15 UNL     1      21.625  43.732  18.490  1.00  0.00     0.002 A 
HETATM   22  C16 UNL     1      20.622  43.393  17.610  1.00  0.00     0.001 A 
HETATM   23  C17 UNL     1      19.323  43.787  17.784  1.00  0.00     0.017 A 
ENDBRANCH  11  12
ENDBRANCH  10  11
ENDBRANCH   9  10
BRANCH   1  24
HETATM   24  N1  UNL     1       9.405  46.280  20.419  1.00  0.00    -0.311 N 
HETATM   25  C2  UNL     1       9.439  47.154  21.493  1.00  0.00     0.323 C 
HETATM   26  O3  UNL     1      10.491  47.676  21.887  1.00  0.00    -0.260 OA
ATOM     27  H1  UNL     1       8.485  45.886  20.225  1.00  0.00     0.170 HD
BRANCH  25  28
HETATM   28  C1  UNL     1       8.228  47.534  22.253  1.00  0.00     0.270 C 
HETATM   29  O1  UNL     1       7.235  46.769  22.192  1.00  0.00    -0.640 OA
HETATM   30  O2  UNL     1       8.165  48.672  23.004  1.00  0.00    -0.640 OA
ENDBRANCH  25  28
ENDBRANCH   1  24
BRANCH   5  31
HETATM   31  C7  UNL     1       9.291  44.870  17.540  1.00  0.00     0.212 C 
HETATM   32  O4  UNL     1       8.135  44.940  17.978  1.00  0.00    -0.644 OA
HETATM   33  O5  UNL     1       9.382  44.323  16.257  1.00  0.00    -0.644 OA
ENDBRANCH   5  31
TORSDOF 6
ENDMDL
