MODEL 7
REMARK VINA RESULT: -8.059126282      3.651      9.642
REMARK  6 active torsions:
REMARK  status: ('A' for Active; 'I' for Inactive)
REMARK    1  A    between atoms: C1_2  and  C2_4 
REMARK       I    between atoms: C2_4  and  N1_6 
REMARK    2  A    between atoms: N1_6  and  C3_8 
REMARK    3  A    between atoms: C6_12  and  C7_13 
REMARK    4  A    between atoms: C10_19  and  C11_20 
REMARK    5  A    between atoms: C11_20  and  O7_21 
REMARK    6  A    between atoms: O7_21  and  C12_22 
ROOT
HETATM    1  C3  UNL     1      20.076  45.970  21.348  1.00  0.00     0.095 A 
HETATM    2  S1  UNL     1      18.706  44.924  20.954  1.00  0.00    -0.072 SA
HETATM    3  C4  UNL     1      17.886  45.946  19.904  1.00  0.00     0.023 A 
HETATM    4  C5  UNL     1      18.652  47.072  19.861  1.00  0.00    -0.021 A 
HETATM    5  C6  UNL     1      19.788  47.075  20.622  1.00  0.00     0.082 A 
HETATM    6  C8  UNL     1      18.029  48.097  18.912  1.00  0.00     0.067 C 
HETATM    7  C9  UNL     1      17.825  47.272  17.623  1.00  0.00     0.173 C 
HETATM    8  O6  UNL     1      16.829  46.337  17.787  1.00  0.00    -0.378 OA
HETATM    9  C10 UNL     1      16.626  45.940  19.076  1.00  0.00     0.186 C 
ENDROOT
BRANCH   9  10
HETATM   10  C11 UNL     1      15.915  44.641  19.230  1.00  0.00     0.214 C 
BRANCH  10  11
HETATM   11  O7  UNL     1      14.517  44.889  19.141  1.00  0.00    -0.332 OA
BRANCH  11  12
HETATM   12  C12 UNL     1      13.786  44.582  17.970  1.00  0.00     0.164 A 
HETATM   13  N2  UNL     1      14.434  44.222  16.927  1.00  0.00    -0.259 N 
HETATM   14  S2  UNL     1      13.280  43.922  15.684  1.00  0.00     0.265 S 
ATOM     15  H2  UNL     1      15.447  44.130  16.846  1.00  0.00     0.181 HD
HETATM   16  O8  UNL     1      13.285  42.492  15.245  1.00  0.00    -0.200 OA
HETATM   17  O9  UNL     1      13.443  44.866  14.531  1.00  0.00    -0.200 OA
HETATM   18  C13 UNL     1      11.856  44.304  16.631  1.00  0.00     0.094 A 
HETATM   19  C14 UNL     1      10.536  44.292  16.303  1.00  0.00     0.026 A 
HETATM   20  C18 UNL     1      12.371  44.644  17.860  1.00  0.00     0.039 A 
HETATM   21  C15 UNL     1       9.608  44.639  17.247  1.00  0.00     0.002 A 
HETATM   22  C16 UNL     1      10.070  44.988  18.497  1.00  0.00     0.001 A 
HETATM   23  C17 UNL     1      11.400  44.998  18.816  1.00  0.00     0.017 A 
ENDBRANCH  11  12
ENDBRANCH  10  11
ENDBRANCH   9  10
BRANCH   1  24
HETATM   24  N1  UNL     1      21.084  45.559  22.258  1.00  0.00    -0.311 N 
HETATM   25  C2  UNL     1      21.554  46.141  23.424  1.00  0.00     0.323 C 
HETATM   26  O3  UNL     1      21.134  47.234  23.833  1.00  0.00    -0.260 OA
ATOM     27  H1  UNL     1      21.543  44.682  22.011  1.00  0.00     0.170 HD
BRANCH  25  28
HETATM   28  C1  UNL     1      22.587  45.511  24.273  1.00  0.00     0.270 C 
HETATM   29  O1  UNL     1      22.544  45.732  25.508  1.00  0.00    -0.640 OA
HETATM   30  O2  UNL     1      23.567  44.710  23.759  1.00  0.00    -0.640 OA
ENDBRANCH  25  28
ENDBRANCH   1  24
BRANCH   5  31
HETATM   31  C7  UNL     1      20.515  48.373  20.828  1.00  0.00     0.212 C 
HETATM   32  O4  UNL     1      20.091  49.309  21.517  1.00  0.00    -0.644 OA
HETATM   33  O5  UNL     1      21.759  48.619  20.238  1.00  0.00    -0.644 OA
ENDBRANCH   5  31
TORSDOF 6
ENDMDL
