MODEL 6
REMARK VINA RESULT: -8.120447518      3.683      9.381
REMARK  6 active torsions:
REMARK  status: ('A' for Active; 'I' for Inactive)
REMARK    1  A    between atoms: C1_2  and  C2_4 
REMARK       I    between atoms: C2_4  and  N1_6 
REMARK    2  A    between atoms: N1_6  and  C3_8 
REMARK    3  A    between atoms: C6_12  and  C7_13 
REMARK    4  A    between atoms: C10_19  and  C11_20 
REMARK    5  A    between atoms: C11_20  and  O7_21 
REMARK    6  A    between atoms: O7_21  and  C12_22 
ROOT
HETATM    1  C3  UNL     1      19.223  46.121  21.173  1.00  0.00     0.095 A 
HETATM    2  S1  UNL     1      18.146  44.925  20.442  1.00  0.00    -0.072 SA
HETATM    3  C4  UNL     1      17.462  45.881  19.243  1.00  0.00     0.023 A 
HETATM    4  C5  UNL     1      18.051  47.099  19.406  1.00  0.00    -0.021 A 
HETATM    5  C6  UNL     1      18.962  47.213  20.419  1.00  0.00     0.082 A 
HETATM    6  C8  UNL     1      17.533  48.079  18.353  1.00  0.00     0.067 C 
HETATM    7  C9  UNL     1      17.757  47.301  17.038  1.00  0.00     0.173 C 
HETATM    8  O6  UNL     1      16.892  46.235  16.942  1.00  0.00    -0.378 OA
HETATM    9  C10 UNL     1      16.448  45.751  18.137  1.00  0.00     0.186 C 
ENDROOT
BRANCH   9  10
HETATM   10  C11 UNL     1      15.910  44.363  18.092  1.00  0.00     0.214 C 
BRANCH  10  11
HETATM   11  O7  UNL     1      14.533  44.410  18.443  1.00  0.00    -0.332 OA
BRANCH  11  12
HETATM   12  C12 UNL     1      13.517  44.276  17.469  1.00  0.00     0.164 A 
HETATM   13  N2  UNL     1      13.851  43.900  16.292  1.00  0.00    -0.259 N 
HETATM   14  S2  UNL     1      12.413  43.831  15.347  1.00  0.00     0.265 S 
ATOM     15  H2  UNL     1      14.795  43.681  15.972  1.00  0.00     0.181 HD
HETATM   16  O8  UNL     1      12.114  42.443  14.875  1.00  0.00    -0.200 OA
HETATM   17  O9  UNL     1      12.440  44.816  14.217  1.00  0.00    -0.200 OA
HETATM   18  C13 UNL     1      11.312  44.337  16.613  1.00  0.00     0.094 A 
HETATM   19  C14 UNL     1       9.964  44.518  16.605  1.00  0.00     0.026 A 
HETATM   20  C18 UNL     1      12.137  44.529  17.697  1.00  0.00     0.039 A 
HETATM   21  C15 UNL     1       9.336  44.924  17.751  1.00  0.00     0.002 A 
HETATM   22  C16 UNL     1      10.116  45.130  18.867  1.00  0.00     0.001 A 
HETATM   23  C17 UNL     1      11.472  44.946  18.864  1.00  0.00     0.017 A 
ENDBRANCH  11  12
ENDBRANCH  10  11
ENDBRANCH   9  10
BRANCH   1  24
HETATM   24  N1  UNL     1      20.036  45.801  22.293  1.00  0.00    -0.311 N 
HETATM   25  C2  UNL     1      21.395  45.958  22.508  1.00  0.00     0.323 C 
HETATM   26  O3  UNL     1      22.155  46.403  21.637  1.00  0.00    -0.260 OA
ATOM     27  H1  UNL     1      19.530  45.384  23.075  1.00  0.00     0.170 HD
BRANCH  25  28
HETATM   28  C1  UNL     1      22.047  45.609  23.789  1.00  0.00     0.270 C 
HETATM   29  O1  UNL     1      22.805  44.609  23.806  1.00  0.00    -0.640 OA
HETATM   30  O2  UNL     1      21.850  46.333  24.930  1.00  0.00    -0.640 OA
ENDBRANCH  25  28
ENDBRANCH   1  24
BRANCH   5  31
HETATM   31  C7  UNL     1      19.431  48.584  20.816  1.00  0.00     0.212 C 
HETATM   32  O4  UNL     1      20.529  49.064  20.503  1.00  0.00    -0.644 OA
HETATM   33  O5  UNL     1      18.637  49.436  21.589  1.00  0.00    -0.644 OA
ENDBRANCH   5  31
TORSDOF 6
ENDMDL
