MODEL 2
REMARK VINA RESULT: -8.506502089      1.772      2.206
REMARK  6 active torsions:
REMARK  status: ('A' for Active; 'I' for Inactive)
REMARK    1  A    between atoms: C1_2  and  C2_4 
REMARK       I    between atoms: C2_4  and  N1_6 
REMARK    2  A    between atoms: N1_6  and  C3_8 
REMARK    3  A    between atoms: C6_12  and  C7_13 
REMARK    4  A    between atoms: C10_19  and  C11_20 
REMARK    5  A    between atoms: C11_20  and  O7_21 
REMARK    6  A    between atoms: O7_21  and  C12_22 
ROOT
HETATM    1  C3  UNL     1      10.196  46.101  19.645  1.00  0.00     0.095 A 
HETATM    2  S1  UNL     1      11.907  46.101  20.089  1.00  0.00    -0.072 SA
HETATM    3  C4  UNL     1      12.518  45.231  18.790  1.00  0.00     0.023 A 
HETATM    4  C5  UNL     1      11.423  44.944  18.032  1.00  0.00    -0.021 A 
HETATM    5  C6  UNL     1      10.218  45.397  18.491  1.00  0.00     0.082 A 
HETATM    6  C8  UNL     1      11.837  44.160  16.785  1.00  0.00     0.067 C 
HETATM    7  C9  UNL     1      12.956  45.047  16.194  1.00  0.00     0.173 C 
HETATM    8  O6  UNL     1      14.081  45.014  16.985  1.00  0.00    -0.378 OA
HETATM    9  C10 UNL     1      13.849  44.723  18.296  1.00  0.00     0.186 C 
ENDROOT
BRANCH   9  10
HETATM   10  C11 UNL     1      14.934  45.128  19.232  1.00  0.00     0.214 C 
BRANCH  10  11
HETATM   11  O7  UNL     1      16.130  44.471  18.833  1.00  0.00    -0.332 OA
BRANCH  11  12
HETATM   12  C12 UNL     1      17.376  44.784  19.424  1.00  0.00     0.164 A 
HETATM   13  N2  UNL     1      17.832  44.002  20.329  1.00  0.00    -0.259 N 
HETATM   14  S2  UNL     1      19.345  44.643  20.846  1.00  0.00     0.265 S 
ATOM     15  H2  UNL     1      17.383  43.155  20.679  1.00  0.00     0.181 HD
HETATM   16  O8  UNL     1      20.481  43.714  20.551  1.00  0.00    -0.200 OA
HETATM   17  O9  UNL     1      19.314  45.054  22.287  1.00  0.00    -0.200 OA
HETATM   18  C13 UNL     1      19.353  46.035  19.781  1.00  0.00     0.094 A 
HETATM   19  C14 UNL     1      20.263  47.032  19.621  1.00  0.00     0.026 A 
HETATM   20  C18 UNL     1      18.171  45.913  19.087  1.00  0.00     0.039 A 
HETATM   21  C15 UNL     1      20.023  48.017  18.702  1.00  0.00     0.002 A 
HETATM   22  C16 UNL     1      18.854  47.943  17.979  1.00  0.00     0.001 A 
HETATM   23  C17 UNL     1      17.944  46.936  18.148  1.00  0.00     0.017 A 
ENDBRANCH  11  12
ENDBRANCH  10  11
ENDBRANCH   9  10
BRANCH   1  24
HETATM   24  N1  UNL     1       9.216  46.713  20.471  1.00  0.00    -0.311 N 
HETATM   25  C2  UNL     1       9.260  47.112  21.797  1.00  0.00     0.323 C 
HETATM   26  O3  UNL     1      10.254  46.921  22.512  1.00  0.00    -0.260 OA
ATOM     27  H1  UNL     1       8.325  46.889  20.007  1.00  0.00     0.170 HD
BRANCH  25  28
HETATM   28  C1  UNL     1       8.131  47.796  22.464  1.00  0.00     0.270 C 
HETATM   29  O1  UNL     1       7.054  47.163  22.587  1.00  0.00    -0.640 OA
HETATM   30  O2  UNL     1       8.228  49.072  22.940  1.00  0.00    -0.640 OA
ENDBRANCH  25  28
ENDBRANCH   1  24
BRANCH   5  31
HETATM   31  C7  UNL     1       8.961  44.881  17.850  1.00  0.00     0.212 C 
HETATM   32  O4  UNL     1       8.890  44.470  16.685  1.00  0.00    -0.644 OA
HETATM   33  O5  UNL     1       7.751  44.827  18.548  1.00  0.00    -0.644 OA
ENDBRANCH   5  31
TORSDOF 6
ENDMDL
