MODEL 13
REMARK VINA RESULT: -7.707311420      4.011      9.491
REMARK  6 active torsions:
REMARK  status: ('A' for Active; 'I' for Inactive)
REMARK    1  A    between atoms: C1_2  and  C2_4 
REMARK       I    between atoms: C2_4  and  N1_6 
REMARK    2  A    between atoms: N1_6  and  C3_8 
REMARK    3  A    between atoms: C6_12  and  C7_13 
REMARK    4  A    between atoms: C10_19  and  C11_20 
REMARK    5  A    between atoms: C11_20  and  O7_21 
REMARK    6  A    between atoms: O7_21  and  C12_22 
ROOT
HETATM    1  C3  UNL     1      19.995  45.801  21.003  1.00  0.00     0.095 A 
HETATM    2  S1  UNL     1      18.242  45.642  20.838  1.00  0.00    -0.072 SA
HETATM    3  C4  UNL     1      18.113  45.849  19.176  1.00  0.00     0.023 A 
HETATM    4  C5  UNL     1      19.396  46.041  18.759  1.00  0.00    -0.021 A 
HETATM    5  C6  UNL     1      20.367  46.020  19.721  1.00  0.00     0.082 A 
HETATM    6  C8  UNL     1      19.434  46.224  17.241  1.00  0.00     0.067 C 
HETATM    7  C9  UNL     1      18.652  44.991  16.740  1.00  0.00     0.173 C 
HETATM    8  O6  UNL     1      17.314  45.097  17.044  1.00  0.00    -0.378 OA
HETATM    9  C10 UNL     1      17.036  45.883  18.123  1.00  0.00     0.186 C 
ENDROOT
BRANCH   9  10
HETATM   10  C11 UNL     1      15.702  45.651  18.743  1.00  0.00     0.214 C 
BRANCH  10  11
HETATM   11  O7  UNL     1      15.262  44.350  18.372  1.00  0.00    -0.332 OA
BRANCH  11  12
HETATM   12  C12 UNL     1      14.281  44.161  17.370  1.00  0.00     0.164 A 
HETATM   13  N2  UNL     1      14.668  43.824  16.198  1.00  0.00    -0.259 N 
HETATM   14  S2  UNL     1      13.261  43.672  15.217  1.00  0.00     0.265 S 
ATOM     15  H2  UNL     1      15.633  43.674  15.899  1.00  0.00     0.181 HD
HETATM   16  O8  UNL     1      13.069  42.273  14.721  1.00  0.00    -0.200 OA
HETATM   17  O9  UNL     1      13.248  44.671  14.100  1.00  0.00    -0.200 OA
HETATM   18  C13 UNL     1      12.098  44.084  16.461  1.00  0.00     0.094 A 
HETATM   19  C14 UNL     1      10.742  44.174  16.422  1.00  0.00     0.026 A 
HETATM   20  C18 UNL     1      12.882  44.317  17.567  1.00  0.00     0.039 A 
HETATM   21  C15 UNL     1      10.060  44.521  17.557  1.00  0.00     0.002 A 
HETATM   22  C16 UNL     1      10.797  44.764  18.694  1.00  0.00     0.001 A 
HETATM   23  C17 UNL     1      12.162  44.672  18.723  1.00  0.00     0.017 A 
ENDBRANCH  11  12
ENDBRANCH  10  11
ENDBRANCH   9  10
BRANCH   1  24
HETATM   24  N1  UNL     1      20.629  45.727  22.271  1.00  0.00    -0.311 N 
HETATM   25  C2  UNL     1      21.244  46.700  23.042  1.00  0.00     0.323 C 
HETATM   26  O3  UNL     1      21.366  47.871  22.655  1.00  0.00    -0.260 OA
ATOM     27  H1  UNL     1      20.633  44.796  22.687  1.00  0.00     0.170 HD
BRANCH  25  28
HETATM   28  C1  UNL     1      21.801  46.424  24.384  1.00  0.00     0.270 C 
HETATM   29  O1  UNL     1      22.645  45.502  24.488  1.00  0.00    -0.640 OA
HETATM   30  O2  UNL     1      21.427  47.132  25.491  1.00  0.00    -0.640 OA
ENDBRANCH  25  28
ENDBRANCH   1  24
BRANCH   5  31
HETATM   31  C7  UNL     1      21.747  46.494  19.364  1.00  0.00     0.212 C 
HETATM   32  O4  UNL     1      22.718  45.746  19.188  1.00  0.00    -0.644 OA
HETATM   33  O5  UNL     1      22.038  47.851  19.200  1.00  0.00    -0.644 OA
ENDBRANCH   5  31
TORSDOF 6
ENDMDL
