MODEL 5
REMARK VINA RESULT: -4.983867282      1.698      2.019
REMARK  6 active torsions:
REMARK  status: ('A' for Active; 'I' for Inactive)
REMARK    1  A    between atoms: N1_1  and  C1_5 
REMARK    2  A    between atoms: C1_5  and  C2_6 
REMARK    3  A    between atoms: C2_6  and  C3_7 
REMARK    4  A    between atoms: C3_7  and  C4_8 
REMARK    5  A    between atoms: C4_8  and  N2_9 
REMARK    6  A    between atoms: C4_8  and  C5_13 
ROOT
HETATM    1  C4  UNL     1      31.868  28.949  67.723  1.00  0.00     0.283 C 
ENDROOT
BRANCH   1   2
HETATM    2  C3  UNL     1      33.368  28.812  67.624  1.00  0.00     0.045 C 
BRANCH   2   3
HETATM    3  C2  UNL     1      33.828  27.397  67.882  1.00  0.00     0.030 C 
BRANCH   3   4
HETATM    4  C1  UNL     1      34.844  27.020  66.833  1.00  0.00     0.230 C 
BRANCH   4   5
HETATM    5  N1  UNL     1      34.327  27.082  65.501  1.00  0.00    -0.079 N 
ATOM      6  H13 UNL     1      35.052  26.857  64.819  1.00  0.00     0.274 HD
ATOM      7  H12 UNL     1      33.685  26.310  65.325  1.00  0.00     0.274 HD
ATOM      8  H11 UNL     1      33.888  27.977  65.281  1.00  0.00     0.274 HD
ENDBRANCH   4   5
ENDBRANCH   3   4
ENDBRANCH   2   3
ENDBRANCH   1   2
BRANCH   1   9
HETATM    9  N2  UNL     1      31.428  30.301  67.805  1.00  0.00    -0.065 N 
ATOM     10  H23 UNL     1      31.695  30.820  66.968  1.00  0.00     0.275 HD
ATOM     11  H22 UNL     1      30.413  30.357  67.721  1.00  0.00     0.275 HD
ATOM     12  H21 UNL     1      31.748  30.781  68.646  1.00  0.00     0.275 HD
ENDBRANCH   1   9
BRANCH   1  13
HETATM   13  C5  UNL     1      31.279  28.144  68.790  1.00  0.00     0.204 C 
HETATM   14  O1  UNL     1      31.341  28.439  70.013  1.00  0.00    -0.646 OA
HETATM   15  O2  UNL     1      30.609  26.978  68.453  1.00  0.00    -0.646 OA
ENDBRANCH   1  13
TORSDOF 6
ENDMDL
