MODEL 17
REMARK VINA RESULT: -3.426602254      8.072      8.754
REMARK  6 active torsions:
REMARK  status: ('A' for Active; 'I' for Inactive)
REMARK    1  A    between atoms: N1_1  and  C1_5 
REMARK    2  A    between atoms: C1_5  and  C2_6 
REMARK    3  A    between atoms: C2_6  and  C3_7 
REMARK    4  A    between atoms: C3_7  and  C4_8 
REMARK    5  A    between atoms: C4_8  and  N2_9 
REMARK    6  A    between atoms: C4_8  and  C5_13 
ROOT
HETATM    1  C4  UNL     1      28.776  21.748  72.337  1.00  0.00     0.283 C 
ENDROOT
BRANCH   1   2
HETATM    2  C3  UNL     1      29.805  20.644  72.350  1.00  0.00     0.045 C 
BRANCH   2   3
HETATM    3  C2  UNL     1      30.874  20.874  73.391  1.00  0.00     0.030 C 
BRANCH   3   4
HETATM    4  C1  UNL     1      31.724  22.043  72.961  1.00  0.00     0.230 C 
BRANCH   4   5
HETATM    5  N1  UNL     1      32.894  22.215  73.767  1.00  0.00    -0.079 N 
ATOM      6  H13 UNL     1      32.747  21.841  74.705  1.00  0.00     0.274 HD
ATOM      7  H12 UNL     1      33.643  21.598  73.455  1.00  0.00     0.274 HD
ATOM      8  H11 UNL     1      33.214  23.183  73.809  1.00  0.00     0.274 HD
ENDBRANCH   4   5
ENDBRANCH   3   4
ENDBRANCH   2   3
ENDBRANCH   1   2
BRANCH   1   9
HETATM    9  N2  UNL     1      27.910  21.727  73.467  1.00  0.00    -0.065 N 
ATOM     10  H23 UNL     1      28.284  22.304  74.221  1.00  0.00     0.275 HD
ATOM     11  H22 UNL     1      27.050  22.240  73.274  1.00  0.00     0.275 HD
ATOM     12  H21 UNL     1      27.702  20.785  73.800  1.00  0.00     0.275 HD
ENDBRANCH   1   9
BRANCH   1  13
HETATM   13  C5  UNL     1      28.011  21.815  71.095  1.00  0.00     0.204 C 
HETATM   14  O1  UNL     1      27.542  22.880  70.611  1.00  0.00    -0.646 OA
HETATM   15  O2  UNL     1      27.777  20.644  70.392  1.00  0.00    -0.646 OA
ENDBRANCH   1  13
TORSDOF 6
ENDMDL
