MODEL 3
REMARK VINA RESULT: -5.783907206      1.377      1.451
REMARK  6 active torsions:
REMARK  status: ('A' for Active; 'I' for Inactive)
REMARK    1  A    between atoms: N1_1  and  C1_5 
REMARK    2  A    between atoms: C1_5  and  C2_6 
REMARK    3  A    between atoms: C2_6  and  C3_7 
REMARK    4  A    between atoms: C3_7  and  C4_8 
REMARK    5  A    between atoms: C4_8  and  N2_9 
REMARK    6  A    between atoms: C4_8  and  C5_13 
ROOT
HETATM    1  C4  UNL     1      32.681  27.960  67.495  1.00  0.00     0.283 C 
ENDROOT
BRANCH   1   2
HETATM    2  C3  UNL     1      33.582  28.038  68.704  1.00  0.00     0.045 C 
BRANCH   2   3
HETATM    3  C2  UNL     1      34.797  28.899  68.454  1.00  0.00     0.030 C 
BRANCH   3   4
HETATM    4  C1  UNL     1      36.034  28.063  68.669  1.00  0.00     0.230 C 
BRANCH   4   5
HETATM    5  N1  UNL     1      36.973  28.666  69.564  1.00  0.00    -0.079 N 
ATOM      6  H13 UNL     1      37.706  28.004  69.821  1.00  0.00     0.274 HD
ATOM      7  H12 UNL     1      37.537  29.364  69.081  1.00  0.00     0.274 HD
ATOM      8  H11 UNL     1      36.536  29.064  70.396  1.00  0.00     0.274 HD
ENDBRANCH   4   5
ENDBRANCH   3   4
ENDBRANCH   2   3
ENDBRANCH   1   2
BRANCH   1   9
HETATM    9  N2  UNL     1      33.064  28.847  66.447  1.00  0.00    -0.065 N 
ATOM     10  H23 UNL     1      32.589  29.745  66.542  1.00  0.00     0.275 HD
ATOM     11  H22 UNL     1      34.029  29.154  66.567  1.00  0.00     0.275 HD
ATOM     12  H21 UNL     1      32.921  28.458  65.515  1.00  0.00     0.275 HD
ENDBRANCH   1   9
BRANCH   1  13
HETATM   13  C5  UNL     1      31.265  28.111  67.814  1.00  0.00     0.204 C 
HETATM   14  O1  UNL     1      30.622  27.326  68.560  1.00  0.00    -0.646 OA
HETATM   15  O2  UNL     1      30.569  29.179  67.269  1.00  0.00    -0.646 OA
ENDBRANCH   1  13
TORSDOF 6
ENDMDL
