MODEL 15
REMARK VINA RESULT: -3.640546246      8.300      8.554
REMARK  6 active torsions:
REMARK  status: ('A' for Active; 'I' for Inactive)
REMARK    1  A    between atoms: N1_1  and  C1_5 
REMARK    2  A    between atoms: C1_5  and  C2_6 
REMARK    3  A    between atoms: C2_6  and  C3_7 
REMARK    4  A    between atoms: C3_7  and  C4_8 
REMARK    5  A    between atoms: C4_8  and  N2_9 
REMARK    6  A    between atoms: C4_8  and  C5_13 
ROOT
HETATM    1  C4  UNL     1      26.868  22.500  69.975  1.00  0.00     0.283 C 
ENDROOT
BRANCH   1   2
HETATM    2  C3  UNL     1      27.114  22.271  71.446  1.00  0.00     0.045 C 
BRANCH   2   3
HETATM    3  C2  UNL     1      28.210  21.261  71.690  1.00  0.00     0.030 C 
BRANCH   3   4
HETATM    4  C1  UNL     1      29.101  21.772  72.794  1.00  0.00     0.230 C 
BRANCH   4   5
HETATM    5  N1  UNL     1      30.444  22.020  72.364  1.00  0.00    -0.079 N 
ATOM      6  H13 UNL     1      30.911  22.674  72.992  1.00  0.00     0.274 HD
ATOM      7  H12 UNL     1      31.029  21.198  72.512  1.00  0.00     0.274 HD
ATOM      8  H11 UNL     1      30.504  22.340  71.397  1.00  0.00     0.274 HD
ENDBRANCH   4   5
ENDBRANCH   3   4
ENDBRANCH   2   3
ENDBRANCH   1   2
BRANCH   1   9
HETATM    9  N2  UNL     1      28.059  22.478  69.192  1.00  0.00    -0.065 N 
ATOM     10  H23 UNL     1      28.862  22.773  69.748  1.00  0.00     0.275 HD
ATOM     11  H22 UNL     1      28.339  21.519  68.988  1.00  0.00     0.275 HD
ATOM     12  H21 UNL     1      27.990  23.026  68.335  1.00  0.00     0.275 HD
ENDBRANCH   1   9
BRANCH   1  13
HETATM   13  C5  UNL     1      26.084  23.700  69.696  1.00  0.00     0.204 C 
HETATM   14  O1  UNL     1      25.822  24.587  70.551  1.00  0.00    -0.646 OA
HETATM   15  O2  UNL     1      25.588  23.889  68.416  1.00  0.00    -0.646 OA
ENDBRANCH   1  13
TORSDOF 6
ENDMDL
