MODEL 1
REMARK VINA RESULT: -6.090553165      0.000      0.000
REMARK  6 active torsions:
REMARK  status: ('A' for Active; 'I' for Inactive)
REMARK    1  A    between atoms: N1_1  and  C1_5 
REMARK    2  A    between atoms: C1_5  and  C2_6 
REMARK    3  A    between atoms: C2_6  and  C3_7 
REMARK    4  A    between atoms: C3_7  and  C4_8 
REMARK    5  A    between atoms: C4_8  and  N2_9 
REMARK    6  A    between atoms: C4_8  and  C5_13 
ROOT
HETATM    1  C4  UNL     1      31.900  28.697  67.633  1.00  0.00     0.283 C 
ENDROOT
BRANCH   1   2
HETATM    2  C3  UNL     1      33.330  28.316  67.337  1.00  0.00     0.045 C 
BRANCH   2   3
HETATM    3  C2  UNL     1      34.270  28.726  68.446  1.00  0.00     0.030 C 
BRANCH   3   4
HETATM    4  C1  UNL     1      35.512  27.875  68.365  1.00  0.00     0.230 C 
BRANCH   4   5
HETATM    5  N1  UNL     1      36.587  28.370  69.170  1.00  0.00    -0.079 N 
ATOM      6  H13 UNL     1      36.768  29.354  68.970  1.00  0.00     0.274 HD
ATOM      7  H12 UNL     1      36.302  28.447  70.147  1.00  0.00     0.274 HD
ATOM      8  H11 UNL     1      37.441  27.819  69.083  1.00  0.00     0.274 HD
ENDBRANCH   4   5
ENDBRANCH   3   4
ENDBRANCH   2   3
ENDBRANCH   1   2
BRANCH   1   9
HETATM    9  N2  UNL     1      31.722  30.093  67.858  1.00  0.00    -0.065 N 
ATOM     10  H23 UNL     1      31.455  30.272  68.826  1.00  0.00     0.275 HD
ATOM     11  H22 UNL     1      32.618  30.580  67.837  1.00  0.00     0.275 HD
ATOM     12  H21 UNL     1      31.060  30.525  67.213  1.00  0.00     0.275 HD
ENDBRANCH   1   9
BRANCH   1  13
HETATM   13  C5  UNL     1      31.301  27.916  68.711  1.00  0.00     0.204 C 
HETATM   14  O1  UNL     1      30.895  26.730  68.582  1.00  0.00    -0.646 OA
HETATM   15  O2  UNL     1      31.163  28.500  69.961  1.00  0.00    -0.646 OA
ENDBRANCH   1  13
TORSDOF 6
ENDMDL
