MODEL 4
REMARK VINA RESULT: -5.136799143      1.529      1.529
REMARK  6 active torsions:
REMARK  status: ('A' for Active; 'I' for Inactive)
REMARK    1  A    between atoms: N1_1  and  C1_5 
REMARK    2  A    between atoms: C1_5  and  C2_6 
REMARK    3  A    between atoms: C2_6  and  C3_7 
REMARK    4  A    between atoms: C3_7  and  C4_8 
REMARK    5  A    between atoms: C4_8  and  N2_9 
REMARK    6  A    between atoms: C4_8  and  C5_13 
ROOT
HETATM    1  C4  UNL     1      31.545  29.037  67.593  1.00  0.00     0.283 C 
ENDROOT
BRANCH   1   2
HETATM    2  C3  UNL     1      32.866  28.688  66.952  1.00  0.00     0.045 C 
BRANCH   2   3
HETATM    3  C2  UNL     1      33.876  28.198  67.963  1.00  0.00     0.030 C 
BRANCH   3   4
HETATM    4  C1  UNL     1      34.725  27.130  67.319  1.00  0.00     0.230 C 
BRANCH   4   5
HETATM    5  N1  UNL     1      34.467  26.974  65.920  1.00  0.00    -0.079 N 
ATOM      6  H13 UNL     1      35.051  26.238  65.524  1.00  0.00     0.274 HD
ATOM      7  H12 UNL     1      33.547  26.560  65.765  1.00  0.00     0.274 HD
ATOM      8  H11 UNL     1      34.569  27.841  65.393  1.00  0.00     0.274 HD
ENDBRANCH   4   5
ENDBRANCH   3   4
ENDBRANCH   2   3
ENDBRANCH   1   2
BRANCH   1   9
HETATM    9  N2  UNL     1      31.478  30.384  68.053  1.00  0.00    -0.065 N 
ATOM     10  H23 UNL     1      32.014  30.499  68.913  1.00  0.00     0.275 HD
ATOM     11  H22 UNL     1      32.008  31.003  67.440  1.00  0.00     0.275 HD
ATOM     12  H21 UNL     1      30.523  30.723  68.173  1.00  0.00     0.275 HD
ENDBRANCH   1   9
BRANCH   1  13
HETATM   13  C5  UNL     1      31.144  28.106  68.644  1.00  0.00     0.204 C 
HETATM   14  O1  UNL     1      30.715  26.942  68.429  1.00  0.00    -0.646 OA
HETATM   15  O2  UNL     1      31.235  28.514  69.965  1.00  0.00    -0.646 OA
ENDBRANCH   1  13
TORSDOF 6
ENDMDL
