MODEL 2
REMARK VINA RESULT: -8.744928284      0.857      1.115
REMARK  12 active torsions:
REMARK  status: ('A' for Active; 'I' for Inactive)
REMARK    1  A    between atoms: C1_2  and  C2_4 
REMARK    2  A    between atoms: C7_9  and  N1_10 
REMARK    3  A    between atoms: N1_10  and  C8_12 
REMARK    4  A    between atoms: C8_12  and  C9_13 
REMARK    5  A    between atoms: C9_13  and  O3_14 
REMARK    6  A    between atoms: C9_13  and  C10_16 
REMARK    7  A    between atoms: C10_16  and  O4_17 
REMARK    8  A    between atoms: C10_16  and  C11_19 
REMARK    9  A    between atoms: C11_19  and  O5_20 
REMARK   10  A    between atoms: C11_19  and  C12_22 
REMARK   11  A    between atoms: C12_22  and  O6_23 
REMARK   12  A    between atoms: O6_23  and  P1_24 
ROOT
HETATM    1  C9  UNL     1      -7.285 -20.529  32.821  1.00  0.00     0.167 C 
ENDROOT
BRANCH   1   2
HETATM    2  C8  UNL     1      -8.779 -20.586  32.873  1.00  0.00     0.154 C 
BRANCH   2   3
HETATM    3  N1  UNL     1      -9.175 -21.988  33.011  1.00  0.00    -0.387 N 
ATOM      4  H1  UNL     1      -8.442 -22.695  33.059  1.00  0.00     0.159 HD
BRANCH   3   5
HETATM    5  C7  UNL     1     -10.506 -22.403  33.079  1.00  0.00     0.045 A 
HETATM    6  C2  UNL     1     -11.125 -23.180  32.135  1.00  0.00     0.067 A 
HETATM    7  C3  UNL     1     -12.490 -23.512  32.261  1.00  0.00     0.021 A 
HETATM    8  C4  UNL     1     -13.224 -23.067  33.326  1.00  0.00     0.001 A 
HETATM    9  C5  UNL     1     -12.626 -22.283  34.289  1.00  0.00     0.002 A 
HETATM   10  C6  UNL     1     -11.296 -21.969  34.152  1.00  0.00     0.030 A 
BRANCH   6  11
HETATM   11  C1  UNL     1     -10.419 -23.709  30.994  1.00  0.00     0.211 C 
HETATM   12  O1  UNL     1     -10.432 -24.887  30.644  1.00  0.00    -0.644 OA
HETATM   13  O2  UNL     1      -9.643 -22.846  30.196  1.00  0.00    -0.644 OA
ENDBRANCH   6  11
ENDBRANCH   3   5
ENDBRANCH   2   3
ENDBRANCH   1   2
BRANCH   1  14
HETATM   14  O3  UNL     1      -6.783 -20.534  34.135  1.00  0.00    -0.391 OA
ATOM     15  H3  UNL     1      -6.026 -21.106  34.172  1.00  0.00     0.210 HD
ENDBRANCH   1  14
BRANCH   1  16
HETATM   16  C10 UNL     1      -6.674 -21.604  31.984  1.00  0.00     0.179 C 
BRANCH  16  17
HETATM   17  O4  UNL     1      -6.471 -22.719  32.778  1.00  0.00    -0.390 OA
ATOM     18  H4  UNL     1      -6.143 -23.424  32.232  1.00  0.00     0.210 HD
ENDBRANCH  16  17
BRANCH  16  19
HETATM   19  C11 UNL     1      -5.390 -21.152  31.311  1.00  0.00     0.173 C 
BRANCH  19  20
HETATM   20  O5  UNL     1      -5.403 -19.767  31.162  1.00  0.00    -0.391 OA
ATOM     21  H5  UNL     1      -5.337 -19.545  30.241  1.00  0.00     0.210 HD
ENDBRANCH  19  20
BRANCH  19  22
HETATM   22  C12 UNL     1      -5.245 -21.847  29.952  1.00  0.00     0.217 C 
BRANCH  22  23
HETATM   23  O6  UNL     1      -6.454 -22.412  29.677  1.00  0.00    -0.280 OA
BRANCH  23  24
HETATM   24  P1  UNL     1      -6.503 -22.889  28.099  1.00  0.00     0.422 P 
HETATM   25  O7  UNL     1      -7.911 -22.788  27.259  1.00  0.00    -0.617 OA
HETATM   26  O8  UNL     1      -6.701 -24.346  28.496  1.00  0.00    -0.617 OA
HETATM   27  O9  UNL     1      -5.111 -23.263  27.273  1.00  0.00    -0.617 OA
ENDBRANCH  23  24
ENDBRANCH  22  23
ENDBRANCH  19  22
ENDBRANCH  16  19
ENDBRANCH   1  16
TORSDOF 12
ENDMDL
