MODEL 1
REMARK VINA RESULT: -8.773829380      0.000      0.000
REMARK  12 active torsions:
REMARK  status: ('A' for Active; 'I' for Inactive)
REMARK    1  A    between atoms: C1_2  and  C2_4 
REMARK    2  A    between atoms: C7_9  and  N1_10 
REMARK    3  A    between atoms: N1_10  and  C8_12 
REMARK    4  A    between atoms: C8_12  and  C9_13 
REMARK    5  A    between atoms: C9_13  and  O3_14 
REMARK    6  A    between atoms: C9_13  and  C10_16 
REMARK    7  A    between atoms: C10_16  and  O4_17 
REMARK    8  A    between atoms: C10_16  and  C11_19 
REMARK    9  A    between atoms: C11_19  and  O5_20 
REMARK   10  A    between atoms: C11_19  and  C12_22 
REMARK   11  A    between atoms: C12_22  and  O6_23 
REMARK   12  A    between atoms: O6_23  and  P1_24 
ROOT
HETATM    1  C9  UNL     1      -7.004 -20.122  32.856  1.00  0.00     0.167 C 
ENDROOT
BRANCH   1   2
HETATM    2  C8  UNL     1      -8.200 -20.366  33.722  1.00  0.00     0.154 C 
BRANCH   2   3
HETATM    3  N1  UNL     1      -8.866 -21.577  33.242  1.00  0.00    -0.387 N 
ATOM      4  H1  UNL     1      -8.340 -22.216  32.647  1.00  0.00     0.159 HD
BRANCH   3   5
HETATM    5  C7  UNL     1     -10.187 -21.900  33.559  1.00  0.00     0.045 A 
HETATM    6  C2  UNL     1     -10.999 -22.688  32.787  1.00  0.00     0.067 A 
HETATM    7  C3  UNL     1     -12.339 -22.923  33.161  1.00  0.00     0.021 A 
HETATM    8  C4  UNL     1     -12.855 -22.370  34.300  1.00  0.00     0.001 A 
HETATM    9  C5  UNL     1     -12.059 -21.573  35.095  1.00  0.00     0.002 A 
HETATM   10  C6  UNL     1     -10.757 -21.354  34.717  1.00  0.00     0.030 A 
BRANCH   6  11
HETATM   11  C1  UNL     1     -10.528 -23.328  31.583  1.00  0.00     0.211 C 
HETATM   12  O1  UNL     1      -9.635 -22.893  30.859  1.00  0.00    -0.644 OA
HETATM   13  O2  UNL     1     -11.107 -24.544  31.171  1.00  0.00    -0.644 OA
ENDBRANCH   6  11
ENDBRANCH   3   5
ENDBRANCH   2   3
ENDBRANCH   1   2
BRANCH   1  14
HETATM   14  O3  UNL     1      -6.098 -19.301  33.553  1.00  0.00    -0.391 OA
ATOM     15  H3  UNL     1      -5.277 -19.767  33.653  1.00  0.00     0.210 HD
ENDBRANCH   1  14
BRANCH   1  16
HETATM   16  C10 UNL     1      -6.359 -21.372  32.358  1.00  0.00     0.179 C 
BRANCH  16  17
HETATM   17  O4  UNL     1      -5.886 -22.086  33.445  1.00  0.00    -0.390 OA
ATOM     18  H4  UNL     1      -6.249 -22.964  33.411  1.00  0.00     0.210 HD
ENDBRANCH  16  17
BRANCH  16  19
HETATM   19  C11 UNL     1      -5.260 -21.092  31.349  1.00  0.00     0.173 C 
BRANCH  19  20
HETATM   20  O5  UNL     1      -5.357 -19.775  30.905  1.00  0.00    -0.391 OA
ATOM     21  H5  UNL     1      -4.490 -19.438  30.716  1.00  0.00     0.210 HD
ENDBRANCH  19  20
BRANCH  19  22
HETATM   22  C12 UNL     1      -5.370 -22.075  30.177  1.00  0.00     0.217 C 
BRANCH  22  23
HETATM   23  O6  UNL     1      -6.616 -21.909  29.652  1.00  0.00    -0.280 OA
BRANCH  23  24
HETATM   24  P1  UNL     1      -6.799 -22.875  28.328  1.00  0.00     0.422 P 
HETATM   25  O7  UNL     1      -8.020 -23.973  28.280  1.00  0.00    -0.617 OA
HETATM   26  O8  UNL     1      -5.765 -23.865  28.849  1.00  0.00    -0.617 OA
HETATM   27  O9  UNL     1      -5.911 -22.615  26.948  1.00  0.00    -0.617 OA
ENDBRANCH  23  24
ENDBRANCH  22  23
ENDBRANCH  19  22
ENDBRANCH  16  19
ENDBRANCH   1  16
TORSDOF 12
ENDMDL
