MODEL 7
REMARK VINA RESULT: -8.082974705      1.458      2.038
REMARK  12 active torsions:
REMARK  status: ('A' for Active; 'I' for Inactive)
REMARK    1  A    between atoms: C1_2  and  C2_4 
REMARK    2  A    between atoms: C7_9  and  N1_10 
REMARK    3  A    between atoms: N1_10  and  C8_12 
REMARK    4  A    between atoms: C8_12  and  C9_13 
REMARK    5  A    between atoms: C9_13  and  O3_14 
REMARK    6  A    between atoms: C9_13  and  C10_16 
REMARK    7  A    between atoms: C10_16  and  O4_17 
REMARK    8  A    between atoms: C10_16  and  C11_19 
REMARK    9  A    between atoms: C11_19  and  O5_20 
REMARK   10  A    between atoms: C11_19  and  C12_22 
REMARK   11  A    between atoms: C12_22  and  O6_23 
REMARK   12  A    between atoms: O6_23  and  P1_24 
ROOT
HETATM    1  C9  UNL     1      -6.702 -21.574  32.031  1.00  0.00     0.167 C 
ENDROOT
BRANCH   1   2
HETATM    2  C8  UNL     1      -7.965 -21.106  32.684  1.00  0.00     0.154 C 
BRANCH   2   3
HETATM    3  N1  UNL     1      -8.752 -22.285  33.043  1.00  0.00    -0.387 N 
ATOM      4  H1  UNL     1      -8.323 -23.204  32.943  1.00  0.00     0.159 HD
BRANCH   3   5
HETATM    5  C7  UNL     1     -10.064 -22.213  33.517  1.00  0.00     0.045 A 
HETATM    6  C2  UNL     1     -11.139 -22.816  32.918  1.00  0.00     0.067 A 
HETATM    7  C3  UNL     1     -12.438 -22.649  33.440  1.00  0.00     0.021 A 
HETATM    8  C4  UNL     1     -12.654 -21.884  34.553  1.00  0.00     0.001 A 
HETATM    9  C5  UNL     1     -11.590 -21.265  35.174  1.00  0.00     0.002 A 
HETATM   10  C6  UNL     1     -10.331 -21.438  34.654  1.00  0.00     0.030 A 
BRANCH   6  11
HETATM   11  C1  UNL     1     -10.996 -23.659  31.757  1.00  0.00     0.211 C 
HETATM   12  O1  UNL     1     -10.191 -23.473  30.848  1.00  0.00    -0.644 OA
HETATM   13  O2  UNL     1     -11.823 -24.791  31.615  1.00  0.00    -0.644 OA
ENDBRANCH   6  11
ENDBRANCH   3   5
ENDBRANCH   2   3
ENDBRANCH   1   2
BRANCH   1  14
HETATM   14  O3  UNL     1      -6.350 -22.826  32.568  1.00  0.00    -0.391 OA
ATOM     15  H3  UNL     1      -5.630 -22.708  33.176  1.00  0.00     0.210 HD
ENDBRANCH   1  14
BRANCH   1  16
HETATM   16  C10 UNL     1      -6.774 -21.604  30.540  1.00  0.00     0.179 C 
BRANCH  16  17
HETATM   17  O4  UNL     1      -8.105 -21.638  30.164  1.00  0.00    -0.390 OA
ATOM     18  H4  UNL     1      -8.627 -21.262  30.864  1.00  0.00     0.210 HD
ENDBRANCH  16  17
BRANCH  16  19
HETATM   19  C11 UNL     1      -5.993 -22.763  29.948  1.00  0.00     0.173 C 
BRANCH  19  20
HETATM   20  O5  UNL     1      -4.630 -22.566  30.160  1.00  0.00    -0.391 OA
ATOM     21  H5  UNL     1      -4.136 -23.234  29.701  1.00  0.00     0.210 HD
ENDBRANCH  19  20
BRANCH  19  22
HETATM   22  C12 UNL     1      -6.301 -22.884  28.450  1.00  0.00     0.217 C 
BRANCH  22  23
HETATM   23  O6  UNL     1      -7.164 -23.931  28.319  1.00  0.00    -0.280 OA
BRANCH  23  24
HETATM   24  P1  UNL     1      -8.517 -23.442  27.513  1.00  0.00     0.422 P 
HETATM   25  O7  UNL     1      -9.590 -24.559  26.965  1.00  0.00    -0.617 OA
HETATM   26  O8  UNL     1      -7.757 -23.346  26.196  1.00  0.00    -0.617 OA
HETATM   27  O9  UNL     1      -8.935 -21.836  27.434  1.00  0.00    -0.617 OA
ENDBRANCH  23  24
ENDBRANCH  22  23
ENDBRANCH  19  22
ENDBRANCH  16  19
ENDBRANCH   1  16
TORSDOF 12
ENDMDL
