MODEL 9
REMARK VINA RESULT: -8.006666901      1.426      2.392
REMARK  12 active torsions:
REMARK  status: ('A' for Active; 'I' for Inactive)
REMARK    1  A    between atoms: C1_2  and  C2_4 
REMARK    2  A    between atoms: C7_9  and  N1_10 
REMARK    3  A    between atoms: N1_10  and  C8_12 
REMARK    4  A    between atoms: C8_12  and  C9_13 
REMARK    5  A    between atoms: C9_13  and  O3_14 
REMARK    6  A    between atoms: C9_13  and  C10_16 
REMARK    7  A    between atoms: C10_16  and  O4_17 
REMARK    8  A    between atoms: C10_16  and  C11_19 
REMARK    9  A    between atoms: C11_19  and  O5_20 
REMARK   10  A    between atoms: C11_19  and  C12_22 
REMARK   11  A    between atoms: C12_22  and  O6_23 
REMARK   12  A    between atoms: O6_23  and  P1_24 
ROOT
HETATM    1  C9  UNL     1      -6.535 -21.578  32.230  1.00  0.00     0.167 C 
ENDROOT
BRANCH   1   2
HETATM    2  C8  UNL     1      -7.942 -21.335  31.783  1.00  0.00     0.154 C 
BRANCH   2   3
HETATM    3  N1  UNL     1      -8.764 -22.451  32.251  1.00  0.00    -0.387 N 
ATOM      4  H1  UNL     1      -8.507 -23.396  31.966  1.00  0.00     0.159 HD
BRANCH   3   5
HETATM    5  C7  UNL     1      -9.884 -22.285  33.068  1.00  0.00     0.045 A 
HETATM    6  C2  UNL     1     -11.099 -22.880  32.848  1.00  0.00     0.067 A 
HETATM    7  C3  UNL     1     -12.192 -22.617  33.700  1.00  0.00     0.021 A 
HETATM    8  C4  UNL     1     -12.063 -21.765  34.762  1.00  0.00     0.001 A 
HETATM    9  C5  UNL     1     -10.852 -21.154  35.006  1.00  0.00     0.002 A 
HETATM   10  C6  UNL     1      -9.797 -21.421  34.167  1.00  0.00     0.030 A 
BRANCH   6  11
HETATM   11  C1  UNL     1     -11.314 -23.808  31.765  1.00  0.00     0.211 C 
HETATM   12  O1  UNL     1     -12.043 -24.795  31.820  1.00  0.00    -0.644 OA
HETATM   13  O2  UNL     1     -10.658 -23.604  30.536  1.00  0.00    -0.644 OA
ENDBRANCH   6  11
ENDBRANCH   3   5
ENDBRANCH   2   3
ENDBRANCH   1   2
BRANCH   1  14
HETATM   14  O3  UNL     1      -6.483 -22.799  32.927  1.00  0.00    -0.391 OA
ATOM     15  H3  UNL     1      -6.025 -23.437  32.394  1.00  0.00     0.210 HD
ENDBRANCH   1  14
BRANCH   1  16
HETATM   16  C10 UNL     1      -5.536 -21.522  31.122  1.00  0.00     0.179 C 
BRANCH  16  17
HETATM   17  O4  UNL     1      -5.525 -20.239  30.603  1.00  0.00    -0.390 OA
ATOM     18  H4  UNL     1      -5.593 -20.295  29.657  1.00  0.00     0.210 HD
ENDBRANCH  16  17
BRANCH  16  19
HETATM   19  C11 UNL     1      -5.806 -22.560  30.048  1.00  0.00     0.173 C 
BRANCH  19  20
HETATM   20  O5  UNL     1      -5.007 -23.680  30.269  1.00  0.00    -0.391 OA
ATOM     21  H5  UNL     1      -5.415 -24.445  29.880  1.00  0.00     0.210 HD
ENDBRANCH  19  20
BRANCH  19  22
HETATM   22  C12 UNL     1      -5.534 -21.957  28.665  1.00  0.00     0.217 C 
BRANCH  22  23
HETATM   23  O6  UNL     1      -5.998 -22.859  27.754  1.00  0.00    -0.280 OA
BRANCH  23  24
HETATM   24  P1  UNL     1      -5.025 -22.860  26.423  1.00  0.00     0.422 P 
HETATM   25  O7  UNL     1      -4.408 -21.445  25.861  1.00  0.00    -0.617 OA
HETATM   26  O8  UNL     1      -6.226 -22.850  25.486  1.00  0.00    -0.617 OA
HETATM   27  O9  UNL     1      -4.474 -24.283  25.765  1.00  0.00    -0.617 OA
ENDBRANCH  23  24
ENDBRANCH  22  23
ENDBRANCH  19  22
ENDBRANCH  16  19
ENDBRANCH   1  16
TORSDOF 12
ENDMDL
