MODEL 6
REMARK VINA RESULT: -8.111229341      1.052      1.615
REMARK  12 active torsions:
REMARK  status: ('A' for Active; 'I' for Inactive)
REMARK    1  A    between atoms: C1_2  and  C2_4 
REMARK    2  A    between atoms: C7_9  and  N1_10 
REMARK    3  A    between atoms: N1_10  and  C8_12 
REMARK    4  A    between atoms: C8_12  and  C9_13 
REMARK    5  A    between atoms: C9_13  and  O3_14 
REMARK    6  A    between atoms: C9_13  and  C10_16 
REMARK    7  A    between atoms: C10_16  and  O4_17 
REMARK    8  A    between atoms: C10_16  and  C11_19 
REMARK    9  A    between atoms: C11_19  and  O5_20 
REMARK   10  A    between atoms: C11_19  and  C12_22 
REMARK   11  A    between atoms: C12_22  and  O6_23 
REMARK   12  A    between atoms: O6_23  and  P1_24 
ROOT
HETATM    1  C9  UNL     1      -7.825 -20.220  34.045  1.00  0.00     0.167 C 
ENDROOT
BRANCH   1   2
HETATM    2  C8  UNL     1      -9.171 -20.353  33.406  1.00  0.00     0.154 C 
BRANCH   2   3
HETATM    3  N1  UNL     1      -9.459 -21.780  33.251  1.00  0.00    -0.387 N 
ATOM      4  H1  UNL     1      -8.675 -22.427  33.174  1.00  0.00     0.159 HD
BRANCH   3   5
HETATM    5  C7  UNL     1     -10.755 -22.297  33.205  1.00  0.00     0.045 A 
HETATM    6  C2  UNL     1     -11.229 -23.113  32.211  1.00  0.00     0.067 A 
HETATM    7  C3  UNL     1     -12.569 -23.550  32.219  1.00  0.00     0.021 A 
HETATM    8  C4  UNL     1     -13.424 -23.171  33.217  1.00  0.00     0.001 A 
HETATM    9  C5  UNL     1     -12.973 -22.350  34.229  1.00  0.00     0.002 A 
HETATM   10  C6  UNL     1     -11.665 -21.933  34.206  1.00  0.00     0.030 A 
BRANCH   6  11
HETATM   11  C1  UNL     1     -10.388 -23.578  31.135  1.00  0.00     0.211 C 
HETATM   12  O1  UNL     1      -9.550 -22.895  30.552  1.00  0.00    -0.644 OA
HETATM   13  O2  UNL     1     -10.506 -24.909  30.689  1.00  0.00    -0.644 OA
ENDBRANCH   6  11
ENDBRANCH   3   5
ENDBRANCH   2   3
ENDBRANCH   1   2
BRANCH   1  14
HETATM   14  O3  UNL     1      -7.735 -21.132  35.113  1.00  0.00    -0.391 OA
ATOM     15  H3  UNL     1      -6.950 -20.943  35.613  1.00  0.00     0.210 HD
ENDBRANCH   1  14
BRANCH   1  16
HETATM   16  C10 UNL     1      -6.689 -20.367  33.087  1.00  0.00     0.179 C 
BRANCH  16  17
HETATM   17  O4  UNL     1      -6.651 -19.247  32.275  1.00  0.00    -0.390 OA
ATOM     18  H4  UNL     1      -5.775 -19.163  31.916  1.00  0.00     0.210 HD
ENDBRANCH  16  17
BRANCH  16  19
HETATM   19  C11 UNL     1      -6.780 -21.646  32.276  1.00  0.00     0.173 C 
BRANCH  19  20
HETATM   20  O5  UNL     1      -6.474 -22.737  33.087  1.00  0.00    -0.391 OA
ATOM     21  H5  UNL     1      -6.724 -23.541  32.647  1.00  0.00     0.210 HD
ENDBRANCH  19  20
BRANCH  19  22
HETATM   22  C12 UNL     1      -5.825 -21.569  31.078  1.00  0.00     0.217 C 
BRANCH  22  23
HETATM   23  O6  UNL     1      -6.606 -21.565  29.962  1.00  0.00    -0.280 OA
BRANCH  23  24
HETATM   24  P1  UNL     1      -5.975 -22.587  28.833  1.00  0.00     0.422 P 
HETATM   25  O7  UNL     1      -6.764 -23.978  28.457  1.00  0.00    -0.617 OA
HETATM   26  O8  UNL     1      -5.062 -23.240  29.865  1.00  0.00    -0.617 OA
HETATM   27  O9  UNL     1      -4.670 -22.140  27.906  1.00  0.00    -0.617 OA
ENDBRANCH  23  24
ENDBRANCH  22  23
ENDBRANCH  19  22
ENDBRANCH  16  19
ENDBRANCH   1  16
TORSDOF 12
ENDMDL
