MODEL 1
REMARK VINA RESULT: -6.565789428      0.000      0.000
REMARK  10 active torsions:
REMARK  status: ('A' for Active; 'I' for Inactive)
REMARK    1  A    between atoms: N1_1  and  C1_5 
REMARK    2  A    between atoms: C1_5  and  C2_6 
REMARK    3  A    between atoms: C1_5  and  C10_23 
REMARK    4  A    between atoms: C2_6  and  C3_7 
REMARK    5  A    between atoms: C3_7  and  C4_8 
REMARK       I    between atoms: C4_8  and  N2_10 
REMARK    6  A    between atoms: N2_10  and  C5_12 
REMARK    7  A    between atoms: C5_12  and  C6_13 
REMARK    8  A    between atoms: C5_12  and  C7_15 
REMARK       I    between atoms: C7_15  and  N3_17 
REMARK    9  A    between atoms: N3_17  and  C8_19 
REMARK   10  A    between atoms: C8_19  and  C9_20 
ROOT
HETATM    1  C4  UNL     1       8.151  39.225  -3.537  1.00  0.00     0.218 C 
HETATM    2  O1  UNL     1       7.754  39.453  -4.725  1.00  0.00    -0.274 OA
HETATM    3  N2  UNL     1       7.216  38.625  -2.674  1.00  0.00    -0.347 N 
ATOM      4  H2  UNL     1       7.474  38.416  -1.710  1.00  0.00     0.163 HD
ENDROOT
BRANCH   3   5
HETATM    5  C5  UNL     1       5.855  38.296  -3.164  1.00  0.00     0.186 C 
BRANCH   5   6
HETATM    6  C6  UNL     1       5.432  37.047  -2.369  1.00  0.00     0.120 C 
HETATM    7  S1  UNL     1       6.715  35.805  -2.323  1.00  0.00    -0.095 SA
ENDBRANCH   5   6
BRANCH   5   8
HETATM    8  C7  UNL     1       4.978  39.400  -2.732  1.00  0.00     0.241 C 
HETATM    9  O2  UNL     1       4.610  40.251  -3.604  1.00  0.00    -0.271 OA
HETATM   10  N3  UNL     1       4.548  39.520  -1.387  1.00  0.00    -0.349 N 
ATOM     11  H3  UNL     1       4.833  38.840  -0.682  1.00  0.00     0.163 HD
BRANCH  10  12
HETATM   12  C8  UNL     1       3.690  40.636  -1.042  1.00  0.00     0.235 C 
BRANCH  12  13
HETATM   13  C9  UNL     1       2.286  40.173  -1.017  1.00  0.00     0.191 C 
HETATM   14  O3  UNL     1       2.005  39.005  -0.648  1.00  0.00    -0.647 OA
HETATM   15  O4  UNL     1       1.264  41.028  -1.405  1.00  0.00    -0.647 OA
ENDBRANCH  12  13
ENDBRANCH  10  12
ENDBRANCH   5   8
ENDBRANCH   3   5
BRANCH   1  16
HETATM   16  C3  UNL     1       9.536  39.583  -3.114  1.00  0.00     0.105 C 
BRANCH  16  17
HETATM   17  C2  UNL     1      10.224  38.325  -2.702  1.00  0.00     0.053 C 
BRANCH  17  18
HETATM   18  C1  UNL     1      10.921  38.425  -1.373  1.00  0.00     0.283 C 
BRANCH  18  19
HETATM   19  N1  UNL     1      10.119  38.015  -0.269  1.00  0.00    -0.065 N 
ATOM     20  H13 UNL     1       9.904  38.809   0.333  1.00  0.00     0.275 HD
ATOM     21  H12 UNL     1       9.177  37.775  -0.579  1.00  0.00     0.275 HD
ATOM     22  H11 UNL     1      10.524  37.252   0.273  1.00  0.00     0.275 HD
ENDBRANCH  18  19
BRANCH  18  23
HETATM   23  C10 UNL     1      11.395  39.821  -1.195  1.00  0.00     0.204 C 
HETATM   24  O5  UNL     1      11.026  40.526  -0.229  1.00  0.00    -0.646 OA
HETATM   25  O6  UNL     1      12.272  40.332  -2.141  1.00  0.00    -0.646 OA
ENDBRANCH  18  23
ENDBRANCH  17  18
ENDBRANCH  16  17
ENDBRANCH   1  16
TORSDOF 10
ENDMDL
