MODEL 3
REMARK VINA RESULT: -6.318747131      4.433      6.034
REMARK  10 active torsions:
REMARK  status: ('A' for Active; 'I' for Inactive)
REMARK    1  A    between atoms: N1_1  and  C1_5 
REMARK    2  A    between atoms: C1_5  and  C2_6 
REMARK    3  A    between atoms: C1_5  and  C10_23 
REMARK    4  A    between atoms: C2_6  and  C3_7 
REMARK    5  A    between atoms: C3_7  and  C4_8 
REMARK       I    between atoms: C4_8  and  N2_10 
REMARK    6  A    between atoms: N2_10  and  C5_12 
REMARK    7  A    between atoms: C5_12  and  C6_13 
REMARK    8  A    between atoms: C5_12  and  C7_15 
REMARK       I    between atoms: C7_15  and  N3_17 
REMARK    9  A    between atoms: N3_17  and  C8_19 
REMARK   10  A    between atoms: C8_19  and  C9_20 
ROOT
HETATM    1  C4  UNL     1       9.764  35.931  -5.222  1.00  0.00     0.218 C 
HETATM    2  O1  UNL     1      10.006  35.102  -4.286  1.00  0.00    -0.274 OA
HETATM    3  N2  UNL     1       9.214  37.165  -4.831  1.00  0.00    -0.347 N 
ATOM      4  H2  UNL     1       8.998  37.872  -5.534  1.00  0.00     0.163 HD
ENDROOT
BRANCH   3   5
HETATM    5  C5  UNL     1       8.947  37.441  -3.398  1.00  0.00     0.186 C 
BRANCH   5   6
HETATM    6  C6  UNL     1       9.337  38.916  -3.192  1.00  0.00     0.120 C 
HETATM    7  S1  UNL     1      10.478  39.133  -1.836  1.00  0.00    -0.095 SA
ENDBRANCH   5   6
BRANCH   5   8
HETATM    8  C7  UNL     1       7.485  37.353  -3.222  1.00  0.00     0.241 C 
HETATM    9  O2  UNL     1       6.899  36.287  -3.596  1.00  0.00    -0.271 OA
HETATM   10  N3  UNL     1       6.743  38.417  -2.651  1.00  0.00    -0.349 N 
ATOM     11  H3  UNL     1       7.205  39.273  -2.344  1.00  0.00     0.163 HD
BRANCH  10  12
HETATM   12  C8  UNL     1       5.309  38.253  -2.517  1.00  0.00     0.235 C 
BRANCH  12  13
HETATM   13  C9  UNL     1       4.651  39.547  -2.799  1.00  0.00     0.191 C 
HETATM   14  O3  UNL     1       4.914  40.183  -3.849  1.00  0.00    -0.647 OA
HETATM   15  O4  UNL     1       3.732  40.071  -1.899  1.00  0.00    -0.647 OA
ENDBRANCH  12  13
ENDBRANCH  10  12
ENDBRANCH   5   8
ENDBRANCH   3   5
BRANCH   1  16
HETATM   16  C3  UNL     1      10.059  35.585  -6.643  1.00  0.00     0.105 C 
BRANCH  16  17
HETATM   17  C2  UNL     1       9.738  34.141  -6.834  1.00  0.00     0.053 C 
BRANCH  17  18
HETATM   18  C1  UNL     1       8.792  33.878  -7.973  1.00  0.00     0.283 C 
BRANCH  18  19
HETATM   19  N1  UNL     1       8.646  34.979  -8.866  1.00  0.00    -0.065 N 
ATOM     20  H13 UNL     1       8.142  34.695  -9.706  1.00  0.00     0.275 HD
ATOM     21  H12 UNL     1       7.985  35.661  -8.492  1.00  0.00     0.275 HD
ATOM     22  H11 UNL     1       9.526  35.430  -9.111  1.00  0.00     0.275 HD
ENDBRANCH  18  19
BRANCH  18  23
HETATM   23  C10 UNL     1       7.479  33.475  -7.409  1.00  0.00     0.204 C 
HETATM   24  O5  UNL     1       6.983  34.045  -6.411  1.00  0.00    -0.646 OA
HETATM   25  O6  UNL     1       6.803  32.432  -8.028  1.00  0.00    -0.646 OA
ENDBRANCH  18  23
ENDBRANCH  17  18
ENDBRANCH  16  17
ENDBRANCH   1  16
TORSDOF 10
ENDMDL
