MODEL 6
REMARK VINA RESULT: -4.525514371      1.316      2.026
REMARK  4 active torsions:
REMARK  status: ('A' for Active; 'I' for Inactive)
REMARK    1  A    between atoms: C2_2  and  C4_4 
REMARK    2  A    between atoms: C4_4  and  C5_5 
REMARK    3  A    between atoms: C5_5  and  N1_6 
REMARK    4  A    between atoms: C5_5  and  P1_10 
ROOT
HETATM    1  C5  UNL     1      -2.207  58.314  44.168  1.00  0.00     0.312 C 
ENDROOT
BRANCH   1   2
HETATM    2  C4  UNL     1      -3.223  57.563  43.356  1.00  0.00     0.051 C 
BRANCH   2   3
HETATM    3  C2  UNL     1      -4.636  58.113  43.613  1.00  0.00    -0.020 C 
HETATM    4  C1  UNL     1      -5.619  57.028  43.887  1.00  0.00     0.009 C 
HETATM    5  C3  UNL     1      -5.052  58.863  42.368  1.00  0.00     0.009 C 
ENDBRANCH   2   3
ENDBRANCH   1   2
BRANCH   1   6
HETATM    6  N1  UNL     1      -2.871  58.523  45.476  1.00  0.00    -0.062 N 
ATOM      7  H13 UNL     1      -2.295  59.007  46.165  1.00  0.00     0.275 HD
ATOM      8  H12 UNL     1      -3.624  59.210  45.457  1.00  0.00     0.275 HD
ATOM      9  H11 UNL     1      -3.164  57.588  45.759  1.00  0.00     0.275 HD
ENDBRANCH   1   6
BRANCH   1  10
HETATM   10  P1  UNL     1      -1.520  59.786  43.616  1.00  0.00     0.290 P 
HETATM   11  O1  UNL     1      -2.602  60.735  44.192  1.00  0.00    -0.638 OA
HETATM   12  O2  UNL     1      -0.268  59.204  42.958  1.00  0.00    -0.638 OA
HETATM   13  O3  UNL     1      -0.458  60.642  44.639  1.00  0.00    -0.638 OA
ENDBRANCH   1  10
TORSDOF 4
ENDMDL
