MODEL 17
REMARK VINA RESULT: -4.319720823      4.532      5.685
REMARK  4 active torsions:
REMARK  status: ('A' for Active; 'I' for Inactive)
REMARK    1  A    between atoms: C2_2  and  C4_4 
REMARK    2  A    between atoms: C4_4  and  C5_5 
REMARK    3  A    between atoms: C5_5  and  N1_6 
REMARK    4  A    between atoms: C5_5  and  P1_10 
ROOT
HETATM    1  C5  UNL     1       1.598  59.668  44.400  1.00  0.00     0.312 C 
ENDROOT
BRANCH   1   2
HETATM    2  C4  UNL     1       2.533  58.923  43.492  1.00  0.00     0.051 C 
BRANCH   2   3
HETATM    3  C2  UNL     1       3.784  59.767  43.190  1.00  0.00    -0.020 C 
HETATM    4  C1  UNL     1       3.598  61.198  43.558  1.00  0.00     0.009 C 
HETATM    5  C3  UNL     1       4.041  59.660  41.704  1.00  0.00     0.009 C 
ENDBRANCH   2   3
ENDBRANCH   1   2
BRANCH   1   6
HETATM    6  N1  UNL     1       1.606  58.878  45.654  1.00  0.00    -0.062 N 
ATOM      7  H13 UNL     1       1.845  59.418  46.487  1.00  0.00     0.275 HD
ATOM      8  H12 UNL     1       0.681  58.589  45.971  1.00  0.00     0.275 HD
ATOM      9  H11 UNL     1       2.243  58.106  45.459  1.00  0.00     0.275 HD
ENDBRANCH   1   6
BRANCH   1  10
HETATM   10  P1  UNL     1      -0.015  60.024  43.940  1.00  0.00     0.290 P 
HETATM   11  O1  UNL     1      -0.433  60.757  45.240  1.00  0.00    -0.638 OA
HETATM   12  O2  UNL     1       0.027  59.427  42.533  1.00  0.00    -0.638 OA
HETATM   13  O3  UNL     1      -0.355  61.515  43.185  1.00  0.00    -0.638 OA
ENDBRANCH   1  10
TORSDOF 4
ENDMDL
