MODEL 1
REMARK VINA RESULT: -4.773919636      0.000      0.000
REMARK  4 active torsions:
REMARK  status: ('A' for Active; 'I' for Inactive)
REMARK    1  A    between atoms: C2_2  and  C4_4 
REMARK    2  A    between atoms: C4_4  and  C5_5 
REMARK    3  A    between atoms: C5_5  and  N1_6 
REMARK    4  A    between atoms: C5_5  and  P1_10 
ROOT
HETATM    1  C5  UNL     1      -2.276  58.999  45.161  1.00  0.00     0.312 C 
ENDROOT
BRANCH   1   2
HETATM    2  C4  UNL     1      -3.261  59.208  44.047  1.00  0.00     0.051 C 
BRANCH   2   3
HETATM    3  C2  UNL     1      -3.765  57.859  43.507  1.00  0.00    -0.020 C 
HETATM    4  C1  UNL     1      -4.139  57.934  42.068  1.00  0.00     0.009 C 
HETATM    5  C3  UNL     1      -4.981  57.482  44.323  1.00  0.00     0.009 C 
ENDBRANCH   2   3
ENDBRANCH   1   2
BRANCH   1   6
HETATM    6  N1  UNL     1      -2.860  59.736  46.305  1.00  0.00    -0.062 N 
ATOM      7  H13 UNL     1      -2.326  59.657  47.171  1.00  0.00     0.275 HD
ATOM      8  H12 UNL     1      -2.796  60.750  46.226  1.00  0.00     0.275 HD
ATOM      9  H11 UNL     1      -3.814  59.381  46.370  1.00  0.00     0.275 HD
ENDBRANCH   1   6
BRANCH   1  10
HETATM   10  P1  UNL     1      -0.618  59.402  44.987  1.00  0.00     0.290 P 
HETATM   11  O1  UNL     1      -0.621  59.586  43.448  1.00  0.00    -0.638 OA
HETATM   12  O2  UNL     1      -0.232  59.362  46.466  1.00  0.00    -0.638 OA
HETATM   13  O3  UNL     1      -0.153  61.043  45.018  1.00  0.00    -0.638 OA
ENDBRANCH   1  10
TORSDOF 4
ENDMDL
