MODEL 18
REMARK VINA RESULT: -4.296968673      4.191      5.119
REMARK  4 active torsions:
REMARK  status: ('A' for Active; 'I' for Inactive)
REMARK    1  A    between atoms: C2_2  and  C4_4 
REMARK    2  A    between atoms: C4_4  and  C5_5 
REMARK    3  A    between atoms: C5_5  and  N1_6 
REMARK    4  A    between atoms: C5_5  and  P1_10 
ROOT
HETATM    1  C5  UNL     1       0.871  59.709  44.218  1.00  0.00     0.312 C 
ENDROOT
BRANCH   1   2
HETATM    2  C4  UNL     1       1.423  59.254  42.898  1.00  0.00     0.051 C 
BRANCH   2   3
HETATM    3  C2  UNL     1       2.961  59.257  42.923  1.00  0.00    -0.020 C 
HETATM    4  C1  UNL     1       3.521  60.637  42.928  1.00  0.00     0.009 C 
HETATM    5  C3  UNL     1       3.426  58.532  41.679  1.00  0.00     0.009 C 
ENDBRANCH   2   3
ENDBRANCH   1   2
BRANCH   1   6
HETATM    6  N1  UNL     1       1.594  58.886  45.216  1.00  0.00    -0.062 N 
ATOM      7  H13 UNL     1       2.049  58.060  44.826  1.00  0.00     0.275 HD
ATOM      8  H12 UNL     1       2.443  59.319  45.578  1.00  0.00     0.275 HD
ATOM      9  H11 UNL     1       0.892  58.681  45.926  1.00  0.00     0.275 HD
ENDBRANCH   1   6
BRANCH   1  10
HETATM   10  P1  UNL     1      -0.812  59.688  44.548  1.00  0.00     0.290 P 
HETATM   11  O1  UNL     1      -1.191  58.555  43.560  1.00  0.00    -0.638 OA
HETATM   12  O2  UNL     1      -0.831  60.766  45.632  1.00  0.00    -0.638 OA
HETATM   13  O3  UNL     1      -1.412  58.626  45.739  1.00  0.00    -0.638 OA
ENDBRANCH   1  10
TORSDOF 4
ENDMDL
