MODEL 5
REMARK VINA RESULT: -4.626251346      1.636      2.351
REMARK  4 active torsions:
REMARK  status: ('A' for Active; 'I' for Inactive)
REMARK    1  A    between atoms: C2_2  and  C4_4 
REMARK    2  A    between atoms: C4_4  and  C5_5 
REMARK    3  A    between atoms: C5_5  and  N1_6 
REMARK    4  A    between atoms: C5_5  and  P1_10 
ROOT
HETATM    1  C5  UNL     1      -1.522  59.201  43.883  1.00  0.00     0.312 C 
ENDROOT
BRANCH   1   2
HETATM    2  C4  UNL     1      -2.375  57.991  43.631  1.00  0.00     0.051 C 
BRANCH   2   3
HETATM    3  C2  UNL     1      -3.833  58.400  43.361  1.00  0.00    -0.020 C 
HETATM    4  C1  UNL     1      -4.789  57.698  44.261  1.00  0.00     0.009 C 
HETATM    5  C3  UNL     1      -4.136  58.037  41.925  1.00  0.00     0.009 C 
ENDBRANCH   2   3
ENDBRANCH   1   2
BRANCH   1   6
HETATM    6  N1  UNL     1      -0.205  58.842  43.308  1.00  0.00    -0.062 N 
ATOM      7  H13 UNL     1      -0.220  58.669  42.302  1.00  0.00     0.275 HD
ATOM      8  H12 UNL     1       0.462  59.613  43.277  1.00  0.00     0.275 HD
ATOM      9  H11 UNL     1       0.102  58.044  43.865  1.00  0.00     0.275 HD
ENDBRANCH   1   6
BRANCH   1  10
HETATM   10  P1  UNL     1      -1.319  59.850  45.457  1.00  0.00     0.290 P 
HETATM   11  O1  UNL     1      -2.170  58.799  46.214  1.00  0.00    -0.638 OA
HETATM   12  O2  UNL     1      -0.396  61.013  45.092  1.00  0.00    -0.638 OA
HETATM   13  O3  UNL     1      -0.043  59.280  46.434  1.00  0.00    -0.638 OA
ENDBRANCH   1  10
TORSDOF 4
ENDMDL
