MODEL 20
REMARK VINA RESULT: -4.263095715      3.810      4.970
REMARK  4 active torsions:
REMARK  status: ('A' for Active; 'I' for Inactive)
REMARK    1  A    between atoms: C2_2  and  C4_4 
REMARK    2  A    between atoms: C4_4  and  C5_5 
REMARK    3  A    between atoms: C5_5  and  N1_6 
REMARK    4  A    between atoms: C5_5  and  P1_10 
ROOT
HETATM    1  C5  UNL     1       0.118  59.742  44.082  1.00  0.00     0.312 C 
ENDROOT
BRANCH   1   2
HETATM    2  C4  UNL     1       1.109  60.824  43.765  1.00  0.00     0.051 C 
BRANCH   2   3
HETATM    3  C2  UNL     1       2.466  60.218  43.366  1.00  0.00    -0.020 C 
HETATM    4  C1  UNL     1       2.817  59.032  44.196  1.00  0.00     0.009 C 
HETATM    5  C3  UNL     1       3.508  61.295  43.564  1.00  0.00     0.009 C 
ENDBRANCH   2   3
ENDBRANCH   1   2
BRANCH   1   6
HETATM    6  N1  UNL     1      -0.701  59.630  42.853  1.00  0.00    -0.062 N 
ATOM      7  H13 UNL     1      -0.617  60.426  42.220  1.00  0.00     0.275 HD
ATOM      8  H12 UNL     1      -0.369  58.927  42.192  1.00  0.00     0.275 HD
ATOM      9  H11 UNL     1      -1.647  59.467  43.197  1.00  0.00     0.275 HD
ENDBRANCH   1   6
BRANCH   1  10
HETATM   10  P1  UNL     1      -0.900  59.825  45.460  1.00  0.00     0.290 P 
HETATM   11  O1  UNL     1      -2.155  60.384  44.743  1.00  0.00    -0.638 OA
HETATM   12  O2  UNL     1       0.080  59.252  46.485  1.00  0.00    -0.638 OA
HETATM   13  O3  UNL     1      -1.905  58.499  45.833  1.00  0.00    -0.638 OA
ENDBRANCH   1  10
TORSDOF 4
ENDMDL
