MODEL 2
REMARK VINA RESULT: -4.700089491      0.743      1.203
REMARK  4 active torsions:
REMARK  status: ('A' for Active; 'I' for Inactive)
REMARK    1  A    between atoms: C2_2  and  C4_4 
REMARK    2  A    between atoms: C4_4  and  C5_5 
REMARK    3  A    between atoms: C5_5  and  N1_6 
REMARK    4  A    between atoms: C5_5  and  P1_10 
ROOT
HETATM    1  C5  UNL     1      -1.871  58.507  45.083  1.00  0.00     0.312 C 
ENDROOT
BRANCH   1   2
HETATM    2  C4  UNL     1      -2.585  58.068  43.837  1.00  0.00     0.051 C 
BRANCH   2   3
HETATM    3  C2  UNL     1      -4.072  58.456  43.899  1.00  0.00    -0.020 C 
HETATM    4  C1  UNL     1      -4.962  57.263  43.957  1.00  0.00     0.009 C 
HETATM    5  C3  UNL     1      -4.375  59.247  42.646  1.00  0.00     0.009 C 
ENDBRANCH   2   3
ENDBRANCH   1   2
BRANCH   1   6
HETATM    6  N1  UNL     1      -2.884  59.299  45.821  1.00  0.00    -0.062 N 
ATOM      7  H13 UNL     1      -2.602  60.259  46.018  1.00  0.00     0.275 HD
ATOM      8  H12 UNL     1      -3.710  59.536  45.272  1.00  0.00     0.275 HD
ATOM      9  H11 UNL     1      -3.079  58.741  46.653  1.00  0.00     0.275 HD
ENDBRANCH   1   6
BRANCH   1  10
HETATM   10  P1  UNL     1      -0.388  59.366  45.019  1.00  0.00     0.290 P 
HETATM   11  O1  UNL     1      -0.394  59.654  43.496  1.00  0.00    -0.638 OA
HETATM   12  O2  UNL     1      -0.052  59.326  46.510  1.00  0.00    -0.638 OA
HETATM   13  O3  UNL     1      -0.402  61.064  45.174  1.00  0.00    -0.638 OA
ENDBRANCH   1  10
TORSDOF 4
ENDMDL
