MODEL 2
REMARK VINA RESULT: -10.186117729      0.166      1.375
REMARK  14 active torsions:
REMARK  status: ('A' for Active; 'I' for Inactive)
REMARK    1  A    between atoms: C8_8  and  O1_9 
REMARK    2  A    between atoms: O1_9  and  C9_10 
REMARK    3  A    between atoms: C9_10  and  C10_11 
REMARK       I    between atoms: C10_11  and  N1_13 
REMARK    4  A    between atoms: N1_13  and  C11_15 
REMARK    5  A    between atoms: C11_15  and  C12_16 
REMARK    6  A    between atoms: C11_15  and  C19_23 
REMARK    7  A    between atoms: C12_16  and  C13_17 
REMARK    8  A    between atoms: C19_23  and  O3_24 
REMARK    9  A    between atoms: C19_23  and  C20_26 
REMARK   10  A    between atoms: C20_26  and  C21_27 
REMARK   11  A    between atoms: C21_27  and  C22_28 
REMARK   12  A    between atoms: C21_27  and  N2_32 
REMARK   13  A    between atoms: C22_28  and  C23_29 
REMARK       I    between atoms: N2_32  and  C26_34 
REMARK   14  A    between atoms: C26_34  and  C27_36 
ROOT
HETATM    1  C11 UNL     1      30.715  31.847  12.749  1.00  0.00     0.022 C 
ENDROOT
BRANCH   1   2
HETATM    2  N1  UNL     1      31.537  30.885  12.160  1.00  0.00    -0.330 N 
HETATM    3  C10 UNL     1      32.160  30.840  10.904  1.00  0.00     0.246 C 
HETATM    4  O2  UNL     1      31.980  31.774  10.122  1.00  0.00    -0.271 OA
ATOM      5  H1  UNL     1      31.717  30.069  12.747  1.00  0.00     0.168 HD
BRANCH   3   6
HETATM    6  C9  UNL     1      33.032  29.714  10.473  1.00  0.00     0.278 C 
BRANCH   6   7
HETATM    7  O1  UNL     1      34.391  29.962  10.762  1.00  0.00    -0.341 OA
BRANCH   7   8
HETATM    8  C8  UNL     1      35.244  30.591   9.901  1.00  0.00     0.081 A 
HETATM    9  C2  UNL     1      35.578  29.984   8.715  1.00  0.00    -0.028 A 
HETATM   10  C1  UNL     1      35.025  28.654   8.352  1.00  0.00     0.051 C 
HETATM   11  C3  UNL     1      36.434  30.637   7.872  1.00  0.00     0.009 A 
HETATM   12  C4  UNL     1      36.974  31.889   8.175  1.00  0.00     0.001 A 
HETATM   13  C5  UNL     1      36.600  32.447   9.381  1.00  0.00     0.009 A 
HETATM   14  C6  UNL     1      35.742  31.831  10.266  1.00  0.00    -0.028 A 
HETATM   15  C7  UNL     1      35.363  32.464  11.557  1.00  0.00     0.051 C 
ENDBRANCH   7   8
ENDBRANCH   6   7
ENDBRANCH   3   6
ENDBRANCH   1   2
BRANCH   1  16
HETATM   16  C12 UNL     1      29.249  31.626  12.962  1.00  0.00     0.093 C 
BRANCH  16  17
HETATM   17  C13 UNL     1      28.546  31.050  11.796  1.00  0.00    -0.053 A 
HETATM   18  C14 UNL     1      28.229  31.892  10.707  1.00  0.00     0.007 A 
HETATM   19  C15 UNL     1      27.549  31.466   9.604  1.00  0.00     0.001 A 
HETATM   20  C16 UNL     1      27.132  30.161   9.499  1.00  0.00     0.000 A 
HETATM   21  C17 UNL     1      27.421  29.311  10.539  1.00  0.00     0.001 A 
HETATM   22  C18 UNL     1      28.120  29.764  11.668  1.00  0.00     0.007 A 
ENDBRANCH  16  17
ENDBRANCH   1  16
BRANCH   1  23
HETATM   23  C19 UNL     1      31.348  32.757  13.775  1.00  0.00     0.166 C 
BRANCH  23  24
HETATM   24  O3  UNL     1      31.404  32.148  14.997  1.00  0.00    -0.390 OA
ATOM     25  H3  UNL     1      30.900  32.632  15.640  1.00  0.00     0.210 HD
ENDBRANCH  23  24
BRANCH  23  26
HETATM   26  C20 UNL     1      32.563  33.468  13.310  1.00  0.00     0.062 C 
BRANCH  26  27
HETATM   27  C21 UNL     1      33.128  34.579  14.037  1.00  0.00     0.087 C 
BRANCH  27  28
HETATM   28  C22 UNL     1      34.073  34.470  15.137  1.00  0.00     0.029 C 
BRANCH  28  29
HETATM   29  C23 UNL     1      35.527  34.513  14.908  1.00  0.00    -0.021 C 
HETATM   30  C24 UNL     1      36.238  35.799  14.846  1.00  0.00     0.009 C 
HETATM   31  C25 UNL     1      36.165  33.718  16.070  1.00  0.00     0.009 C 
ENDBRANCH  28  29
ENDBRANCH  27  28
BRANCH  27  32
HETATM   32  N2  UNL     1      31.976  35.359  14.572  1.00  0.00    -0.352 N 
HETATM   33  C26 UNL     1      31.957  36.775  14.575  1.00  0.00     0.252 C 
HETATM   34  O4  UNL     1      32.969  37.372  14.096  1.00  0.00    -0.268 OA
ATOM     35  H2  UNL     1      31.173  34.856  14.950  1.00  0.00     0.163 HD
BRANCH  33  36
HETATM   36  C27 UNL     1      30.822  37.508  15.104  1.00  0.00     0.033 A 
HETATM   37  C28 UNL     1      30.780  37.911  16.436  1.00  0.00     0.017 A 
HETATM   38  C29 UNL     1      29.719  38.599  16.958  1.00  0.00     0.003 A 
HETATM   39  C30 UNL     1      28.648  38.914  16.162  1.00  0.00     0.026 A 
HETATM   40  C31 UNL     1      28.659  38.528  14.836  1.00  0.00     0.047 A 
HETATM   41  N3  UNL     1      27.554  38.854  14.022  1.00  0.00    -0.102 NA
HETATM   42  C32 UNL     1      29.752  37.825  14.319  1.00  0.00     0.043 A 
ENDBRANCH  33  36
ENDBRANCH  27  32
ENDBRANCH  26  27
ENDBRANCH  23  26
ENDBRANCH   1  23
TORSDOF 14
ENDMDL
