MODEL 1
REMARK VINA RESULT: -10.199927942      0.000      0.000
REMARK  14 active torsions:
REMARK  status: ('A' for Active; 'I' for Inactive)
REMARK    1  A    between atoms: C8_8  and  O1_9 
REMARK    2  A    between atoms: O1_9  and  C9_10 
REMARK    3  A    between atoms: C9_10  and  C10_11 
REMARK       I    between atoms: C10_11  and  N1_13 
REMARK    4  A    between atoms: N1_13  and  C11_15 
REMARK    5  A    between atoms: C11_15  and  C12_16 
REMARK    6  A    between atoms: C11_15  and  C19_23 
REMARK    7  A    between atoms: C12_16  and  C13_17 
REMARK    8  A    between atoms: C19_23  and  O3_24 
REMARK    9  A    between atoms: C19_23  and  C20_26 
REMARK   10  A    between atoms: C20_26  and  C21_27 
REMARK   11  A    between atoms: C21_27  and  C22_28 
REMARK   12  A    between atoms: C21_27  and  N2_32 
REMARK   13  A    between atoms: C22_28  and  C23_29 
REMARK       I    between atoms: N2_32  and  C26_34 
REMARK   14  A    between atoms: C26_34  and  C27_36 
ROOT
HETATM    1  C11 UNL     1      30.747  31.913  12.769  1.00  0.00     0.022 C 
ENDROOT
BRANCH   1   2
HETATM    2  N1  UNL     1      31.490  30.920  12.131  1.00  0.00    -0.330 N 
HETATM    3  C10 UNL     1      32.073  30.872  10.854  1.00  0.00     0.246 C 
HETATM    4  O2  UNL     1      31.928  31.836  10.103  1.00  0.00    -0.271 OA
ATOM      5  H1  UNL     1      31.637  30.079  12.691  1.00  0.00     0.168 HD
BRANCH   3   6
HETATM    6  C9  UNL     1      32.860  29.707  10.368  1.00  0.00     0.278 C 
BRANCH   6   7
HETATM    7  O1  UNL     1      34.234  29.841  10.669  1.00  0.00    -0.341 OA
BRANCH   7   8
HETATM    8  C8  UNL     1      35.130  30.460   9.846  1.00  0.00     0.081 A 
HETATM    9  C2  UNL     1      35.676  31.662  10.221  1.00  0.00    -0.028 A 
HETATM   10  C1  UNL     1      35.310  32.302  11.511  1.00  0.00     0.051 C 
HETATM   11  C3  UNL     1      36.570  32.260   9.376  1.00  0.00     0.009 A 
HETATM   12  C4  UNL     1      36.942  31.691   8.156  1.00  0.00     0.001 A 
HETATM   13  C5  UNL     1      36.359  30.482   7.834  1.00  0.00     0.009 A 
HETATM   14  C6  UNL     1      35.452  29.839   8.650  1.00  0.00    -0.028 A 
HETATM   15  C7  UNL     1      34.845  28.536   8.268  1.00  0.00     0.051 C 
ENDBRANCH   7   8
ENDBRANCH   6   7
ENDBRANCH   3   6
ENDBRANCH   1   2
BRANCH   1  16
HETATM   16  C12 UNL     1      29.263  31.811  12.951  1.00  0.00     0.093 C 
BRANCH  16  17
HETATM   17  C13 UNL     1      28.556  31.163  11.826  1.00  0.00    -0.053 A 
HETATM   18  C14 UNL     1      28.216  31.942  10.697  1.00  0.00     0.007 A 
HETATM   19  C15 UNL     1      27.531  31.448   9.626  1.00  0.00     0.001 A 
HETATM   20  C16 UNL     1      27.131  30.134   9.595  1.00  0.00     0.000 A 
HETATM   21  C17 UNL     1      27.443  29.344  10.675  1.00  0.00     0.001 A 
HETATM   22  C18 UNL     1      28.148  29.867  11.770  1.00  0.00     0.007 A 
ENDBRANCH  16  17
ENDBRANCH   1  16
BRANCH   1  23
HETATM   23  C19 UNL     1      31.439  32.699  13.857  1.00  0.00     0.166 C 
BRANCH  23  24
HETATM   24  O3  UNL     1      31.512  31.971  15.012  1.00  0.00    -0.390 OA
ATOM     25  H3  UNL     1      32.205  32.297  15.574  1.00  0.00     0.210 HD
ENDBRANCH  23  24
BRANCH  23  26
HETATM   26  C20 UNL     1      32.663  33.414  13.423  1.00  0.00     0.062 C 
BRANCH  26  27
HETATM   27  C21 UNL     1      33.190  34.544  14.150  1.00  0.00     0.087 C 
BRANCH  27  28
HETATM   28  C22 UNL     1      34.110  34.465  15.274  1.00  0.00     0.029 C 
BRANCH  28  29
HETATM   29  C23 UNL     1      35.566  34.377  15.070  1.00  0.00    -0.021 C 
HETATM   30  C24 UNL     1      36.408  35.581  15.150  1.00  0.00     0.009 C 
HETATM   31  C25 UNL     1      36.090  33.407  16.155  1.00  0.00     0.009 C 
ENDBRANCH  28  29
ENDBRANCH  27  28
BRANCH  27  32
HETATM   32  N2  UNL     1      32.012  35.309  14.649  1.00  0.00    -0.352 N 
HETATM   33  C26 UNL     1      31.969  36.724  14.638  1.00  0.00     0.252 C 
HETATM   34  O4  UNL     1      32.983  37.334  14.181  1.00  0.00    -0.268 OA
ATOM     35  H2  UNL     1      31.208  34.796  15.010  1.00  0.00     0.163 HD
BRANCH  33  36
HETATM   36  C27 UNL     1      30.809  37.442  15.131  1.00  0.00     0.033 A 
HETATM   37  C28 UNL     1      30.729  37.865  16.455  1.00  0.00     0.017 A 
HETATM   38  C29 UNL     1      29.644  38.539  16.944  1.00  0.00     0.003 A 
HETATM   39  C30 UNL     1      28.585  38.821  16.120  1.00  0.00     0.026 A 
HETATM   40  C31 UNL     1      28.633  38.415  14.801  1.00  0.00     0.047 A 
HETATM   41  N3  UNL     1      27.540  38.708  13.958  1.00  0.00    -0.102 NA
HETATM   42  C32 UNL     1      29.751  37.727  14.318  1.00  0.00     0.043 A 
ENDBRANCH  33  36
ENDBRANCH  27  32
ENDBRANCH  26  27
ENDBRANCH  23  26
ENDBRANCH   1  23
TORSDOF 14
ENDMDL
