MODEL 3
REMARK VINA RESULT: -9.889622123      0.744      1.387
REMARK  14 active torsions:
REMARK  status: ('A' for Active; 'I' for Inactive)
REMARK    1  A    between atoms: C8_8  and  O1_9 
REMARK    2  A    between atoms: O1_9  and  C9_10 
REMARK    3  A    between atoms: C9_10  and  C10_11 
REMARK       I    between atoms: C10_11  and  N1_13 
REMARK    4  A    between atoms: N1_13  and  C11_15 
REMARK    5  A    between atoms: C11_15  and  C12_16 
REMARK    6  A    between atoms: C11_15  and  C19_23 
REMARK    7  A    between atoms: C12_16  and  C13_17 
REMARK    8  A    between atoms: C19_23  and  O3_24 
REMARK    9  A    between atoms: C19_23  and  C20_26 
REMARK   10  A    between atoms: C20_26  and  C21_27 
REMARK   11  A    between atoms: C21_27  and  C22_28 
REMARK   12  A    between atoms: C21_27  and  N2_32 
REMARK   13  A    between atoms: C22_28  and  C23_29 
REMARK       I    between atoms: N2_32  and  C26_34 
REMARK   14  A    between atoms: C26_34  and  C27_36 
ROOT
HETATM    1  C11 UNL     1      30.690  31.962  12.753  1.00  0.00     0.022 C 
ENDROOT
BRANCH   1   2
HETATM    2  N1  UNL     1      31.366  30.931  12.100  1.00  0.00    -0.330 N 
HETATM    3  C10 UNL     1      31.950  30.866  10.825  1.00  0.00     0.246 C 
HETATM    4  O2  UNL     1      31.875  31.851  10.091  1.00  0.00    -0.271 OA
ATOM      5  H1  UNL     1      31.452  30.073  12.645  1.00  0.00     0.168 HD
BRANCH   3   6
HETATM    6  C9  UNL     1      32.657  29.658  10.321  1.00  0.00     0.278 C 
BRANCH   6   7
HETATM    7  O1  UNL     1      33.520  29.967   9.246  1.00  0.00    -0.341 OA
BRANCH   7   8
HETATM    8  C8  UNL     1      34.688  29.303   9.002  1.00  0.00     0.081 A 
HETATM    9  C2  UNL     1      35.865  29.792   9.512  1.00  0.00    -0.028 A 
HETATM   10  C1  UNL     1      35.890  31.033  10.329  1.00  0.00     0.051 C 
HETATM   11  C3  UNL     1      37.019  29.107   9.250  1.00  0.00     0.009 A 
HETATM   12  C4  UNL     1      37.039  27.936   8.489  1.00  0.00     0.001 A 
HETATM   13  C5  UNL     1      35.824  27.495   8.003  1.00  0.00     0.009 A 
HETATM   14  C6  UNL     1      34.633  28.148   8.238  1.00  0.00    -0.028 A 
HETATM   15  C7  UNL     1      33.344  27.642   7.697  1.00  0.00     0.051 C 
ENDBRANCH   7   8
ENDBRANCH   6   7
ENDBRANCH   3   6
ENDBRANCH   1   2
BRANCH   1  16
HETATM   16  C12 UNL     1      29.202  31.961  12.926  1.00  0.00     0.093 C 
BRANCH  16  17
HETATM   17  C13 UNL     1      28.459  31.369  11.793  1.00  0.00    -0.053 A 
HETATM   18  C14 UNL     1      28.030  30.027  11.888  1.00  0.00     0.007 A 
HETATM   19  C15 UNL     1      27.372  29.378  10.883  1.00  0.00     0.001 A 
HETATM   20  C16 UNL     1      27.090  30.020   9.702  1.00  0.00     0.000 A 
HETATM   21  C17 UNL     1      27.492  31.327   9.571  1.00  0.00     0.001 A 
HETATM   22  C18 UNL     1      28.168  31.981  10.613  1.00  0.00     0.007 A 
ENDBRANCH  16  17
ENDBRANCH   1  16
BRANCH   1  23
HETATM   23  C19 UNL     1      31.429  32.677  13.859  1.00  0.00     0.166 C 
BRANCH  23  24
HETATM   24  O3  UNL     1      31.509  31.894  14.977  1.00  0.00    -0.390 OA
ATOM     25  H3  UNL     1      30.861  32.154  15.620  1.00  0.00     0.210 HD
ENDBRANCH  23  24
BRANCH  23  26
HETATM   26  C20 UNL     1      32.660  33.381  13.430  1.00  0.00     0.062 C 
BRANCH  26  27
HETATM   27  C21 UNL     1      33.197  34.505  14.159  1.00  0.00     0.087 C 
BRANCH  27  28
HETATM   28  C22 UNL     1      34.116  34.416  15.283  1.00  0.00     0.029 C 
BRANCH  28  29
HETATM   29  C23 UNL     1      35.574  34.357  15.080  1.00  0.00    -0.021 C 
HETATM   30  C24 UNL     1      36.391  35.577  15.160  1.00  0.00     0.009 C 
HETATM   31  C25 UNL     1      36.117  33.398  16.164  1.00  0.00     0.009 C 
ENDBRANCH  28  29
ENDBRANCH  27  28
BRANCH  27  32
HETATM   32  N2  UNL     1      32.025  35.279  14.660  1.00  0.00    -0.352 N 
HETATM   33  C26 UNL     1      31.981  36.693  14.624  1.00  0.00     0.252 C 
HETATM   34  O4  UNL     1      32.988  37.295  14.141  1.00  0.00    -0.268 OA
ATOM     35  H2  UNL     1      31.226  34.772  15.041  1.00  0.00     0.163 HD
BRANCH  33  36
HETATM   36  C27 UNL     1      30.827  37.419  15.119  1.00  0.00     0.033 A 
HETATM   37  C28 UNL     1      30.751  37.838  16.445  1.00  0.00     0.017 A 
HETATM   38  C29 UNL     1      29.671  38.520  16.936  1.00  0.00     0.003 A 
HETATM   39  C30 UNL     1      28.615  38.813  16.113  1.00  0.00     0.026 A 
HETATM   40  C31 UNL     1      28.659  38.412  14.793  1.00  0.00     0.047 A 
HETATM   41  N3  UNL     1      27.569  38.717  13.951  1.00  0.00    -0.102 NA
HETATM   42  C32 UNL     1      29.771  37.715  14.307  1.00  0.00     0.043 A 
ENDBRANCH  33  36
ENDBRANCH  27  32
ENDBRANCH  26  27
ENDBRANCH  23  26
ENDBRANCH   1  23
TORSDOF 14
ENDMDL
