MODEL 4
REMARK VINA RESULT: -9.878873514      0.749      1.764
REMARK  14 active torsions:
REMARK  status: ('A' for Active; 'I' for Inactive)
REMARK    1  A    between atoms: C8_8  and  O1_9 
REMARK    2  A    between atoms: O1_9  and  C9_10 
REMARK    3  A    between atoms: C9_10  and  C10_11 
REMARK       I    between atoms: C10_11  and  N1_13 
REMARK    4  A    between atoms: N1_13  and  C11_15 
REMARK    5  A    between atoms: C11_15  and  C12_16 
REMARK    6  A    between atoms: C11_15  and  C19_23 
REMARK    7  A    between atoms: C12_16  and  C13_17 
REMARK    8  A    between atoms: C19_23  and  O3_24 
REMARK    9  A    between atoms: C19_23  and  C20_26 
REMARK   10  A    between atoms: C20_26  and  C21_27 
REMARK   11  A    between atoms: C21_27  and  C22_28 
REMARK   12  A    between atoms: C21_27  and  N2_32 
REMARK   13  A    between atoms: C22_28  and  C23_29 
REMARK       I    between atoms: N2_32  and  C26_34 
REMARK   14  A    between atoms: C26_34  and  C27_36 
ROOT
HETATM    1  C11 UNL     1      30.726  31.962  12.747  1.00  0.00     0.022 C 
ENDROOT
BRANCH   1   2
HETATM    2  N1  UNL     1      31.412  30.933  12.100  1.00  0.00    -0.330 N 
HETATM    3  C10 UNL     1      31.984  30.861  10.820  1.00  0.00     0.246 C 
HETATM    4  O2  UNL     1      31.887  31.835  10.075  1.00  0.00    -0.271 OA
ATOM      5  H1  UNL     1      31.516  30.083  12.655  1.00  0.00     0.168 HD
BRANCH   3   6
HETATM    6  C9  UNL     1      32.706  29.658  10.324  1.00  0.00     0.278 C 
BRANCH   6   7
HETATM    7  O1  UNL     1      33.598  29.977   9.277  1.00  0.00    -0.341 OA
BRANCH   7   8
HETATM    8  C8  UNL     1      34.714  29.245   8.988  1.00  0.00     0.081 A 
HETATM    9  C2  UNL     1      34.598  28.103   8.235  1.00  0.00    -0.028 A 
HETATM   10  C1  UNL     1      33.278  27.650   7.726  1.00  0.00     0.051 C 
HETATM   11  C3  UNL     1      35.732  27.389   7.962  1.00  0.00     0.009 A 
HETATM   12  C4  UNL     1      36.992  27.781   8.419  1.00  0.00     0.001 A 
HETATM   13  C5  UNL     1      37.044  28.938   9.171  1.00  0.00     0.009 A 
HETATM   14  C6  UNL     1      35.931  29.693   9.475  1.00  0.00    -0.028 A 
HETATM   15  C7  UNL     1      36.027  30.933  10.289  1.00  0.00     0.051 C 
ENDBRANCH   7   8
ENDBRANCH   6   7
ENDBRANCH   3   6
ENDBRANCH   1   2
BRANCH   1  16
HETATM   16  C12 UNL     1      29.237  31.956  12.905  1.00  0.00     0.093 C 
BRANCH  16  17
HETATM   17  C13 UNL     1      28.514  31.247  11.828  1.00  0.00    -0.053 A 
HETATM   18  C14 UNL     1      28.198  31.949  10.644  1.00  0.00     0.007 A 
HETATM   19  C15 UNL     1      27.501  31.395   9.609  1.00  0.00     0.001 A 
HETATM   20  C16 UNL     1      27.065  30.095   9.674  1.00  0.00     0.000 A 
HETATM   21  C17 UNL     1      27.353  29.379  10.811  1.00  0.00     0.001 A 
HETATM   22  C18 UNL     1      28.069  29.961  11.867  1.00  0.00     0.007 A 
ENDBRANCH  16  17
ENDBRANCH   1  16
BRANCH   1  23
HETATM   23  C19 UNL     1      31.452  32.678  13.860  1.00  0.00     0.166 C 
BRANCH  23  24
HETATM   24  O3  UNL     1      31.504  31.904  14.986  1.00  0.00    -0.390 OA
ATOM     25  H3  UNL     1      32.348  31.477  15.065  1.00  0.00     0.210 HD
ENDBRANCH  23  24
BRANCH  23  26
HETATM   26  C20 UNL     1      32.699  33.366  13.448  1.00  0.00     0.062 C 
BRANCH  26  27
HETATM   27  C21 UNL     1      33.218  34.508  14.161  1.00  0.00     0.087 C 
BRANCH  27  28
HETATM   28  C22 UNL     1      34.133  34.448  15.291  1.00  0.00     0.029 C 
BRANCH  28  29
HETATM   29  C23 UNL     1      35.591  34.368  15.096  1.00  0.00    -0.021 C 
HETATM   30  C24 UNL     1      36.430  35.569  15.219  1.00  0.00     0.009 C 
HETATM   31  C25 UNL     1      36.107  33.365  16.154  1.00  0.00     0.009 C 
ENDBRANCH  28  29
ENDBRANCH  27  28
BRANCH  27  32
HETATM   32  N2  UNL     1      32.035  35.276  14.643  1.00  0.00    -0.352 N 
HETATM   33  C26 UNL     1      31.999  36.691  14.638  1.00  0.00     0.252 C 
HETATM   34  O4  UNL     1      33.024  37.298  14.202  1.00  0.00    -0.268 OA
ATOM     35  H2  UNL     1      31.223  34.765  14.987  1.00  0.00     0.163 HD
BRANCH  33  36
HETATM   36  C27 UNL     1      30.833  37.412  15.114  1.00  0.00     0.033 A 
HETATM   37  C28 UNL     1      30.738  37.840  16.435  1.00  0.00     0.017 A 
HETATM   38  C29 UNL     1      29.648  38.518  16.909  1.00  0.00     0.003 A 
HETATM   39  C30 UNL     1      28.599  38.797  16.071  1.00  0.00     0.026 A 
HETATM   40  C31 UNL     1      28.662  38.385  14.754  1.00  0.00     0.047 A 
HETATM   41  N3  UNL     1      27.580  38.675  13.897  1.00  0.00    -0.102 NA
HETATM   42  C32 UNL     1      29.785  37.694  14.287  1.00  0.00     0.043 A 
ENDBRANCH  33  36
ENDBRANCH  27  32
ENDBRANCH  26  27
ENDBRANCH  23  26
ENDBRANCH   1  23
TORSDOF 14
ENDMDL
