MODEL 8
REMARK VINA RESULT: -9.690246264      1.698      9.753
REMARK  14 active torsions:
REMARK  status: ('A' for Active; 'I' for Inactive)
REMARK    1  A    between atoms: C8_8  and  O1_9 
REMARK    2  A    between atoms: O1_9  and  C9_10 
REMARK    3  A    between atoms: C9_10  and  C10_11 
REMARK       I    between atoms: C10_11  and  N1_13 
REMARK    4  A    between atoms: N1_13  and  C11_15 
REMARK    5  A    between atoms: C11_15  and  C12_16 
REMARK    6  A    between atoms: C11_15  and  C19_23 
REMARK    7  A    between atoms: C12_16  and  C13_17 
REMARK    8  A    between atoms: C19_23  and  O3_24 
REMARK    9  A    between atoms: C19_23  and  C20_26 
REMARK   10  A    between atoms: C20_26  and  C21_27 
REMARK   11  A    between atoms: C21_27  and  C22_28 
REMARK   12  A    between atoms: C21_27  and  N2_32 
REMARK   13  A    between atoms: C22_28  and  C23_29 
REMARK       I    between atoms: N2_32  and  C26_34 
REMARK   14  A    between atoms: C26_34  and  C27_36 
ROOT
HETATM    1  C11 UNL     1      32.013  33.923  13.508  1.00  0.00     0.022 C 
ENDROOT
BRANCH   1   2
HETATM    2  N1  UNL     1      31.583  35.019  14.258  1.00  0.00    -0.330 N 
HETATM    3  C10 UNL     1      31.265  36.333  13.883  1.00  0.00     0.246 C 
HETATM    4  O2  UNL     1      31.379  36.653  12.700  1.00  0.00    -0.271 OA
ATOM      5  H1  UNL     1      31.482  34.831  15.256  1.00  0.00     0.168 HD
BRANCH   3   6
HETATM    6  C9  UNL     1      30.794  37.359  14.852  1.00  0.00     0.278 C 
BRANCH   6   7
HETATM    7  O1  UNL     1      30.498  38.585  14.215  1.00  0.00    -0.341 OA
BRANCH   7   8
HETATM    8  C8  UNL     1      29.858  39.620  14.833  1.00  0.00     0.081 A 
HETATM    9  C2  UNL     1      30.591  40.555  15.521  1.00  0.00    -0.028 A 
HETATM   10  C1  UNL     1      32.071  40.462  15.602  1.00  0.00     0.051 C 
HETATM   11  C3  UNL     1      29.923  41.582  16.131  1.00  0.00     0.009 A 
HETATM   12  C4  UNL     1      28.532  41.707  16.077  1.00  0.00     0.001 A 
HETATM   13  C5  UNL     1      27.852  40.735  15.371  1.00  0.00     0.009 A 
HETATM   14  C6  UNL     1      28.477  39.682  14.739  1.00  0.00    -0.028 A 
HETATM   15  C7  UNL     1      27.708  38.654  13.988  1.00  0.00     0.051 C 
ENDBRANCH   7   8
ENDBRANCH   6   7
ENDBRANCH   3   6
ENDBRANCH   1   2
BRANCH   1  16
HETATM   16  C12 UNL     1      33.398  33.830  12.947  1.00  0.00     0.093 C 
BRANCH  16  17
HETATM   17  C13 UNL     1      34.458  34.302  13.864  1.00  0.00    -0.053 A 
HETATM   18  C14 UNL     1      35.085  35.540  13.601  1.00  0.00     0.007 A 
HETATM   19  C15 UNL     1      36.097  36.044  14.365  1.00  0.00     0.001 A 
HETATM   20  C16 UNL     1      36.565  35.350  15.454  1.00  0.00     0.000 A 
HETATM   21  C17 UNL     1      35.981  34.141  15.742  1.00  0.00     0.001 A 
HETATM   22  C18 UNL     1      34.941  33.635  14.947  1.00  0.00     0.007 A 
ENDBRANCH  16  17
ENDBRANCH   1  16
BRANCH   1  23
HETATM   23  C19 UNL     1      31.399  32.583  13.834  1.00  0.00     0.166 C 
BRANCH  23  24
HETATM   24  O3  UNL     1      31.638  32.241  15.136  1.00  0.00    -0.390 OA
ATOM     25  H3  UNL     1      30.871  31.842  15.528  1.00  0.00     0.210 HD
ENDBRANCH  23  24
BRANCH  23  26
HETATM   26  C20 UNL     1      30.022  32.388  13.320  1.00  0.00     0.062 C 
BRANCH  26  27
HETATM   27  C21 UNL     1      29.709  31.398  12.318  1.00  0.00     0.087 C 
BRANCH  27  28
HETATM   28  C22 UNL     1      28.779  30.293  12.489  1.00  0.00     0.029 C 
BRANCH  28  29
HETATM   29  C23 UNL     1      27.929  29.826  11.381  1.00  0.00    -0.021 C 
HETATM   30  C24 UNL     1      27.823  30.606  10.138  1.00  0.00     0.009 C 
HETATM   31  C25 UNL     1      28.478  28.438  10.979  1.00  0.00     0.009 C 
ENDBRANCH  28  29
ENDBRANCH  27  28
BRANCH  27  32
HETATM   32  N2  UNL     1      31.005  30.775  11.924  1.00  0.00    -0.352 N 
HETATM   33  C26 UNL     1      31.798  31.282  10.867  1.00  0.00     0.252 C 
HETATM   34  O4  UNL     1      31.366  32.304  10.253  1.00  0.00    -0.268 OA
ATOM     35  H2  UNL     1      31.333  29.955  12.435  1.00  0.00     0.163 HD
BRANCH  33  36
HETATM   36  C27 UNL     1      33.055  30.654  10.506  1.00  0.00     0.033 A 
HETATM   37  C28 UNL     1      34.253  31.363  10.539  1.00  0.00     0.017 A 
HETATM   38  C29 UNL     1      35.450  30.794  10.199  1.00  0.00     0.003 A 
HETATM   39  C30 UNL     1      35.497  29.480   9.809  1.00  0.00     0.026 A 
HETATM   40  C31 UNL     1      34.326  28.749   9.766  1.00  0.00     0.047 A 
HETATM   41  N3  UNL     1      34.381  27.398   9.364  1.00  0.00    -0.102 NA
HETATM   42  C32 UNL     1      33.111  29.348  10.117  1.00  0.00     0.043 A 
ENDBRANCH  33  36
ENDBRANCH  27  32
ENDBRANCH  26  27
ENDBRANCH  23  26
ENDBRANCH   1  23
TORSDOF 14
ENDMDL
