MODEL 5
REMARK VINA RESULT: -9.793339845      1.328      2.368
REMARK  14 active torsions:
REMARK  status: ('A' for Active; 'I' for Inactive)
REMARK    1  A    between atoms: C8_8  and  O1_9 
REMARK    2  A    between atoms: O1_9  and  C9_10 
REMARK    3  A    between atoms: C9_10  and  C10_11 
REMARK       I    between atoms: C10_11  and  N1_13 
REMARK    4  A    between atoms: N1_13  and  C11_15 
REMARK    5  A    between atoms: C11_15  and  C12_16 
REMARK    6  A    between atoms: C11_15  and  C19_23 
REMARK    7  A    between atoms: C12_16  and  C13_17 
REMARK    8  A    between atoms: C19_23  and  O3_24 
REMARK    9  A    between atoms: C19_23  and  C20_26 
REMARK   10  A    between atoms: C20_26  and  C21_27 
REMARK   11  A    between atoms: C21_27  and  C22_28 
REMARK   12  A    between atoms: C21_27  and  N2_32 
REMARK   13  A    between atoms: C22_28  and  C23_29 
REMARK       I    between atoms: N2_32  and  C26_34 
REMARK   14  A    between atoms: C26_34  and  C27_36 
ROOT
HETATM    1  C11 UNL     1      31.065  31.587  12.730  1.00  0.00     0.022 C 
ENDROOT
BRANCH   1   2
HETATM    2  N1  UNL     1      32.090  30.843  12.144  1.00  0.00    -0.330 N 
HETATM    3  C10 UNL     1      32.627  30.864  10.848  1.00  0.00     0.246 C 
HETATM    4  O2  UNL     1      32.147  31.640  10.022  1.00  0.00    -0.271 OA
ATOM      5  H1  UNL     1      32.525  30.163  12.768  1.00  0.00     0.168 HD
BRANCH   3   6
HETATM    6  C9  UNL     1      33.755  29.989  10.426  1.00  0.00     0.278 C 
BRANCH   6   7
HETATM    7  O1  UNL     1      33.319  28.680  10.125  1.00  0.00    -0.341 OA
BRANCH   7   8
HETATM    8  C8  UNL     1      33.270  28.174   8.858  1.00  0.00     0.081 A 
HETATM    9  C2  UNL     1      34.428  27.753   8.252  1.00  0.00    -0.028 A 
HETATM   10  C1  UNL     1      35.735  27.837   8.953  1.00  0.00     0.051 C 
HETATM   11  C3  UNL     1      34.350  27.251   6.982  1.00  0.00     0.009 A 
HETATM   12  C4  UNL     1      33.141  27.153   6.289  1.00  0.00     0.001 A 
HETATM   13  C5  UNL     1      32.012  27.593   6.952  1.00  0.00     0.009 A 
HETATM   14  C6  UNL     1      32.037  28.107   8.230  1.00  0.00    -0.028 A 
HETATM   15  C7  UNL     1      30.799  28.570   8.911  1.00  0.00     0.051 C 
ENDBRANCH   7   8
ENDBRANCH   6   7
ENDBRANCH   3   6
ENDBRANCH   1   2
BRANCH   1  16
HETATM   16  C12 UNL     1      29.722  30.999  13.037  1.00  0.00     0.093 C 
BRANCH  16  17
HETATM   17  C13 UNL     1      28.843  30.845  11.858  1.00  0.00    -0.053 A 
HETATM   18  C14 UNL     1      28.298  29.571  11.577  1.00  0.00     0.007 A 
HETATM   19  C15 UNL     1      27.508  29.317  10.494  1.00  0.00     0.001 A 
HETATM   20  C16 UNL     1      27.198  30.316   9.604  1.00  0.00     0.000 A 
HETATM   21  C17 UNL     1      27.709  31.569   9.842  1.00  0.00     0.001 A 
HETATM   22  C18 UNL     1      28.521  31.815  10.960  1.00  0.00     0.007 A 
ENDBRANCH  16  17
ENDBRANCH   1  16
BRANCH   1  23
HETATM   23  C19 UNL     1      31.472  32.695  13.671  1.00  0.00     0.166 C 
BRANCH  23  24
HETATM   24  O3  UNL     1      31.383  32.286  14.973  1.00  0.00    -0.390 OA
ATOM     25  H3  UNL     1      31.680  32.969  15.563  1.00  0.00     0.210 HD
ENDBRANCH  23  24
BRANCH  23  26
HETATM   26  C20 UNL     1      32.692  33.435  13.270  1.00  0.00     0.062 C 
BRANCH  26  27
HETATM   27  C21 UNL     1      33.213  34.536  14.044  1.00  0.00     0.087 C 
BRANCH  27  28
HETATM   28  C22 UNL     1      34.110  34.413  15.183  1.00  0.00     0.029 C 
BRANCH  28  29
HETATM   29  C23 UNL     1      35.574  34.414  15.011  1.00  0.00    -0.021 C 
HETATM   30  C24 UNL     1      36.337  35.668  15.095  1.00  0.00     0.009 C 
HETATM   31  C25 UNL     1      36.132  33.488  16.116  1.00  0.00     0.009 C 
ENDBRANCH  28  29
ENDBRANCH  27  28
BRANCH  27  32
HETATM   32  N2  UNL     1      32.030  35.292  14.546  1.00  0.00    -0.352 N 
HETATM   33  C26 UNL     1      32.007  36.706  14.606  1.00  0.00     0.252 C 
HETATM   34  O4  UNL     1      33.042  37.323  14.210  1.00  0.00    -0.268 OA
ATOM     35  H2  UNL     1      31.209  34.774  14.856  1.00  0.00     0.163 HD
BRANCH  33  36
HETATM   36  C27 UNL     1      30.842  37.416  15.099  1.00  0.00     0.033 A 
HETATM   37  C28 UNL     1      30.756  37.830  16.426  1.00  0.00     0.017 A 
HETATM   38  C29 UNL     1      29.666  38.496  16.916  1.00  0.00     0.003 A 
HETATM   39  C30 UNL     1      28.608  38.778  16.090  1.00  0.00     0.026 A 
HETATM   40  C31 UNL     1      28.662  38.380  14.769  1.00  0.00     0.047 A 
HETATM   41  N3  UNL     1      27.570  38.673  13.925  1.00  0.00    -0.102 NA
HETATM   42  C32 UNL     1      29.784  37.700  14.285  1.00  0.00     0.043 A 
ENDBRANCH  33  36
ENDBRANCH  27  32
ENDBRANCH  26  27
ENDBRANCH  23  26
ENDBRANCH   1  23
TORSDOF 14
ENDMDL
