MODEL 1
REMARK VINA RESULT: -9.445780013      0.000      0.000
REMARK  15 active torsions:
REMARK  status: ('A' for Active; 'I' for Inactive)
REMARK    1  A    between atoms: C8_8  and  O1_9 
REMARK    2  A    between atoms: O1_9  and  C9_10 
REMARK    3  A    between atoms: C10_11  and  O2_12 
REMARK    4  A    between atoms: C10_11  and  N1_14 
REMARK    5  A    between atoms: N1_14  and  C11_16 
REMARK    6  A    between atoms: C11_16  and  C12_17 
REMARK    7  A    between atoms: C11_16  and  C19_24 
REMARK    8  A    between atoms: C12_17  and  C13_18 
REMARK    9  A    between atoms: C19_24  and  O3_25 
REMARK   10  A    between atoms: C19_24  and  C20_27 
REMARK   11  A    between atoms: C20_27  and  C21_28 
REMARK   12  A    between atoms: C21_28  and  C22_29 
REMARK   13  A    between atoms: C21_28  and  N2_33 
REMARK   14  A    between atoms: C22_29  and  C23_30 
REMARK       I    between atoms: N2_33  and  C26_35 
REMARK   15  A    between atoms: C26_35  and  C27_37 
ROOT
HETATM    1  C11 UNL     1      30.941  32.410  12.671  1.00  0.00     0.116 C 
ENDROOT
BRANCH   1   2
HETATM    2  N1  UNL     1      31.940  31.648  11.939  1.00  0.00    -0.362 N 
ATOM      3  H1  UNL     1      32.331  30.825  12.397  1.00  0.00     0.162 HD
BRANCH   2   4
HETATM    4  C10 UNL     1      32.405  31.951  10.660  1.00  0.00     0.159 C 
HETATM    5  C9  UNL     1      33.470  31.386   9.868  1.00  0.00     0.198 C 
BRANCH   5   6
HETATM    6  O1  UNL     1      34.122  30.269  10.198  1.00  0.00    -0.317 OA
BRANCH   6   7
HETATM    7  C8  UNL     1      35.076  29.499   9.653  1.00  0.00     0.086 A 
HETATM    8  C2  UNL     1      36.425  29.835   9.590  1.00  0.00    -0.028 A 
HETATM    9  C1  UNL     1      36.927  31.083  10.247  1.00  0.00     0.051 C 
HETATM   10  C3  UNL     1      37.349  29.005   9.005  1.00  0.00     0.009 A 
HETATM   11  C4  UNL     1      36.942  27.805   8.468  1.00  0.00     0.001 A 
HETATM   12  C5  UNL     1      35.609  27.458   8.526  1.00  0.00     0.009 A 
HETATM   13  C6  UNL     1      34.670  28.264   9.099  1.00  0.00    -0.028 A 
HETATM   14  C7  UNL     1      33.227  27.876   9.163  1.00  0.00     0.051 C 
ENDBRANCH   6   7
ENDBRANCH   5   6
BRANCH   4  15
HETATM   15  O2  UNL     1      31.732  32.930  10.124  1.00  0.00    -0.345 OA
ATOM     16  H2  UNL     1      30.796  32.945  10.287  1.00  0.00     0.219 HD
ENDBRANCH   4  15
ENDBRANCH   2   4
ENDBRANCH   1   2
BRANCH   1  17
HETATM   17  C12 UNL     1      29.811  31.521  13.044  1.00  0.00     0.066 C 
BRANCH  17  18
HETATM   18  C13 UNL     1      28.927  31.191  11.889  1.00  0.00    -0.056 A 
HETATM   19  C14 UNL     1      28.513  32.172  11.001  1.00  0.00     0.007 A 
HETATM   20  C15 UNL     1      27.700  31.809   9.966  1.00  0.00     0.001 A 
HETATM   21  C16 UNL     1      27.288  30.487   9.795  1.00  0.00     0.000 A 
HETATM   22  C17 UNL     1      27.695  29.512  10.671  1.00  0.00     0.001 A 
HETATM   23  C18 UNL     1      28.523  29.887  11.724  1.00  0.00     0.007 A 
ENDBRANCH  17  18
ENDBRANCH   1  17
BRANCH   1  24
HETATM   24  C19 UNL     1      31.513  33.174  13.807  1.00  0.00     0.143 C 
BRANCH  24  25
HETATM   25  O3  UNL     1      31.593  32.361  14.958  1.00  0.00    -0.393 OA
ATOM     26  H3  UNL     1      32.217  32.722  15.577  1.00  0.00     0.210 HD
ENDBRANCH  24  25
BRANCH  24  27
HETATM   27  C20 UNL     1      32.890  33.651  13.486  1.00  0.00     0.059 C 
BRANCH  27  28
HETATM   28  C21 UNL     1      33.412  34.801  14.291  1.00  0.00     0.087 C 
BRANCH  28  29
HETATM   29  C22 UNL     1      34.267  34.459  15.458  1.00  0.00     0.029 C 
BRANCH  29  30
HETATM   30  C23 UNL     1      35.750  34.470  15.049  1.00  0.00    -0.021 C 
HETATM   31  C24 UNL     1      36.312  35.848  15.064  1.00  0.00     0.009 C 
HETATM   32  C25 UNL     1      36.485  33.689  16.179  1.00  0.00     0.009 C 
ENDBRANCH  29  30
ENDBRANCH  28  29
BRANCH  28  33
HETATM   33  N2  UNL     1      32.231  35.575  14.670  1.00  0.00    -0.352 N 
HETATM   34  C26 UNL     1      32.104  36.970  14.734  1.00  0.00     0.252 C 
HETATM   35  O4  UNL     1      33.115  37.682  14.450  1.00  0.00    -0.268 OA
ATOM     36  H2  UNL     1      31.401  35.036  14.917  1.00  0.00     0.163 HD
BRANCH  34  37
HETATM   37  C27 UNL     1      30.877  37.656  15.109  1.00  0.00     0.032 A 
HETATM   38  C28 UNL     1      29.889  37.952  14.207  1.00  0.00     0.019 A 
HETATM   39  C29 UNL     1      28.730  38.614  14.573  1.00  0.00     0.027 A 
HETATM   40  C30 UNL     1      28.528  39.001  15.878  1.00  0.00     0.046 A 
HETATM   41  N3  UNL     1      27.330  39.688  16.277  1.00  0.00    -0.102 NA
HETATM   42  C31 UNL     1      29.511  38.711  16.798  1.00  0.00     0.027 A 
HETATM   43  C32 UNL     1      30.682  38.040  16.409  1.00  0.00     0.019 A 
ENDBRANCH  34  37
ENDBRANCH  28  33
ENDBRANCH  27  28
ENDBRANCH  24  27
ENDBRANCH   1  24
TORSDOF 15
ENDMDL
