MODEL 15
REMARK VINA RESULT: -8.917789376      1.402      2.331
REMARK  15 active torsions:
REMARK  status: ('A' for Active; 'I' for Inactive)
REMARK    1  A    between atoms: C8_8  and  O1_9 
REMARK    2  A    between atoms: O1_9  and  C9_10 
REMARK    3  A    between atoms: C10_11  and  O2_12 
REMARK    4  A    between atoms: C10_11  and  N1_14 
REMARK    5  A    between atoms: N1_14  and  C11_16 
REMARK    6  A    between atoms: C11_16  and  C12_17 
REMARK    7  A    between atoms: C11_16  and  C19_24 
REMARK    8  A    between atoms: C12_17  and  C13_18 
REMARK    9  A    between atoms: C19_24  and  O3_25 
REMARK   10  A    between atoms: C19_24  and  C20_27 
REMARK   11  A    between atoms: C20_27  and  C21_28 
REMARK   12  A    between atoms: C21_28  and  C22_29 
REMARK   13  A    between atoms: C21_28  and  N2_33 
REMARK   14  A    between atoms: C22_29  and  C23_30 
REMARK       I    between atoms: N2_33  and  C26_35 
REMARK   15  A    between atoms: C26_35  and  C27_37 
ROOT
HETATM    1  C11 UNL     1      30.903  32.835  12.379  1.00  0.00     0.116 C 
ENDROOT
BRANCH   1   2
HETATM    2  N1  UNL     1      31.974  32.392  11.502  1.00  0.00    -0.362 N 
ATOM      3  H1  UNL     1      32.272  33.031  10.764  1.00  0.00     0.162 HD
BRANCH   2   4
HETATM    4  C10 UNL     1      32.629  31.164  11.588  1.00  0.00     0.159 C 
HETATM    5  C9  UNL     1      32.962  30.182  10.584  1.00  0.00     0.198 C 
BRANCH   5   6
HETATM    6  O1  UNL     1      32.835  30.397   9.272  1.00  0.00    -0.317 OA
BRANCH   6   7
HETATM    7  C8  UNL     1      32.899  29.660   8.152  1.00  0.00     0.086 A 
HETATM    8  C2  UNL     1      31.887  28.819   7.700  1.00  0.00    -0.028 A 
HETATM    9  C1  UNL     1      30.570  28.765   8.411  1.00  0.00     0.051 C 
HETATM   10  C3  UNL     1      32.022  28.081   6.551  1.00  0.00     0.009 A 
HETATM   11  C4  UNL     1      33.183  28.170   5.817  1.00  0.00     0.001 A 
HETATM   12  C5  UNL     1      34.194  29.001   6.253  1.00  0.00     0.009 A 
HETATM   13  C6  UNL     1      34.087  29.744   7.392  1.00  0.00    -0.028 A 
HETATM   14  C7  UNL     1      35.185  30.647   7.853  1.00  0.00     0.051 C 
ENDBRANCH   6   7
ENDBRANCH   5   6
BRANCH   4  15
HETATM   15  O2  UNL     1      32.981  30.892  12.813  1.00  0.00    -0.345 OA
ATOM     16  H2  UNL     1      32.460  31.284  13.504  1.00  0.00     0.219 HD
ENDBRANCH   4  15
ENDBRANCH   2   4
ENDBRANCH   1   2
BRANCH   1  17
HETATM   17  C12 UNL     1      30.061  31.673  12.763  1.00  0.00     0.066 C 
BRANCH  17  18
HETATM   18  C13 UNL     1      29.091  31.283  11.700  1.00  0.00    -0.056 A 
HETATM   19  C14 UNL     1      28.597  32.217  10.803  1.00  0.00     0.007 A 
HETATM   20  C15 UNL     1      27.707  31.801   9.856  1.00  0.00     0.001 A 
HETATM   21  C16 UNL     1      27.297  30.469   9.779  1.00  0.00     0.000 A 
HETATM   22  C17 UNL     1      27.783  29.539  10.664  1.00  0.00     0.001 A 
HETATM   23  C18 UNL     1      28.689  29.969  11.628  1.00  0.00     0.007 A 
ENDBRANCH  17  18
ENDBRANCH   1  17
BRANCH   1  24
HETATM   24  C19 UNL     1      31.388  33.640  13.527  1.00  0.00     0.143 C 
BRANCH  24  25
HETATM   25  O3  UNL     1      31.427  32.853  14.699  1.00  0.00    -0.393 OA
ATOM     26  H3  UNL     1      30.756  33.134  15.311  1.00  0.00     0.210 HD
ENDBRANCH  24  25
BRANCH  24  27
HETATM   27  C20 UNL     1      32.767  34.151  13.272  1.00  0.00     0.059 C 
BRANCH  27  28
HETATM   28  C21 UNL     1      33.289  35.187  14.219  1.00  0.00     0.087 C 
BRANCH  28  29
HETATM   29  C22 UNL     1      34.155  34.698  15.324  1.00  0.00     0.029 C 
BRANCH  29  30
HETATM   30  C23 UNL     1      35.633  34.745  14.900  1.00  0.00    -0.021 C 
HETATM   31  C24 UNL     1      36.134  36.144  14.814  1.00  0.00     0.009 C 
HETATM   32  C25 UNL     1      36.410  34.078  16.075  1.00  0.00     0.009 C 
ENDBRANCH  29  30
ENDBRANCH  28  29
BRANCH  28  33
HETATM   33  N2  UNL     1      32.108  35.897  14.705  1.00  0.00    -0.352 N 
HETATM   34  C26 UNL     1      31.912  37.284  14.780  1.00  0.00     0.252 C 
HETATM   35  O4  UNL     1      32.852  38.048  14.404  1.00  0.00    -0.268 OA
ATOM     36  H2  UNL     1      31.334  35.316  15.027  1.00  0.00     0.163 HD
BRANCH  34  37
HETATM   37  C27 UNL     1      30.689  37.904  15.266  1.00  0.00     0.032 A 
HETATM   38  C28 UNL     1      30.528  38.304  16.567  1.00  0.00     0.019 A 
HETATM   39  C29 UNL     1      29.357  38.885  17.020  1.00  0.00     0.027 A 
HETATM   40  C30 UNL     1      28.298  39.085  16.164  1.00  0.00     0.046 A 
HETATM   41  N3  UNL     1      27.074  39.688  16.617  1.00  0.00    -0.102 NA
HETATM   42  C31 UNL     1      28.443  38.690  14.853  1.00  0.00     0.027 A 
HETATM   43  C32 UNL     1      29.638  38.101  14.410  1.00  0.00     0.019 A 
ENDBRANCH  34  37
ENDBRANCH  28  33
ENDBRANCH  27  28
ENDBRANCH  24  27
ENDBRANCH   1  24
TORSDOF 15
ENDMDL
