MODEL 17
REMARK VINA RESULT: -8.856157176      1.389      1.742
REMARK  15 active torsions:
REMARK  status: ('A' for Active; 'I' for Inactive)
REMARK    1  A    between atoms: C8_8  and  O1_9 
REMARK    2  A    between atoms: O1_9  and  C9_10 
REMARK    3  A    between atoms: C10_11  and  O2_12 
REMARK    4  A    between atoms: C10_11  and  N1_14 
REMARK    5  A    between atoms: N1_14  and  C11_16 
REMARK    6  A    between atoms: C11_16  and  C12_17 
REMARK    7  A    between atoms: C11_16  and  C19_24 
REMARK    8  A    between atoms: C12_17  and  C13_18 
REMARK    9  A    between atoms: C19_24  and  O3_25 
REMARK   10  A    between atoms: C19_24  and  C20_27 
REMARK   11  A    between atoms: C20_27  and  C21_28 
REMARK   12  A    between atoms: C21_28  and  C22_29 
REMARK   13  A    between atoms: C21_28  and  N2_33 
REMARK   14  A    between atoms: C22_29  and  C23_30 
REMARK       I    between atoms: N2_33  and  C26_35 
REMARK   15  A    between atoms: C26_35  and  C27_37 
ROOT
HETATM    1  C11 UNL     1      30.891  32.851  12.402  1.00  0.00     0.116 C 
ENDROOT
BRANCH   1   2
HETATM    2  N1  UNL     1      31.965  32.405  11.530  1.00  0.00    -0.362 N 
ATOM      3  H1  UNL     1      32.280  33.051  10.805  1.00  0.00     0.162 HD
BRANCH   2   4
HETATM    4  C10 UNL     1      32.600  31.166  11.602  1.00  0.00     0.159 C 
HETATM    5  C9  UNL     1      32.870  30.166  10.598  1.00  0.00     0.198 C 
BRANCH   5   6
HETATM    6  O1  UNL     1      32.689  30.366   9.291  1.00  0.00    -0.317 OA
BRANCH   6   7
HETATM    7  C8  UNL     1      32.977  29.712   8.154  1.00  0.00     0.086 A 
HETATM    8  C2  UNL     1      34.187  29.803   7.474  1.00  0.00    -0.028 A 
HETATM    9  C1  UNL     1      35.325  30.587   8.050  1.00  0.00     0.051 C 
HETATM   10  C3  UNL     1      34.411  29.116   6.307  1.00  0.00     0.009 A 
HETATM   11  C4  UNL     1      33.422  28.312   5.789  1.00  0.00     0.001 A 
HETATM   12  C5  UNL     1      32.219  28.211   6.455  1.00  0.00     0.009 A 
HETATM   13  C6  UNL     1      31.968  28.882   7.615  1.00  0.00    -0.028 A 
HETATM   14  C7  UNL     1      30.662  28.762   8.333  1.00  0.00     0.051 C 
ENDBRANCH   6   7
ENDBRANCH   5   6
BRANCH   4  15
HETATM   15  O2  UNL     1      33.001  30.903  12.814  1.00  0.00    -0.345 OA
ATOM     16  H2  UNL     1      33.938  30.816  12.945  1.00  0.00     0.219 HD
ENDBRANCH   4  15
ENDBRANCH   2   4
ENDBRANCH   1   2
BRANCH   1  17
HETATM   17  C12 UNL     1      30.044  31.691  12.782  1.00  0.00     0.066 C 
BRANCH  17  18
HETATM   18  C13 UNL     1      29.091  31.293  11.706  1.00  0.00    -0.056 A 
HETATM   19  C14 UNL     1      28.583  32.228  10.817  1.00  0.00     0.007 A 
HETATM   20  C15 UNL     1      27.709  31.804   9.858  1.00  0.00     0.001 A 
HETATM   21  C16 UNL     1      27.328  30.465   9.762  1.00  0.00     0.000 A 
HETATM   22  C17 UNL     1      27.828  29.535  10.639  1.00  0.00     0.001 A 
HETATM   23  C18 UNL     1      28.717  29.973  11.616  1.00  0.00     0.007 A 
ENDBRANCH  17  18
ENDBRANCH   1  17
BRANCH   1  24
HETATM   24  C19 UNL     1      31.374  33.652  13.553  1.00  0.00     0.143 C 
BRANCH  24  25
HETATM   25  O3  UNL     1      31.393  32.868  14.727  1.00  0.00    -0.393 OA
ATOM     26  H3  UNL     1      30.508  32.644  14.992  1.00  0.00     0.210 HD
ENDBRANCH  24  25
BRANCH  24  27
HETATM   27  C20 UNL     1      32.761  34.147  13.311  1.00  0.00     0.059 C 
BRANCH  27  28
HETATM   28  C21 UNL     1      33.257  35.236  14.211  1.00  0.00     0.087 C 
BRANCH  28  29
HETATM   29  C22 UNL     1      34.125  34.816  15.343  1.00  0.00     0.029 C 
BRANCH  29  30
HETATM   30  C23 UNL     1      35.585  34.693  14.873  1.00  0.00    -0.021 C 
HETATM   31  C24 UNL     1      36.255  36.021  14.812  1.00  0.00     0.009 C 
HETATM   32  C25 UNL     1      36.305  33.896  16.001  1.00  0.00     0.009 C 
ENDBRANCH  29  30
ENDBRANCH  28  29
BRANCH  28  33
HETATM   33  N2  UNL     1      32.059  35.944  14.658  1.00  0.00    -0.352 N 
HETATM   34  C26 UNL     1      31.876  37.329  14.778  1.00  0.00     0.252 C 
HETATM   35  O4  UNL     1      32.846  38.094  14.487  1.00  0.00    -0.268 OA
ATOM     36  H2  UNL     1      31.261  35.362  14.912  1.00  0.00     0.163 HD
BRANCH  34  37
HETATM   37  C27 UNL     1      30.635  37.948  15.218  1.00  0.00     0.032 A 
HETATM   38  C28 UNL     1      29.583  38.184  14.372  1.00  0.00     0.019 A 
HETATM   39  C29 UNL     1      28.411  38.781  14.800  1.00  0.00     0.027 A 
HETATM   40  C30 UNL     1      28.261  39.164  16.114  1.00  0.00     0.046 A 
HETATM   41  N3  UNL     1      27.050  39.785  16.577  1.00  0.00    -0.102 NA
HETATM   42  C31 UNL     1      29.307  38.934  16.978  1.00  0.00     0.027 A 
HETATM   43  C32 UNL     1      30.491  38.328  16.527  1.00  0.00     0.019 A 
ENDBRANCH  34  37
ENDBRANCH  28  33
ENDBRANCH  27  28
ENDBRANCH  24  27
ENDBRANCH   1  24
TORSDOF 15
ENDMDL
