MODEL 19
REMARK VINA RESULT: -8.825455194      0.786      2.011
REMARK  15 active torsions:
REMARK  status: ('A' for Active; 'I' for Inactive)
REMARK    1  A    between atoms: C8_8  and  O1_9 
REMARK    2  A    between atoms: O1_9  and  C9_10 
REMARK    3  A    between atoms: C10_11  and  O2_12 
REMARK    4  A    between atoms: C10_11  and  N1_14 
REMARK    5  A    between atoms: N1_14  and  C11_16 
REMARK    6  A    between atoms: C11_16  and  C12_17 
REMARK    7  A    between atoms: C11_16  and  C19_24 
REMARK    8  A    between atoms: C12_17  and  C13_18 
REMARK    9  A    between atoms: C19_24  and  O3_25 
REMARK   10  A    between atoms: C19_24  and  C20_27 
REMARK   11  A    between atoms: C20_27  and  C21_28 
REMARK   12  A    between atoms: C21_28  and  C22_29 
REMARK   13  A    between atoms: C21_28  and  N2_33 
REMARK   14  A    between atoms: C22_29  and  C23_30 
REMARK       I    between atoms: N2_33  and  C26_35 
REMARK   15  A    between atoms: C26_35  and  C27_37 
ROOT
HETATM    1  C11 UNL     1      31.215  32.278  12.800  1.00  0.00     0.116 C 
ENDROOT
BRANCH   1   2
HETATM    2  N1  UNL     1      32.197  31.538  12.024  1.00  0.00    -0.362 N 
ATOM      3  H1  UNL     1      32.678  30.767  12.488  1.00  0.00     0.162 HD
BRANCH   2   4
HETATM    4  C10 UNL     1      32.535  31.799  10.697  1.00  0.00     0.159 C 
HETATM    5  C9  UNL     1      33.567  31.257   9.846  1.00  0.00     0.198 C 
BRANCH   5   6
HETATM    6  O1  UNL     1      34.316  30.203  10.175  1.00  0.00    -0.317 OA
BRANCH   6   7
HETATM    7  C8  UNL     1      35.152  29.364   9.543  1.00  0.00     0.086 A 
HETATM    8  C2  UNL     1      34.765  28.177   8.928  1.00  0.00    -0.028 A 
HETATM    9  C1  UNL     1      33.318  27.803   8.842  1.00  0.00     0.051 C 
HETATM   10  C3  UNL     1      35.674  27.356   8.310  1.00  0.00     0.009 A 
HETATM   11  C4  UNL     1      37.005  27.707   8.288  1.00  0.00     0.001 A 
HETATM   12  C5  UNL     1      37.401  28.882   8.891  1.00  0.00     0.009 A 
HETATM   13  C6  UNL     1      36.520  29.716   9.514  1.00  0.00    -0.028 A 
HETATM   14  C7  UNL     1      36.958  30.991  10.160  1.00  0.00     0.051 C 
ENDBRANCH   6   7
ENDBRANCH   5   6
BRANCH   4  15
HETATM   15  O2  UNL     1      31.756  32.702  10.172  1.00  0.00    -0.345 OA
ATOM     16  H2  UNL     1      31.132  32.403   9.521  1.00  0.00     0.219 HD
ENDBRANCH   4  15
ENDBRANCH   2   4
ENDBRANCH   1   2
BRANCH   1  17
HETATM   17  C12 UNL     1      30.082  31.383  13.152  1.00  0.00     0.066 C 
BRANCH  17  18
HETATM   18  C13 UNL     1      29.155  31.144  12.008  1.00  0.00    -0.056 A 
HETATM   19  C14 UNL     1      28.729  29.865  11.686  1.00  0.00     0.007 A 
HETATM   20  C15 UNL     1      27.886  29.709  10.625  1.00  0.00     0.001 A 
HETATM   21  C16 UNL     1      27.453  30.803   9.873  1.00  0.00     0.000 A 
HETATM   22  C17 UNL     1      27.871  32.072  10.188  1.00  0.00     0.001 A 
HETATM   23  C18 UNL     1      28.732  32.225  11.270  1.00  0.00     0.007 A 
ENDBRANCH  17  18
ENDBRANCH   1  17
BRANCH   1  24
HETATM   24  C19 UNL     1      31.808  32.990  13.958  1.00  0.00     0.143 C 
BRANCH  24  25
HETATM   25  O3  UNL     1      31.702  32.206  15.128  1.00  0.00    -0.393 OA
ATOM     26  H3  UNL     1      32.480  31.672  15.242  1.00  0.00     0.210 HD
ENDBRANCH  24  25
BRANCH  24  27
HETATM   27  C20 UNL     1      33.254  33.271  13.725  1.00  0.00     0.059 C 
BRANCH  27  28
HETATM   28  C21 UNL     1      33.607  34.643  13.241  1.00  0.00     0.087 C 
BRANCH  28  29
HETATM   29  C22 UNL     1      35.039  35.032  13.338  1.00  0.00     0.029 C 
BRANCH  29  30
HETATM   30  C23 UNL     1      35.342  35.590  14.740  1.00  0.00    -0.021 C 
HETATM   31  C24 UNL     1      36.250  34.690  15.502  1.00  0.00     0.009 C 
HETATM   32  C25 UNL     1      36.143  36.901  14.487  1.00  0.00     0.009 C 
ENDBRANCH  29  30
ENDBRANCH  28  29
BRANCH  28  33
HETATM   33  N2  UNL     1      32.729  35.550  13.977  1.00  0.00    -0.352 N 
HETATM   34  C26 UNL     1      31.862  36.518  13.450  1.00  0.00     0.252 C 
HETATM   35  O4  UNL     1      31.813  36.666  12.191  1.00  0.00    -0.268 OA
ATOM     36  H2  UNL     1      32.749  35.470  14.993  1.00  0.00     0.163 HD
BRANCH  34  37
HETATM   37  C27 UNL     1      31.008  37.370  14.265  1.00  0.00     0.032 A 
HETATM   38  C28 UNL     1      31.247  37.604  15.594  1.00  0.00     0.019 A 
HETATM   39  C29 UNL     1      30.423  38.408  16.361  1.00  0.00     0.027 A 
HETATM   40  C30 UNL     1      29.319  39.012  15.804  1.00  0.00     0.046 A 
HETATM   41  N3  UNL     1      28.453  39.853  16.585  1.00  0.00    -0.102 NA
HETATM   42  C31 UNL     1      29.065  38.790  14.469  1.00  0.00     0.027 A 
HETATM   43  C32 UNL     1      29.910  37.969  13.705  1.00  0.00     0.019 A 
ENDBRANCH  34  37
ENDBRANCH  28  33
ENDBRANCH  27  28
ENDBRANCH  24  27
ENDBRANCH   1  24
TORSDOF 15
ENDMDL
