MODEL 4
REMARK VINA RESULT: -9.256846887      2.344      8.510
REMARK  15 active torsions:
REMARK  status: ('A' for Active; 'I' for Inactive)
REMARK    1  A    between atoms: C8_8  and  O1_9 
REMARK    2  A    between atoms: O1_9  and  C9_10 
REMARK    3  A    between atoms: C10_11  and  O2_12 
REMARK    4  A    between atoms: C10_11  and  N1_14 
REMARK    5  A    between atoms: N1_14  and  C11_16 
REMARK    6  A    between atoms: C11_16  and  C12_17 
REMARK    7  A    between atoms: C11_16  and  C19_24 
REMARK    8  A    between atoms: C12_17  and  C13_18 
REMARK    9  A    between atoms: C19_24  and  O3_25 
REMARK   10  A    between atoms: C19_24  and  C20_27 
REMARK   11  A    between atoms: C20_27  and  C21_28 
REMARK   12  A    between atoms: C21_28  and  C22_29 
REMARK   13  A    between atoms: C21_28  and  N2_33 
REMARK   14  A    between atoms: C22_29  and  C23_30 
REMARK       I    between atoms: N2_33  and  C26_35 
REMARK   15  A    between atoms: C26_35  and  C27_37 
ROOT
HETATM    1  C11 UNL     1      32.515  33.876  13.895  1.00  0.00     0.116 C 
ENDROOT
BRANCH   1   2
HETATM    2  N1  UNL     1      33.964  33.787  13.970  1.00  0.00    -0.362 N 
ATOM      3  H1  UNL     1      34.435  33.208  13.275  1.00  0.00     0.162 HD
BRANCH   2   4
HETATM    4  C10 UNL     1      34.762  34.428  14.916  1.00  0.00     0.159 C 
HETATM    5  C9  UNL     1      35.617  35.587  14.824  1.00  0.00     0.198 C 
BRANCH   5   6
HETATM    6  O1  UNL     1      35.644  36.400  13.766  1.00  0.00    -0.317 OA
BRANCH   6   7
HETATM    7  C8  UNL     1      36.585  36.990  13.013  1.00  0.00     0.086 A 
HETATM    8  C2  UNL     1      37.037  38.295  13.190  1.00  0.00    -0.028 A 
HETATM    9  C1  UNL     1      36.553  39.115  14.345  1.00  0.00     0.051 C 
HETATM   10  C3  UNL     1      37.995  38.843  12.374  1.00  0.00     0.009 A 
HETATM   11  C4  UNL     1      38.532  38.092  11.354  1.00  0.00     0.001 A 
HETATM   12  C5  UNL     1      38.095  36.797  11.169  1.00  0.00     0.009 A 
HETATM   13  C6  UNL     1      37.144  36.227  11.962  1.00  0.00    -0.028 A 
HETATM   14  C7  UNL     1      36.681  34.821  11.758  1.00  0.00     0.051 C 
ENDBRANCH   6   7
ENDBRANCH   5   6
BRANCH   4  15
HETATM   15  O2  UNL     1      34.698  33.838  16.077  1.00  0.00    -0.345 OA
ATOM     16  H2  UNL     1      34.574  32.896  16.072  1.00  0.00     0.219 HD
ENDBRANCH   4  15
ENDBRANCH   2   4
ENDBRANCH   1   2
BRANCH   1  17
HETATM   17  C12 UNL     1      32.129  34.779  12.780  1.00  0.00     0.066 C 
BRANCH  17  18
HETATM   18  C13 UNL     1      31.647  36.109  13.251  1.00  0.00    -0.056 A 
HETATM   19  C14 UNL     1      30.581  36.214  14.132  1.00  0.00     0.007 A 
HETATM   20  C15 UNL     1      30.182  37.459  14.522  1.00  0.00     0.001 A 
HETATM   21  C16 UNL     1      30.821  38.608  14.053  1.00  0.00     0.000 A 
HETATM   22  C17 UNL     1      31.876  38.510  13.181  1.00  0.00     0.001 A 
HETATM   23  C18 UNL     1      32.279  37.239  12.786  1.00  0.00     0.007 A 
ENDBRANCH  17  18
ENDBRANCH   1  17
BRANCH   1  24
HETATM   24  C19 UNL     1      31.852  32.550  13.860  1.00  0.00     0.143 C 
BRANCH  24  25
HETATM   25  O3  UNL     1      31.725  32.026  15.165  1.00  0.00    -0.393 OA
ATOM     26  H3  UNL     1      32.498  31.525  15.399  1.00  0.00     0.210 HD
ENDBRANCH  24  25
BRANCH  24  27
HETATM   27  C20 UNL     1      30.485  32.654  13.273  1.00  0.00     0.059 C 
BRANCH  27  28
HETATM   28  C21 UNL     1      30.083  31.589  12.300  1.00  0.00     0.087 C 
BRANCH  28  29
HETATM   29  C22 UNL     1      29.139  30.556  12.803  1.00  0.00     0.029 C 
BRANCH  29  30
HETATM   30  C23 UNL     1      28.057  30.267  11.748  1.00  0.00    -0.021 C 
HETATM   31  C24 UNL     1      28.098  31.258  10.637  1.00  0.00     0.009 C 
HETATM   32  C25 UNL     1      28.460  28.898  11.123  1.00  0.00     0.009 C 
ENDBRANCH  29  30
ENDBRANCH  28  29
BRANCH  28  33
HETATM   33  N2  UNL     1      31.337  31.014  11.817  1.00  0.00    -0.352 N 
HETATM   34  C26 UNL     1      32.160  31.497  10.790  1.00  0.00     0.252 C 
HETATM   35  O4  UNL     1      31.804  32.547  10.172  1.00  0.00    -0.268 OA
ATOM     36  H2  UNL     1      31.650  30.162  12.281  1.00  0.00     0.163 HD
BRANCH  34  37
HETATM   37  C27 UNL     1      33.406  30.864  10.385  1.00  0.00     0.032 A 
HETATM   38  C28 UNL     1      33.470  29.565   9.950  1.00  0.00     0.019 A 
HETATM   39  C29 UNL     1      34.662  28.971   9.577  1.00  0.00     0.027 A 
HETATM   40  C30 UNL     1      35.843  29.677   9.629  1.00  0.00     0.046 A 
HETATM   41  N3  UNL     1      37.090  29.076   9.243  1.00  0.00    -0.102 NA
HETATM   42  C31 UNL     1      35.797  30.983  10.061  1.00  0.00     0.027 A 
HETATM   43  C32 UNL     1      34.578  31.571  10.438  1.00  0.00     0.019 A 
ENDBRANCH  34  37
ENDBRANCH  28  33
ENDBRANCH  27  28
ENDBRANCH  24  27
ENDBRANCH   1  24
TORSDOF 15
ENDMDL
