MODEL 12
REMARK VINA RESULT: -8.945902002      1.462      1.933
REMARK  15 active torsions:
REMARK  status: ('A' for Active; 'I' for Inactive)
REMARK    1  A    between atoms: C8_8  and  O1_9 
REMARK    2  A    between atoms: O1_9  and  C9_10 
REMARK    3  A    between atoms: C10_11  and  O2_12 
REMARK    4  A    between atoms: C10_11  and  N1_14 
REMARK    5  A    between atoms: N1_14  and  C11_16 
REMARK    6  A    between atoms: C11_16  and  C12_17 
REMARK    7  A    between atoms: C11_16  and  C19_24 
REMARK    8  A    between atoms: C12_17  and  C13_18 
REMARK    9  A    between atoms: C19_24  and  O3_25 
REMARK   10  A    between atoms: C19_24  and  C20_27 
REMARK   11  A    between atoms: C20_27  and  C21_28 
REMARK   12  A    between atoms: C21_28  and  C22_29 
REMARK   13  A    between atoms: C21_28  and  N2_33 
REMARK   14  A    between atoms: C22_29  and  C23_30 
REMARK       I    between atoms: N2_33  and  C26_35 
REMARK   15  A    between atoms: C26_35  and  C27_37 
ROOT
HETATM    1  C11 UNL     1      30.990  32.695  12.480  1.00  0.00     0.116 C 
ENDROOT
BRANCH   1   2
HETATM    2  N1  UNL     1      32.022  32.298  11.537  1.00  0.00    -0.362 N 
ATOM      3  H1  UNL     1      32.187  32.909  10.737  1.00  0.00     0.162 HD
BRANCH   2   4
HETATM    4  C10 UNL     1      32.804  31.148  11.636  1.00  0.00     0.159 C 
HETATM    5  C9  UNL     1      33.562  30.415  10.651  1.00  0.00     0.198 C 
BRANCH   5   6
HETATM    6  O1  UNL     1      33.792  30.863   9.415  1.00  0.00    -0.317 OA
BRANCH   6   7
HETATM    7  C8  UNL     1      34.863  31.217   8.688  1.00  0.00     0.086 A 
HETATM    8  C2  UNL     1      35.946  31.942   9.177  1.00  0.00    -0.028 A 
HETATM    9  C1  UNL     1      36.030  32.294  10.630  1.00  0.00     0.051 C 
HETATM   10  C3  UNL     1      37.006  32.284   8.375  1.00  0.00     0.009 A 
HETATM   11  C4  UNL     1      37.010  31.903   7.053  1.00  0.00     0.001 A 
HETATM   12  C5  UNL     1      35.944  31.182   6.556  1.00  0.00     0.009 A 
HETATM   13  C6  UNL     1      34.878  30.830   7.329  1.00  0.00    -0.028 A 
HETATM   14  C7  UNL     1      33.730  30.043   6.783  1.00  0.00     0.051 C 
ENDBRANCH   6   7
ENDBRANCH   5   6
BRANCH   4  15
HETATM   15  O2  UNL     1      32.822  30.684  12.854  1.00  0.00    -0.345 OA
ATOM     16  H2  UNL     1      32.126  30.973  13.432  1.00  0.00     0.219 HD
ENDBRANCH   4  15
ENDBRANCH   2   4
ENDBRANCH   1   2
BRANCH   1  17
HETATM   17  C12 UNL     1      30.168  31.513  12.846  1.00  0.00     0.066 C 
BRANCH  17  18
HETATM   18  C13 UNL     1      29.160  31.162  11.805  1.00  0.00    -0.056 A 
HETATM   19  C14 UNL     1      28.706  29.861  11.657  1.00  0.00     0.007 A 
HETATM   20  C15 UNL     1      27.787  29.600  10.682  1.00  0.00     0.001 A 
HETATM   21  C16 UNL     1      27.307  30.611   9.847  1.00  0.00     0.000 A 
HETATM   22  C17 UNL     1      27.753  31.901   9.989  1.00  0.00     0.001 A 
HETATM   23  C18 UNL     1      28.689  32.161  10.984  1.00  0.00     0.007 A 
ENDBRANCH  17  18
ENDBRANCH   1  17
BRANCH   1  24
HETATM   24  C19 UNL     1      31.524  33.446  13.642  1.00  0.00     0.143 C 
BRANCH  24  25
HETATM   25  O3  UNL     1      31.653  32.597  14.763  1.00  0.00    -0.393 OA
ATOM     26  H3  UNL     1      31.633  31.686  14.493  1.00  0.00     0.210 HD
ENDBRANCH  24  25
BRANCH  24  27
HETATM   27  C20 UNL     1      32.872  34.008  13.337  1.00  0.00     0.059 C 
BRANCH  27  28
HETATM   28  C21 UNL     1      33.383  35.076  14.253  1.00  0.00     0.087 C 
BRANCH  28  29
HETATM   29  C22 UNL     1      34.273  34.631  15.358  1.00  0.00     0.029 C 
BRANCH  29  30
HETATM   30  C23 UNL     1      35.747  34.754  14.933  1.00  0.00    -0.021 C 
HETATM   31  C24 UNL     1      36.159  36.176  14.788  1.00  0.00     0.009 C 
HETATM   32  C25 UNL     1      36.560  34.187  16.135  1.00  0.00     0.009 C 
ENDBRANCH  29  30
ENDBRANCH  28  29
BRANCH  28  33
HETATM   33  N2  UNL     1      32.192  35.771  14.738  1.00  0.00    -0.352 N 
HETATM   34  C26 UNL     1      31.973  37.155  14.799  1.00  0.00     0.252 C 
HETATM   35  O4  UNL     1      32.897  37.931  14.410  1.00  0.00    -0.268 OA
ATOM     36  H2  UNL     1      31.431  35.180  15.072  1.00  0.00     0.163 HD
BRANCH  34  37
HETATM   37  C27 UNL     1      30.742  37.759  15.286  1.00  0.00     0.032 A 
HETATM   38  C28 UNL     1      30.576  38.157  16.588  1.00  0.00     0.019 A 
HETATM   39  C29 UNL     1      29.397  38.722  17.042  1.00  0.00     0.027 A 
HETATM   40  C30 UNL     1      28.336  38.908  16.186  1.00  0.00     0.046 A 
HETATM   41  N3  UNL     1      27.104  39.494  16.640  1.00  0.00    -0.102 NA
HETATM   42  C31 UNL     1      28.485  38.515  14.875  1.00  0.00     0.027 A 
HETATM   43  C32 UNL     1      29.688  37.942  14.431  1.00  0.00     0.019 A 
ENDBRANCH  34  37
ENDBRANCH  28  33
ENDBRANCH  27  28
ENDBRANCH  24  27
ENDBRANCH   1  24
TORSDOF 15
ENDMDL
