MODEL 3
REMARK VINA RESULT: -9.286561533      1.920     10.277
REMARK  15 active torsions:
REMARK  status: ('A' for Active; 'I' for Inactive)
REMARK    1  A    between atoms: C8_8  and  O1_9 
REMARK    2  A    between atoms: O1_9  and  C9_10 
REMARK    3  A    between atoms: C10_11  and  O2_12 
REMARK    4  A    between atoms: C10_11  and  N1_14 
REMARK    5  A    between atoms: N1_14  and  C11_16 
REMARK    6  A    between atoms: C11_16  and  C12_17 
REMARK    7  A    between atoms: C11_16  and  C19_24 
REMARK    8  A    between atoms: C12_17  and  C13_18 
REMARK    9  A    between atoms: C19_24  and  O3_25 
REMARK   10  A    between atoms: C19_24  and  C20_27 
REMARK   11  A    between atoms: C20_27  and  C21_28 
REMARK   12  A    between atoms: C21_28  and  C22_29 
REMARK   13  A    between atoms: C21_28  and  N2_33 
REMARK   14  A    between atoms: C22_29  and  C23_30 
REMARK       I    between atoms: N2_33  and  C26_35 
REMARK   15  A    between atoms: C26_35  and  C27_37 
ROOT
HETATM    1  C11 UNL     1      32.527  34.256  13.717  1.00  0.00     0.116 C 
ENDROOT
BRANCH   1   2
HETATM    2  N1  UNL     1      31.631  35.356  14.036  1.00  0.00    -0.362 N 
ATOM      3  H1  UNL     1      31.138  35.316  14.928  1.00  0.00     0.162 HD
BRANCH   2   4
HETATM    4  C10 UNL     1      31.392  36.462  13.221  1.00  0.00     0.159 C 
HETATM    5  C9  UNL     1      30.530  37.606  13.386  1.00  0.00     0.198 C 
BRANCH   5   6
HETATM    6  O1  UNL     1      29.899  37.896  14.527  1.00  0.00    -0.317 OA
BRANCH   6   7
HETATM    7  C8  UNL     1      29.330  38.979  15.079  1.00  0.00     0.086 A 
HETATM    8  C2  UNL     1      28.116  39.527  14.676  1.00  0.00    -0.028 A 
HETATM    9  C1  UNL     1      27.289  38.851  13.626  1.00  0.00     0.051 C 
HETATM   10  C3  UNL     1      27.595  40.646  15.276  1.00  0.00     0.009 A 
HETATM   11  C4  UNL     1      28.281  41.248  16.306  1.00  0.00     0.001 A 
HETATM   12  C5  UNL     1      29.484  40.714  16.717  1.00  0.00     0.009 A 
HETATM   13  C6  UNL     1      30.026  39.604  16.139  1.00  0.00    -0.028 A 
HETATM   14  C7  UNL     1      31.328  39.029  16.595  1.00  0.00     0.051 C 
ENDBRANCH   6   7
ENDBRANCH   5   6
BRANCH   4  15
HETATM   15  O2  UNL     1      32.090  36.407  12.122  1.00  0.00    -0.345 OA
ATOM     16  H2  UNL     1      32.978  36.744  12.162  1.00  0.00     0.219 HD
ENDBRANCH   4  15
ENDBRANCH   2   4
ENDBRANCH   1   2
BRANCH   1  17
HETATM   17  C12 UNL     1      33.803  34.422  14.458  1.00  0.00     0.066 C 
BRANCH  17  18
HETATM   18  C13 UNL     1      34.939  34.818  13.577  1.00  0.00    -0.056 A 
HETATM   19  C14 UNL     1      35.380  33.985  12.559  1.00  0.00     0.007 A 
HETATM   20  C15 UNL     1      36.428  34.400  11.790  1.00  0.00     0.001 A 
HETATM   21  C16 UNL     1      37.050  35.630  12.010  1.00  0.00     0.000 A 
HETATM   22  C17 UNL     1      36.617  36.458  13.016  1.00  0.00     0.001 A 
HETATM   23  C18 UNL     1      35.549  36.030  13.798  1.00  0.00     0.007 A 
ENDBRANCH  17  18
ENDBRANCH   1  17
BRANCH   1  24
HETATM   24  C19 UNL     1      31.894  32.925  13.887  1.00  0.00     0.143 C 
BRANCH  24  25
HETATM   25  O3  UNL     1      31.756  32.615  15.257  1.00  0.00    -0.393 OA
ATOM     26  H3  UNL     1      31.637  31.680  15.376  1.00  0.00     0.210 HD
ENDBRANCH  24  25
BRANCH  24  27
HETATM   27  C20 UNL     1      30.534  32.901  13.273  1.00  0.00     0.059 C 
BRANCH  27  28
HETATM   28  C21 UNL     1      30.255  31.807  12.290  1.00  0.00     0.087 C 
BRANCH  28  29
HETATM   29  C22 UNL     1      29.395  30.691  12.768  1.00  0.00     0.029 C 
BRANCH  29  30
HETATM   30  C23 UNL     1      28.061  30.685  12.001  1.00  0.00    -0.021 C 
HETATM   31  C24 UNL     1      28.003  31.779  10.994  1.00  0.00     0.009 C 
HETATM   32  C25 UNL     1      28.068  29.352  11.194  1.00  0.00     0.009 C 
ENDBRANCH  29  30
ENDBRANCH  28  29
BRANCH  28  33
HETATM   33  N2  UNL     1      31.568  31.349  11.839  1.00  0.00    -0.352 N 
HETATM   34  C26 UNL     1      31.892  30.752  10.612  1.00  0.00     0.252 C 
HETATM   35  O4  UNL     1      30.963  30.557   9.770  1.00  0.00    -0.268 OA
ATOM     36  H2  UNL     1      32.339  31.478  12.494  1.00  0.00     0.163 HD
BRANCH  34  37
HETATM   37  C27 UNL     1      33.237  30.340  10.242  1.00  0.00     0.032 A 
HETATM   38  C28 UNL     1      33.530  29.075   9.802  1.00  0.00     0.019 A 
HETATM   39  C29 UNL     1      34.815  28.692   9.462  1.00  0.00     0.027 A 
HETATM   40  C30 UNL     1      35.859  29.584   9.553  1.00  0.00     0.046 A 
HETATM   41  N3  UNL     1      37.200  29.204   9.203  1.00  0.00    -0.102 NA
HETATM   42  C31 UNL     1      35.583  30.859   9.992  1.00  0.00     0.027 A 
HETATM   43  C32 UNL     1      34.273  31.232  10.335  1.00  0.00     0.019 A 
ENDBRANCH  34  37
ENDBRANCH  28  33
ENDBRANCH  27  28
ENDBRANCH  24  27
ENDBRANCH   1  24
TORSDOF 15
ENDMDL
