MODEL 2
REMARK VINA RESULT: -9.425217668      2.344      8.564
REMARK  15 active torsions:
REMARK  status: ('A' for Active; 'I' for Inactive)
REMARK    1  A    between atoms: C8_8  and  O1_9 
REMARK    2  A    between atoms: O1_9  and  C9_10 
REMARK    3  A    between atoms: C10_11  and  O2_12 
REMARK    4  A    between atoms: C10_11  and  N1_14 
REMARK    5  A    between atoms: N1_14  and  C11_16 
REMARK    6  A    between atoms: C11_16  and  C12_17 
REMARK    7  A    between atoms: C11_16  and  C19_24 
REMARK    8  A    between atoms: C12_17  and  C13_18 
REMARK    9  A    between atoms: C19_24  and  O3_25 
REMARK   10  A    between atoms: C19_24  and  C20_27 
REMARK   11  A    between atoms: C20_27  and  C21_28 
REMARK   12  A    between atoms: C21_28  and  C22_29 
REMARK   13  A    between atoms: C21_28  and  N2_33 
REMARK   14  A    between atoms: C22_29  and  C23_30 
REMARK       I    between atoms: N2_33  and  C26_35 
REMARK   15  A    between atoms: C26_35  and  C27_37 
ROOT
HETATM    1  C11 UNL     1      32.314  34.122  13.829  1.00  0.00     0.116 C 
ENDROOT
BRANCH   1   2
HETATM    2  N1  UNL     1      33.762  34.178  13.718  1.00  0.00    -0.362 N 
ATOM      3  H1  UNL     1      34.177  33.889  12.832  1.00  0.00     0.162 HD
BRANCH   2   4
HETATM    4  C10 UNL     1      34.631  34.596  14.725  1.00  0.00     0.159 C 
HETATM    5  C9  UNL     1      35.602  35.662  14.774  1.00  0.00     0.198 C 
BRANCH   5   6
HETATM    6  O1  UNL     1      35.707  36.607  13.837  1.00  0.00    -0.317 OA
BRANCH   6   7
HETATM    7  C8  UNL     1      36.648  37.033  12.981  1.00  0.00     0.086 A 
HETATM    8  C2  UNL     1      37.224  36.250  11.985  1.00  0.00    -0.028 A 
HETATM    9  C1  UNL     1      36.730  34.859  11.732  1.00  0.00     0.051 C 
HETATM   10  C3  UNL     1      38.194  36.745  11.150  1.00  0.00     0.009 A 
HETATM   11  C4  UNL     1      38.614  38.048  11.290  1.00  0.00     0.001 A 
HETATM   12  C5  UNL     1      38.050  38.835  12.272  1.00  0.00     0.009 A 
HETATM   13  C6  UNL     1      37.086  38.370  13.116  1.00  0.00    -0.028 A 
HETATM   14  C7  UNL     1      36.476  39.233  14.174  1.00  0.00     0.051 C 
ENDBRANCH   6   7
ENDBRANCH   5   6
BRANCH   4  15
HETATM   15  O2  UNL     1      34.514  33.860  15.795  1.00  0.00    -0.345 OA
ATOM     16  H2  UNL     1      34.701  32.933  15.699  1.00  0.00     0.219 HD
ENDBRANCH   4  15
ENDBRANCH   2   4
ENDBRANCH   1   2
BRANCH   1  17
HETATM   17  C12 UNL     1      31.701  34.995  12.795  1.00  0.00     0.066 C 
BRANCH  17  18
HETATM   18  C13 UNL     1      31.293  36.326  13.329  1.00  0.00    -0.056 A 
HETATM   19  C14 UNL     1      30.345  36.435  14.336  1.00  0.00     0.007 A 
HETATM   20  C15 UNL     1      30.008  37.681  14.779  1.00  0.00     0.001 A 
HETATM   21  C16 UNL     1      30.596  38.827  14.241  1.00  0.00     0.000 A 
HETATM   22  C17 UNL     1      31.534  38.726  13.245  1.00  0.00     0.001 A 
HETATM   23  C18 UNL     1      31.874  37.454  12.796  1.00  0.00     0.007 A 
ENDBRANCH  17  18
ENDBRANCH   1  17
BRANCH   1  24
HETATM   24  C19 UNL     1      31.786  32.735  13.842  1.00  0.00     0.143 C 
BRANCH  24  25
HETATM   25  O3  UNL     1      31.790  32.219  15.156  1.00  0.00    -0.393 OA
ATOM     26  H3  UNL     1      32.331  31.439  15.205  1.00  0.00     0.210 HD
ENDBRANCH  24  25
BRANCH  24  27
HETATM   27  C20 UNL     1      30.383  32.696  13.338  1.00  0.00     0.059 C 
BRANCH  27  28
HETATM   28  C21 UNL     1      30.047  31.618  12.354  1.00  0.00     0.087 C 
BRANCH  28  29
HETATM   29  C22 UNL     1      29.137  30.544  12.834  1.00  0.00     0.029 C 
BRANCH  29  30
HETATM   30  C23 UNL     1      28.069  30.240  11.769  1.00  0.00    -0.021 C 
HETATM   31  C24 UNL     1      28.095  31.239  10.667  1.00  0.00     0.009 C 
HETATM   32  C25 UNL     1      28.505  28.885  11.137  1.00  0.00     0.009 C 
ENDBRANCH  29  30
ENDBRANCH  28  29
BRANCH  28  33
HETATM   33  N2  UNL     1      31.334  31.099  11.896  1.00  0.00    -0.352 N 
HETATM   34  C26 UNL     1      32.135  31.591  10.855  1.00  0.00     0.252 C 
HETATM   35  O4  UNL     1      31.723  32.596  10.199  1.00  0.00    -0.268 OA
ATOM     36  H2  UNL     1      31.693  30.284  12.392  1.00  0.00     0.163 HD
BRANCH  34  37
HETATM   37  C27 UNL     1      33.417  31.016  10.477  1.00  0.00     0.032 A 
HETATM   38  C28 UNL     1      34.598  31.702  10.590  1.00  0.00     0.019 A 
HETATM   39  C29 UNL     1      35.811  31.148  10.218  1.00  0.00     0.027 A 
HETATM   40  C30 UNL     1      35.871  29.868   9.718  1.00  0.00     0.046 A 
HETATM   41  N3  UNL     1      37.122  29.276   9.328  1.00  0.00    -0.102 NA
HETATM   42  C31 UNL     1      34.694  29.164   9.599  1.00  0.00     0.027 A 
HETATM   43  C32 UNL     1      33.471  29.741   9.979  1.00  0.00     0.019 A 
ENDBRANCH  34  37
ENDBRANCH  28  33
ENDBRANCH  27  28
ENDBRANCH  24  27
ENDBRANCH   1  24
TORSDOF 15
ENDMDL
