MODEL 6
REMARK VINA RESULT: -6.084222595      4.900      6.514
REMARK  3 active torsions:
REMARK  status: ('A' for Active; 'I' for Inactive)
REMARK    1  A    between atoms: O1_1  and  C1_3 
REMARK    2  A    between atoms: C5_7  and  C6_8 
REMARK    3  A    between atoms: C12_15  and  O2_16 
ROOT
HETATM    1  C1  UNL     1      25.216  23.431  13.372  1.00  0.00     0.099 A 
HETATM    2  C2  UNL     1      24.659  23.317  14.614  1.00  0.00     0.039 A 
HETATM    3  C3  UNL     1      24.570  24.416  15.432  1.00  0.00     0.004 A 
HETATM    4  C4  UNL     1      25.046  25.639  14.986  1.00  0.00     0.015 A 
HETATM    5  C5  UNL     1      25.612  25.788  13.740  1.00  0.00     0.012 A 
HETATM    6  C12 UNL     1      25.692  24.674  12.938  1.00  0.00     0.110 A 
ENDROOT
BRANCH   5   7
HETATM    7  C6  UNL     1      26.098  27.077  13.248  1.00  0.00    -0.001 A 
HETATM    8  C7  UNL     1      25.272  27.941  12.529  1.00  0.00     0.014 A 
HETATM    9  C8  UNL     1      25.779  29.150  12.105  1.00  0.00     0.001 A 
HETATM   10  C9  UNL     1      27.074  29.541  12.365  1.00  0.00     0.002 A 
HETATM   11  C10 UNL     1      27.901  28.699  13.072  1.00  0.00     0.024 A 
HETATM   12  C11 UNL     1      27.390  27.468  13.506  1.00  0.00     0.045 A 
HETATM   13 CL1  UNL     1      28.406  26.335  14.411  1.00  0.00    -0.083 Cl
ENDBRANCH   5   7
BRANCH   6  14
HETATM   14  O2  UNL     1      26.261  24.793  11.673  1.00  0.00    -0.357 OA
ATOM     15  H2  UNL     1      26.970  24.215  11.418  1.00  0.00     0.217 HD
ENDBRANCH   6  14
BRANCH   1  16
HETATM   16  O1  UNL     1      25.306  22.331  12.557  1.00  0.00    -0.358 OA
ATOM     17  H1  UNL     1      24.698  22.223  11.835  1.00  0.00     0.217 HD
ENDBRANCH   1  16
TORSDOF 3
ENDMDL
