MODEL 7
REMARK VINA RESULT: -5.992352277      3.574      5.938
REMARK  3 active torsions:
REMARK  status: ('A' for Active; 'I' for Inactive)
REMARK    1  A    between atoms: O1_1  and  C1_3 
REMARK    2  A    between atoms: C5_7  and  C6_8 
REMARK    3  A    between atoms: C12_15  and  O2_16 
ROOT
HETATM    1  C1  UNL     1      27.061  25.999  15.170  1.00  0.00     0.099 A 
HETATM    2  C2  UNL     1      26.497  26.634  14.100  1.00  0.00     0.039 A 
HETATM    3  C3  UNL     1      25.133  26.656  13.954  1.00  0.00     0.004 A 
HETATM    4  C4  UNL     1      24.334  26.032  14.898  1.00  0.00     0.015 A 
HETATM    5  C5  UNL     1      24.870  25.383  15.988  1.00  0.00     0.012 A 
HETATM    6  C12 UNL     1      26.240  25.372  16.115  1.00  0.00     0.110 A 
ENDROOT
BRANCH   5   7
HETATM    7  C6  UNL     1      24.039  24.739  17.005  1.00  0.00    -0.001 A 
HETATM    8  C7  UNL     1      23.603  25.431  18.135  1.00  0.00     0.014 A 
HETATM    9  C8  UNL     1      22.808  24.778  19.051  1.00  0.00     0.001 A 
HETATM   10  C9  UNL     1      22.424  23.465  18.895  1.00  0.00     0.002 A 
HETATM   11  C10 UNL     1      22.847  22.768  17.786  1.00  0.00     0.024 A 
HETATM   12  C11 UNL     1      23.656  23.428  16.850  1.00  0.00     0.045 A 
HETATM   13 CL1  UNL     1      24.243  22.585  15.407  1.00  0.00    -0.083 Cl
ENDBRANCH   5   7
BRANCH   6  14
HETATM   14  O2  UNL     1      26.811  24.723  17.205  1.00  0.00    -0.357 OA
ATOM     15  H2  UNL     1      26.326  24.650  18.019  1.00  0.00     0.217 HD
ENDBRANCH   6  14
BRANCH   1  16
HETATM   16  O1  UNL     1      28.426  25.976  15.314  1.00  0.00    -0.358 OA
ATOM     17  H1  UNL     1      28.822  26.262  16.128  1.00  0.00     0.217 HD
ENDBRANCH   1  16
TORSDOF 3
ENDMDL
