MODEL 5
REMARK VINA RESULT: -6.140920170      3.280      5.510
REMARK  3 active torsions:
REMARK  status: ('A' for Active; 'I' for Inactive)
REMARK    1  A    between atoms: O1_1  and  C1_3 
REMARK    2  A    between atoms: C5_7  and  C6_8 
REMARK    3  A    between atoms: C12_15  and  O2_16 
ROOT
HETATM    1  C1  UNL     1      26.797  24.858  14.351  1.00  0.00     0.099 A 
HETATM    2  C2  UNL     1      26.323  25.891  13.592  1.00  0.00     0.039 A 
HETATM    3  C3  UNL     1      25.075  26.408  13.837  1.00  0.00     0.004 A 
HETATM    4  C4  UNL     1      24.304  25.876  14.859  1.00  0.00     0.015 A 
HETATM    5  C5  UNL     1      24.753  24.836  15.642  1.00  0.00     0.012 A 
HETATM    6  C12 UNL     1      26.005  24.333  15.379  1.00  0.00     0.110 A 
ENDROOT
BRANCH   5   7
HETATM    7  C6  UNL     1      23.959  24.280  16.738  1.00  0.00    -0.001 A 
HETATM    8  C7  UNL     1      23.185  23.133  16.568  1.00  0.00     0.014 A 
HETATM    9  C8  UNL     1      22.472  22.645  17.640  1.00  0.00     0.001 A 
HETATM   10  C9  UNL     1      22.494  23.245  18.879  1.00  0.00     0.002 A 
HETATM   11  C10 UNL     1      23.253  24.378  19.063  1.00  0.00     0.024 A 
HETATM   12  C11 UNL     1      23.981  24.879  17.975  1.00  0.00     0.045 A 
HETATM   13 CL1  UNL     1      24.969  26.340  18.142  1.00  0.00    -0.083 Cl
ENDBRANCH   5   7
BRANCH   6  14
HETATM   14  O2  UNL     1      26.485  23.280  16.152  1.00  0.00    -0.357 OA
ATOM     15  H2  UNL     1      27.046  23.460  16.897  1.00  0.00     0.217 HD
ENDBRANCH   6  14
BRANCH   1  16
HETATM   16  O1  UNL     1      28.044  24.341  14.103  1.00  0.00    -0.358 OA
ATOM     17  H1  UNL     1      28.324  23.547  14.541  1.00  0.00     0.217 HD
ENDBRANCH   1  16
TORSDOF 3
ENDMDL
