MODEL 1
REMARK VINA RESULT: -7.596981913      0.000      0.000
REMARK  3 active torsions:
REMARK  status: ('A' for Active; 'I' for Inactive)
REMARK    1  A    between atoms: O1_1  and  C1_3 
REMARK    2  A    between atoms: C5_7  and  C6_8 
REMARK    3  A    between atoms: C12_15  and  O2_16 
ROOT
HETATM    1  C1  UNL     1      20.396  20.944  16.267  1.00  0.00     0.099 A 
HETATM    2  C2  UNL     1      20.901  19.675  16.307  1.00  0.00     0.039 A 
HETATM    3  C3  UNL     1      22.244  19.475  16.506  1.00  0.00     0.004 A 
HETATM    4  C4  UNL     1      23.082  20.568  16.666  1.00  0.00     0.015 A 
HETATM    5  C5  UNL     1      22.605  21.859  16.631  1.00  0.00     0.012 A 
HETATM    6  C12 UNL     1      21.257  22.037  16.430  1.00  0.00     0.110 A 
ENDROOT
BRANCH   5   7
HETATM    7  C6  UNL     1      23.473  23.021  16.821  1.00  0.00    -0.001 A 
HETATM    8  C7  UNL     1      24.301  23.487  15.800  1.00  0.00     0.014 A 
HETATM    9  C8  UNL     1      25.084  24.597  16.031  1.00  0.00     0.001 A 
HETATM   10  C9  UNL     1      25.082  25.267  17.233  1.00  0.00     0.002 A 
HETATM   11  C10 UNL     1      24.271  24.819  18.251  1.00  0.00     0.024 A 
HETATM   12  C11 UNL     1      23.472  23.691  18.022  1.00  0.00     0.045 A 
HETATM   13 CL1  UNL     1      22.415  23.056  19.293  1.00  0.00    -0.083 Cl
ENDBRANCH   5   7
BRANCH   6  14
HETATM   14  O2  UNL     1      20.746  23.331  16.388  1.00  0.00    -0.357 OA
ATOM     15  H2  UNL     1      20.604  23.756  15.551  1.00  0.00     0.217 HD
ENDBRANCH   6  14
BRANCH   1  16
HETATM   16  O1  UNL     1      19.054  21.143  16.066  1.00  0.00    -0.358 OA
ATOM     17  H1  UNL     1      18.656  20.898  15.239  1.00  0.00     0.217 HD
ENDBRANCH   1  16
TORSDOF 3
ENDMDL
