MODEL 2
REMARK VINA RESULT: -7.053477006      1.378      1.841
REMARK  3 active torsions:
REMARK  status: ('A' for Active; 'I' for Inactive)
REMARK    1  A    between atoms: O1_1  and  C1_3 
REMARK    2  A    between atoms: C5_7  and  C6_8 
REMARK    3  A    between atoms: C12_15  and  O2_16 
ROOT
HETATM    1  C1  UNL     1      20.639  20.661  16.143  1.00  0.00     0.099 A 
HETATM    2  C2  UNL     1      21.343  19.492  16.218  1.00  0.00     0.039 A 
HETATM    3  C3  UNL     1      22.659  19.505  16.608  1.00  0.00     0.004 A 
HETATM    4  C4  UNL     1      23.265  20.710  16.927  1.00  0.00     0.015 A 
HETATM    5  C5  UNL     1      22.584  21.905  16.862  1.00  0.00     0.012 A 
HETATM    6  C12 UNL     1      21.267  21.870  16.468  1.00  0.00     0.110 A 
ENDROOT
BRANCH   5   7
HETATM    7  C6  UNL     1      23.204  23.182  17.217  1.00  0.00    -0.001 A 
HETATM    8  C7  UNL     1      22.880  23.845  18.400  1.00  0.00     0.014 A 
HETATM    9  C8  UNL     1      23.508  25.036  18.691  1.00  0.00     0.001 A 
HETATM   10  C9  UNL     1      24.449  25.599  17.857  1.00  0.00     0.002 A 
HETATM   11  C10 UNL     1      24.780  24.957  16.686  1.00  0.00     0.024 A 
HETATM   12  C11 UNL     1      24.143  23.744  16.386  1.00  0.00     0.045 A 
HETATM   13 CL1  UNL     1      24.515  22.873  14.889  1.00  0.00    -0.083 Cl
ENDBRANCH   5   7
BRANCH   6  14
HETATM   14  O2  UNL     1      20.554  23.062  16.391  1.00  0.00    -0.357 OA
ATOM     15  H2  UNL     1      20.852  23.822  16.877  1.00  0.00     0.217 HD
ENDBRANCH   6  14
BRANCH   1  16
HETATM   16  O1  UNL     1      19.324  20.646  15.750  1.00  0.00    -0.358 OA
ATOM     17  H1  UNL     1      18.966  21.379  15.263  1.00  0.00     0.217 HD
ENDBRANCH   1  16
TORSDOF 3
ENDMDL
