MODEL 15
REMARK VINA RESULT: -4.592377811      1.510      2.107
REMARK  0 active torsions:
REMARK  status: ('A' for Active; 'I' for Inactive)
ROOT
HETATM    1  N1  UNL     1      27.679   4.573   1.788  1.00  0.00    -0.099 NA
HETATM    2  C1  UNL     1      27.354   5.456   2.828  1.00  0.00     0.084 A 
HETATM    3  C2  UNL     1      27.890   6.734   2.934  1.00  0.00     0.030 A 
HETATM    4  C3  UNL     1      27.549   7.576   3.970  1.00  0.00     0.002 A 
HETATM    5  C4  UNL     1      26.660   7.195   4.953  1.00  0.00     0.003 A 
HETATM    6  C5  UNL     1      26.124   5.929   4.855  1.00  0.00     0.044 A 
HETATM    7  C6  UNL     1      26.462   5.082   3.821  1.00  0.00     0.140 A 
HETATM    8  F1  UNL     1      25.920   3.845   3.749  1.00  0.00    -0.204 F 
ENDROOT
TORSDOF 0
ENDMDL
