MODEL 18
REMARK VINA RESULT: -3.060514632      1.329      1.645
REMARK  0 active torsions:
REMARK  status: ('A' for Active; 'I' for Inactive)
ROOT
HETATM    1  N1  UNL     1      29.012   7.813   3.788  1.00  0.00    -0.099 NA
HETATM    2  C1  UNL     1      27.801   7.114   3.883  1.00  0.00     0.084 A 
HETATM    3  C2  UNL     1      27.101   6.966   5.076  1.00  0.00     0.030 A 
HETATM    4  C3  UNL     1      25.912   6.272   5.134  1.00  0.00     0.002 A 
HETATM    5  C4  UNL     1      25.356   5.689   4.015  1.00  0.00     0.003 A 
HETATM    6  C5  UNL     1      26.044   5.831   2.829  1.00  0.00     0.044 A 
HETATM    7  C6  UNL     1      27.233   6.523   2.764  1.00  0.00     0.140 A 
HETATM    8  F1  UNL     1      27.886   6.648   1.587  1.00  0.00    -0.204 F 
ENDROOT
TORSDOF 0
ENDMDL
