MODEL 1
REMARK VINA RESULT: -6.073593005      0.000      0.000
REMARK  0 active torsions:
REMARK  status: ('A' for Active; 'I' for Inactive)
ROOT
HETATM    1  N1  UNL     1      27.821   7.296   2.928  1.00  0.00    -0.099 NA
HETATM    2  C1  UNL     1      27.062   6.714   3.953  1.00  0.00     0.084 A 
HETATM    3  C2  UNL     1      26.933   7.279   5.217  1.00  0.00     0.030 A 
HETATM    4  C3  UNL     1      26.178   6.680   6.202  1.00  0.00     0.002 A 
HETATM    5  C4  UNL     1      25.513   5.492   5.986  1.00  0.00     0.003 A 
HETATM    6  C5  UNL     1      25.636   4.925   4.735  1.00  0.00     0.044 A 
HETATM    7  C6  UNL     1      26.390   5.519   3.746  1.00  0.00     0.140 A 
HETATM    8  F1  UNL     1      26.492   4.941   2.528  1.00  0.00    -0.204 F 
ENDROOT
TORSDOF 0
ENDMDL
