MODEL 7
REMARK VINA RESULT: -5.344221242      1.138      1.561
REMARK  0 active torsions:
REMARK  status: ('A' for Active; 'I' for Inactive)
ROOT
HETATM    1  N1  UNL     1      27.071   5.392   2.302  1.00  0.00    -0.099 NA
HETATM    2  C1  UNL     1      26.853   5.925   3.580  1.00  0.00     0.084 A 
HETATM    3  C2  UNL     1      27.453   7.098   4.026  1.00  0.00     0.030 A 
HETATM    4  C3  UNL     1      27.217   7.594   5.290  1.00  0.00     0.002 A 
HETATM    5  C4  UNL     1      26.377   6.954   6.176  1.00  0.00     0.003 A 
HETATM    6  C5  UNL     1      25.779   5.790   5.742  1.00  0.00     0.044 A 
HETATM    7  C6  UNL     1      26.011   5.289   4.479  1.00  0.00     0.140 A 
HETATM    8  F1  UNL     1      25.410   4.146   4.079  1.00  0.00    -0.204 F 
ENDROOT
TORSDOF 0
ENDMDL
