MODEL 5
REMARK VINA RESULT: -5.641292258      1.110      1.393
REMARK  0 active torsions:
REMARK  status: ('A' for Active; 'I' for Inactive)
ROOT
HETATM    1  N1  UNL     1      28.304   8.069   4.837  1.00  0.00    -0.099 NA
HETATM    2  C1  UNL     1      27.297   7.095   4.887  1.00  0.00     0.084 A 
HETATM    3  C2  UNL     1      26.602   6.781   6.049  1.00  0.00     0.030 A 
HETATM    4  C3  UNL     1      25.616   5.817   6.063  1.00  0.00     0.002 A 
HETATM    5  C4  UNL     1      25.270   5.117   4.928  1.00  0.00     0.003 A 
HETATM    6  C5  UNL     1      25.954   5.423   3.770  1.00  0.00     0.044 A 
HETATM    7  C6  UNL     1      26.940   6.385   3.750  1.00  0.00     0.140 A 
HETATM    8  F1  UNL     1      27.595   6.665   2.601  1.00  0.00    -0.204 F 
ENDROOT
TORSDOF 0
ENDMDL
