MODEL 1
REMARK VINA RESULT: -11.697418221      0.000      0.000
REMARK  2 active torsions:
REMARK  status: ('A' for Active; 'I' for Inactive)
REMARK    1  A    between atoms: C9_9  and  O1_10 
REMARK    2  A    between atoms: C18_20  and  O2_21 
ROOT
HETATM    1  C1  UNL     1      24.839  11.000  30.934  1.00  0.00     0.018 C 
HETATM    2  C2  UNL     1      25.039  11.624  32.294  1.00  0.00    -0.014 C 
HETATM    3  C3  UNL     1      25.100  10.637  33.398  1.00  0.00     0.013 C 
HETATM    4  C4  UNL     1      23.831   9.783  33.307  1.00  0.00     0.010 C 
HETATM    5  C5  UNL     1      22.672  10.682  33.613  1.00  0.00     0.023 C 
HETATM    6  C6  UNL     1      21.370   9.988  33.554  1.00  0.00    -0.047 A 
HETATM    7  C7  UNL     1      21.225   8.618  33.524  1.00  0.00     0.011 A 
HETATM    8  C8  UNL     1      19.998   7.996  33.469  1.00  0.00     0.037 A 
HETATM    9  C9  UNL     1      18.846   8.783  33.442  1.00  0.00     0.066 A 
HETATM   10  C10 UNL     1      18.989  10.155  33.472  1.00  0.00     0.044 A 
HETATM   11  C11 UNL     1      20.233  10.762  33.528  1.00  0.00    -0.049 A 
HETATM   12  C12 UNL     1      20.246  12.246  33.556  1.00  0.00     0.039 C 
HETATM   13  C13 UNL     1      21.603  12.839  33.393  1.00  0.00     0.010 C 
HETATM   14  C14 UNL     1      22.579  11.878  32.697  1.00  0.00    -0.001 C 
HETATM   15  C15 UNL     1      23.877  12.579  32.611  1.00  0.00     0.001 C 
HETATM   16  C16 UNL     1      24.027  13.555  31.502  1.00  0.00     0.008 C 
HETATM   17  C17 UNL     1      25.535  13.727  31.388  1.00  0.00     0.033 C 
HETATM   18  C18 UNL     1      26.144  12.621  32.252  1.00  0.00     0.126 C 
ENDROOT
BRANCH   9  19
HETATM   19  O1  UNL     1      17.620   8.175  33.387  1.00  0.00    -0.361 OA
ATOM     20  H1  UNL     1      16.839   8.710  33.303  1.00  0.00     0.217 HD
ENDBRANCH   9  19
BRANCH  18  21
HETATM   21  O2  UNL     1      27.324  12.151  31.729  1.00  0.00    -0.395 OA
ATOM     22  H2  UNL     1      27.664  11.371  32.151  1.00  0.00     0.210 HD
ENDBRANCH  18  21
TORSDOF 2
ENDMDL
