MODEL 2
REMARK VINA RESULT: -9.817709917      1.343      6.311
REMARK  2 active torsions:
REMARK  status: ('A' for Active; 'I' for Inactive)
REMARK    1  A    between atoms: C9_9  and  O1_10 
REMARK    2  A    between atoms: C18_20  and  O2_21 
ROOT
HETATM    1  C1  UNL     1      19.546  11.502  32.294  1.00  0.00     0.018 C 
HETATM    2  C2  UNL     1      20.081  11.325  33.694  1.00  0.00    -0.014 C 
HETATM    3  C3  UNL     1      20.853  12.490  34.187  1.00  0.00     0.013 C 
HETATM    4  C4  UNL     1      21.949  12.773  33.155  1.00  0.00     0.010 C 
HETATM    5  C5  UNL     1      22.889  11.608  33.180  1.00  0.00     0.023 C 
HETATM    6  C6  UNL     1      24.002  11.742  32.219  1.00  0.00    -0.047 A 
HETATM    7  C7  UNL     1      24.336  12.916  31.580  1.00  0.00     0.011 A 
HETATM    8  C8  UNL     1      25.379  13.014  30.688  1.00  0.00     0.037 A 
HETATM    9  C9  UNL     1      26.138  11.874  30.415  1.00  0.00     0.066 A 
HETATM   10  C10 UNL     1      25.807  10.697  31.054  1.00  0.00     0.044 A 
HETATM   11  C11 UNL     1      24.752  10.620  31.948  1.00  0.00    -0.049 A 
HETATM   12  C12 UNL     1      24.504   9.294  32.567  1.00  0.00     0.039 C 
HETATM   13  C13 UNL     1      23.234   9.220  33.342  1.00  0.00     0.010 C 
HETATM   14  C14 UNL     1      22.218  10.286  32.899  1.00  0.00    -0.001 C 
HETATM   15  C15 UNL     1      21.021  10.111  33.748  1.00  0.00     0.001 C 
HETATM   16  C16 UNL     1      20.083   9.031  33.351  1.00  0.00     0.008 C 
HETATM   17  C17 UNL     1      18.795   9.403  34.071  1.00  0.00     0.033 C 
HETATM   18  C18 UNL     1      19.012  10.823  34.600  1.00  0.00     0.126 C 
ENDROOT
BRANCH   9  19
HETATM   19  O1  UNL     1      27.180  11.959  29.528  1.00  0.00    -0.361 OA
ATOM     20  H1  UNL     1      28.043  12.197  29.846  1.00  0.00     0.217 HD
ENDBRANCH   9  19
BRANCH  18  21
HETATM   21  O2  UNL     1      17.853  11.560  34.586  1.00  0.00    -0.395 OA
ATOM     22  H2  UNL     1      17.063  11.056  34.427  1.00  0.00     0.210 HD
ENDBRANCH  18  21
TORSDOF 2
ENDMDL
