MODEL 12
REMARK VINA RESULT: -7.695124554      1.047      1.114
REMARK  2 active torsions:
REMARK  status: ('A' for Active; 'I' for Inactive)
REMARK    1  A    between atoms: C9_9  and  O1_10 
REMARK    2  A    between atoms: C18_20  and  O2_21 
ROOT
HETATM    1  C1  UNL     1      23.931  12.411  30.099  1.00  0.00     0.018 C 
HETATM    2  C2  UNL     1      24.704  12.109  31.360  1.00  0.00    -0.014 C 
HETATM    3  C3  UNL     1      24.860  10.660  31.630  1.00  0.00     0.013 C 
HETATM    4  C4  UNL     1      23.455  10.049  31.623  1.00  0.00     0.010 C 
HETATM    5  C5  UNL     1      22.721  10.616  32.799  1.00  0.00     0.023 C 
HETATM    6  C6  UNL     1      21.337  10.115  32.914  1.00  0.00    -0.047 A 
HETATM    7  C7  UNL     1      20.848   9.030  32.222  1.00  0.00     0.011 A 
HETATM    8  C8  UNL     1      19.552   8.583  32.347  1.00  0.00     0.037 A 
HETATM    9  C9  UNL     1      18.690   9.257  33.215  1.00  0.00     0.066 A 
HETATM   10  C10 UNL     1      19.178  10.345  33.910  1.00  0.00     0.044 A 
HETATM   11  C11 UNL     1      20.486  10.778  33.769  1.00  0.00    -0.049 A 
HETATM   12  C12 UNL     1      20.883  11.959  34.575  1.00  0.00     0.039 C 
HETATM   13  C13 UNL     1      22.222  12.508  34.219  1.00  0.00     0.010 C 
HETATM   14  C14 UNL     1      22.649  12.124  32.793  1.00  0.00    -0.001 C 
HETATM   15  C15 UNL     1      23.985  12.716  32.576  1.00  0.00     0.001 C 
HETATM   16  C16 UNL     1      24.017  14.155  32.212  1.00  0.00     0.008 C 
HETATM   17  C17 UNL     1      25.402  14.332  31.606  1.00  0.00     0.033 C 
HETATM   18  C18 UNL     1      25.953  12.918  31.411  1.00  0.00     0.126 C 
ENDROOT
BRANCH   9  19
HETATM   19  O1  UNL     1      17.398   8.822  33.348  1.00  0.00    -0.361 OA
ATOM     20  H1  UNL     1      16.929   8.997  34.156  1.00  0.00     0.217 HD
ENDBRANCH   9  19
BRANCH  18  21
HETATM   21  O2  UNL     1      26.745  12.824  30.293  1.00  0.00    -0.395 OA
ATOM     22  H2  UNL     1      26.314  12.461  29.528  1.00  0.00     0.210 HD
ENDBRANCH  18  21
TORSDOF 2
ENDMDL
