MODEL 3
REMARK VINA RESULT: -9.465483160      1.060      6.405
REMARK  2 active torsions:
REMARK  status: ('A' for Active; 'I' for Inactive)
REMARK    1  A    between atoms: C9_9  and  O1_10 
REMARK    2  A    between atoms: C18_20  and  O2_21 
ROOT
HETATM    1  C1  UNL     1      19.497  10.048  31.965  1.00  0.00     0.018 C 
HETATM    2  C2  UNL     1      19.791   9.728  33.410  1.00  0.00    -0.014 C 
HETATM    3  C3  UNL     1      19.823  10.921  34.289  1.00  0.00     0.013 C 
HETATM    4  C4  UNL     1      20.824  11.905  33.674  1.00  0.00     0.010 C 
HETATM    5  C5  UNL     1      22.179  11.276  33.774  1.00  0.00     0.023 C 
HETATM    6  C6  UNL     1      23.251  12.118  33.206  1.00  0.00    -0.047 A 
HETATM    7  C7  UNL     1      23.103  13.451  32.893  1.00  0.00     0.011 A 
HETATM    8  C8  UNL     1      24.120  14.214  32.365  1.00  0.00     0.037 A 
HETATM    9  C9  UNL     1      25.360  13.615  32.135  1.00  0.00     0.066 A 
HETATM   10  C10 UNL     1      25.511  12.279  32.449  1.00  0.00     0.044 A 
HETATM   11  C11 UNL     1      24.475  11.529  32.980  1.00  0.00    -0.049 A 
HETATM   12  C12 UNL     1      24.771  10.105  33.273  1.00  0.00     0.039 C 
HETATM   13  C13 UNL     1      23.568   9.301  33.631  1.00  0.00     0.010 C 
HETATM   14  C14 UNL     1      22.269   9.929  33.099  1.00  0.00    -0.001 C 
HETATM   15  C15 UNL     1      21.164   9.048  33.530  1.00  0.00     0.001 C 
HETATM   16  C16 UNL     1      20.931   7.833  32.708  1.00  0.00     0.008 C 
HETATM   17  C17 UNL     1      19.513   7.425  33.081  1.00  0.00     0.033 C 
HETATM   18  C18 UNL     1      18.940   8.600  33.877  1.00  0.00     0.126 C 
ENDROOT
BRANCH   9  19
HETATM   19  O1  UNL     1      26.380  14.364  31.610  1.00  0.00    -0.361 OA
ATOM     20  H1  UNL     1      27.090  14.644  32.175  1.00  0.00     0.217 HD
ENDBRANCH   9  19
BRANCH  18  21
HETATM   21  O2  UNL     1      17.594   8.763  33.655  1.00  0.00    -0.395 OA
ATOM     22  H2  UNL     1      17.375   9.185  32.832  1.00  0.00     0.210 HD
ENDBRANCH  18  21
TORSDOF 2
ENDMDL
