MODEL 4
REMARK VINA RESULT: -9.396407070      1.840      2.286
REMARK  2 active torsions:
REMARK  status: ('A' for Active; 'I' for Inactive)
REMARK    1  A    between atoms: C9_9  and  O1_10 
REMARK    2  A    between atoms: C18_20  and  O2_21 
ROOT
HETATM    1  C1  UNL     1      24.171  11.375  29.833  1.00  0.00     0.018 C 
HETATM    2  C2  UNL     1      24.705  10.836  31.138  1.00  0.00    -0.014 C 
HETATM    3  C3  UNL     1      24.023   9.603  31.596  1.00  0.00     0.013 C 
HETATM    4  C4  UNL     1      22.522   9.910  31.640  1.00  0.00     0.010 C 
HETATM    5  C5  UNL     1      22.311  10.929  32.717  1.00  0.00     0.023 C 
HETATM    6  C6  UNL     1      20.897  11.329  32.866  1.00  0.00    -0.047 A 
HETATM    7  C7  UNL     1      19.838  10.646  32.311  1.00  0.00     0.011 A 
HETATM    8  C8  UNL     1      18.528  11.040  32.466  1.00  0.00     0.037 A 
HETATM    9  C9  UNL     1      18.255  12.182  33.221  1.00  0.00     0.066 A 
HETATM   10  C10 UNL     1      19.315  12.867  33.779  1.00  0.00     0.044 A 
HETATM   11  C11 UNL     1      20.626  12.454  33.610  1.00  0.00    -0.049 A 
HETATM   12  C12 UNL     1      21.671  13.281  34.265  1.00  0.00     0.039 C 
HETATM   13  C13 UNL     1      23.061  12.918  33.869  1.00  0.00     0.010 C 
HETATM   14  C14 UNL     1      23.110  12.193  32.514  1.00  0.00    -0.001 C 
HETATM   15  C15 UNL     1      24.530  11.884  32.249  1.00  0.00     0.001 C 
HETATM   16  C16 UNL     1      25.356  12.990  31.703  1.00  0.00     0.008 C 
HETATM   17  C17 UNL     1      26.558  12.270  31.109  1.00  0.00     0.033 C 
HETATM   18  C18 UNL     1      26.192  10.784  31.110  1.00  0.00     0.126 C 
ENDROOT
BRANCH   9  19
HETATM   19  O1  UNL     1      16.956  12.584  33.383  1.00  0.00    -0.361 OA
ATOM     20  H1  UNL     1      16.364  12.048  33.898  1.00  0.00     0.217 HD
ENDBRANCH   9  19
BRANCH  18  21
HETATM   21  O2  UNL     1      26.725  10.123  30.030  1.00  0.00    -0.395 OA
ATOM     22  H2  UNL     1      27.434   9.526  30.239  1.00  0.00     0.210 HD
ENDBRANCH  18  21
TORSDOF 2
ENDMDL
