MODEL 6
REMARK VINA RESULT: -9.279499897      1.310      6.111
REMARK  2 active torsions:
REMARK  status: ('A' for Active; 'I' for Inactive)
REMARK    1  A    between atoms: C9_9  and  O1_10 
REMARK    2  A    between atoms: C18_20  and  O2_21 
ROOT
HETATM    1  C1  UNL     1      21.179   8.400  34.174  1.00  0.00     0.018 C 
HETATM    2  C2  UNL     1      20.158   9.037  33.263  1.00  0.00    -0.014 C 
HETATM    3  C3  UNL     1      20.552   9.036  31.834  1.00  0.00     0.013 C 
HETATM    4  C4  UNL     1      21.931   9.698  31.749  1.00  0.00     0.010 C 
HETATM    5  C5  UNL     1      21.755  11.135  32.134  1.00  0.00     0.023 C 
HETATM    6  C6  UNL     1      23.017  11.901  32.104  1.00  0.00    -0.047 A 
HETATM    7  C7  UNL     1      24.177  11.458  31.507  1.00  0.00     0.011 A 
HETATM    8  C8  UNL     1      25.341  12.192  31.493  1.00  0.00     0.037 A 
HETATM    9  C9  UNL     1      25.352  13.445  32.109  1.00  0.00     0.066 A 
HETATM   10  C10 UNL     1      24.191  13.891  32.707  1.00  0.00     0.044 A 
HETATM   11  C11 UNL     1      23.031  13.136  32.710  1.00  0.00    -0.049 A 
HETATM   12  C12 UNL     1      21.853  13.734  33.388  1.00  0.00     0.039 C 
HETATM   13  C13 UNL     1      20.710  12.793  33.550  1.00  0.00     0.010 C 
HETATM   14  C14 UNL     1      21.156  11.322  33.506  1.00  0.00    -0.001 C 
HETATM   15  C15 UNL     1      19.936  10.503  33.665  1.00  0.00     0.001 C 
HETATM   16  C16 UNL     1      19.438  10.325  35.052  1.00  0.00     0.008 C 
HETATM   17  C17 UNL     1      18.528   9.110  34.945  1.00  0.00     0.033 C 
HETATM   18  C18 UNL     1      18.797   8.513  33.561  1.00  0.00     0.126 C 
ENDROOT
BRANCH   9  19
HETATM   19  O1  UNL     1      26.505  14.185  32.102  1.00  0.00    -0.361 OA
ATOM     20  H1  UNL     1      26.449  15.132  32.035  1.00  0.00     0.217 HD
ENDBRANCH   9  19
BRANCH  18  21
HETATM   21  O2  UNL     1      18.694   7.144  33.563  1.00  0.00    -0.395 OA
ATOM     22  H2  UNL     1      18.090   6.790  34.206  1.00  0.00     0.210 HD
ENDBRANCH  18  21
TORSDOF 2
ENDMDL
