MODEL 2
REMARK VINA RESULT: -5.802571406      0.014      1.824
REMARK  1 active torsions:
REMARK  status: ('A' for Active; 'I' for Inactive)
REMARK    1  A    between atoms: O1_1  and  C1_3 
ROOT
HETATM    1  C1  UNL     1      27.153   6.719   3.965  1.00  0.00     0.065 A 
HETATM    2  C2  UNL     1      27.087   7.257   5.234  1.00  0.00     0.036 A 
HETATM    3  C3  UNL     1      26.355   6.573   6.193  1.00  0.00     0.003 A 
HETATM    4  C4  UNL     1      25.731   5.391   5.836  1.00  0.00     0.000 A 
HETATM    5  C5  UNL     1      25.812   4.882   4.575  1.00  0.00     0.003 A 
HETATM    6  C6  UNL     1      26.539   5.553   3.602  1.00  0.00     0.036 A 
ENDROOT
BRANCH   1   7
HETATM    7  O1  UNL     1      27.884   7.402   3.005  1.00  0.00    -0.361 OA
ATOM      8  H1  UNL     1      28.330   6.893   2.338  1.00  0.00     0.217 HD
ENDBRANCH   1   7
TORSDOF 1
ENDMDL
