MODEL 1
REMARK VINA RESULT: -5.804476373      0.000      0.000
REMARK  1 active torsions:
REMARK  status: ('A' for Active; 'I' for Inactive)
REMARK    1  A    between atoms: O1_1  and  C1_3 
ROOT
HETATM    1  C1  UNL     1      27.154   6.729   3.973  1.00  0.00     0.065 A 
HETATM    2  C2  UNL     1      26.531   5.555   3.604  1.00  0.00     0.036 A 
HETATM    3  C3  UNL     1      25.796   4.878   4.566  1.00  0.00     0.003 A 
HETATM    4  C4  UNL     1      25.722   5.408   5.842  1.00  0.00     0.000 A 
HETATM    5  C5  UNL     1      26.348   6.571   6.181  1.00  0.00     0.003 A 
HETATM    6  C6  UNL     1      27.088   7.261   5.230  1.00  0.00     0.036 A 
ENDROOT
BRANCH   1   7
HETATM    7  O1  UNL     1      27.890   7.407   3.013  1.00  0.00    -0.361 OA
ATOM      8  H1  UNL     1      28.084   6.956   2.200  1.00  0.00     0.217 HD
ENDBRANCH   1   7
TORSDOF 1
ENDMDL
