MODEL 5
REMARK VINA RESULT: -5.539760826      0.951      2.046
REMARK  1 active torsions:
REMARK  status: ('A' for Active; 'I' for Inactive)
REMARK    1  A    between atoms: O1_1  and  C1_3 
ROOT
HETATM    1  C1  UNL     1      26.717   5.633   3.647  1.00  0.00     0.065 A 
HETATM    2  C2  UNL     1      27.243   6.848   4.037  1.00  0.00     0.036 A 
HETATM    3  C3  UNL     1      27.000   7.275   5.333  1.00  0.00     0.003 A 
HETATM    4  C4  UNL     1      26.249   6.469   6.170  1.00  0.00     0.000 A 
HETATM    5  C5  UNL     1      25.740   5.274   5.759  1.00  0.00     0.003 A 
HETATM    6  C6  UNL     1      25.972   4.830   4.464  1.00  0.00     0.036 A 
ENDROOT
BRANCH   1   7
HETATM    7  O1  UNL     1      26.957   5.205   2.350  1.00  0.00    -0.361 OA
ATOM      8  H1  UNL     1      27.497   4.432   2.228  1.00  0.00     0.217 HD
ENDBRANCH   1   7
TORSDOF 1
ENDMDL
