MODEL 3
REMARK VINA RESULT: -5.629843108      0.909      1.977
REMARK  1 active torsions:
REMARK  status: ('A' for Active; 'I' for Inactive)
REMARK    1  A    between atoms: O1_1  and  C1_3 
ROOT
HETATM    1  C1  UNL     1      27.559   7.057   4.811  1.00  0.00     0.065 A 
HETATM    2  C2  UNL     1      26.913   6.859   6.014  1.00  0.00     0.036 A 
HETATM    3  C3  UNL     1      25.878   5.936   6.052  1.00  0.00     0.003 A 
HETATM    4  C4  UNL     1      25.545   5.261   4.891  1.00  0.00     0.000 A 
HETATM    5  C5  UNL     1      26.199   5.476   3.715  1.00  0.00     0.003 A 
HETATM    6  C6  UNL     1      27.237   6.397   3.658  1.00  0.00     0.036 A 
ENDROOT
BRANCH   1   7
HETATM    7  O1  UNL     1      28.593   7.980   4.771  1.00  0.00    -0.361 OA
ATOM      8  H1  UNL     1      28.450   8.828   5.176  1.00  0.00     0.217 HD
ENDBRANCH   1   7
TORSDOF 1
ENDMDL
