MODEL 4
REMARK VINA RESULT: -5.624461466      0.904      1.224
REMARK  1 active torsions:
REMARK  status: ('A' for Active; 'I' for Inactive)
REMARK    1  A    between atoms: O1_1  and  C1_3 
ROOT
HETATM    1  C1  UNL     1      27.555   7.057   4.818  1.00  0.00     0.065 A 
HETATM    2  C2  UNL     1      27.293   6.395   3.636  1.00  0.00     0.036 A 
HETATM    3  C3  UNL     1      26.276   5.452   3.631  1.00  0.00     0.003 A 
HETATM    4  C4  UNL     1      25.576   5.221   4.802  1.00  0.00     0.000 A 
HETATM    5  C5  UNL     1      25.856   5.889   5.957  1.00  0.00     0.003 A 
HETATM    6  C6  UNL     1      26.871   6.836   5.980  1.00  0.00     0.036 A 
ENDROOT
BRANCH   1   7
HETATM    7  O1  UNL     1      28.573   7.999   4.825  1.00  0.00    -0.361 OA
ATOM      8  H1  UNL     1      29.106   8.086   4.044  1.00  0.00     0.217 HD
ENDBRANCH   1   7
TORSDOF 1
ENDMDL
