MODEL 14
REMARK VINA RESULT: -4.073047404      2.657      3.452
REMARK  1 active torsions:
REMARK  status: ('A' for Active; 'I' for Inactive)
REMARK    1  A    between atoms: O1_1  and  C1_3 
ROOT
HETATM    1  C1  UNL     1      27.751   8.038   4.935  1.00  0.00     0.067 A 
HETATM    2  C2  UNL     1      28.458   7.856   3.758  1.00  0.00     0.036 A 
HETATM    3  C3  UNL     1      28.054   6.873   2.876  1.00  0.00     0.004 A 
HETATM    4  C4  UNL     1      26.964   6.068   3.137  1.00  0.00     0.024 A 
HETATM    5  C5  UNL     1      26.251   6.247   4.317  1.00  0.00     0.036 A 
HETATM    6 CL1  UNL     1      24.873   5.210   4.616  1.00  0.00    -0.084 Cl
HETATM    7  C6  UNL     1      26.652   7.227   5.199  1.00  0.00     0.060 A 
ENDROOT
BRANCH   1   8
HETATM    8  O1  UNL     1      28.155   9.019   5.817  1.00  0.00    -0.361 OA
ATOM      9  H1  UNL     1      28.940   9.519   5.625  1.00  0.00     0.217 HD
ENDBRANCH   1   8
TORSDOF 1
ENDMDL
