MODEL 16
REMARK VINA RESULT: -4.022120586      2.111      2.776
REMARK  1 active torsions:
REMARK  status: ('A' for Active; 'I' for Inactive)
REMARK    1  A    between atoms: O1_1  and  C1_3 
ROOT
HETATM    1  C1  UNL     1      26.755   7.364   4.811  1.00  0.00     0.067 A 
HETATM    2  C2  UNL     1      27.581   8.024   3.918  1.00  0.00     0.036 A 
HETATM    3  C3  UNL     1      28.045   7.349   2.806  1.00  0.00     0.004 A 
HETATM    4  C4  UNL     1      27.706   6.033   2.563  1.00  0.00     0.024 A 
HETATM    5  C5  UNL     1      26.877   5.366   3.458  1.00  0.00     0.036 A 
HETATM    6 CL1  UNL     1      26.467   3.699   3.120  1.00  0.00    -0.084 Cl
HETATM    7  C6  UNL     1      26.413   6.038   4.568  1.00  0.00     0.060 A 
ENDROOT
BRANCH   1   8
HETATM    8  O1  UNL     1      26.291   8.039   5.923  1.00  0.00    -0.361 OA
ATOM      9  H1  UNL     1      25.856   7.551   6.612  1.00  0.00     0.217 HD
ENDBRANCH   1   8
TORSDOF 1
ENDMDL
