MODEL 5
REMARK VINA RESULT: -5.450518232      2.850      3.788
REMARK  1 active torsions:
REMARK  status: ('A' for Active; 'I' for Inactive)
REMARK    1  A    between atoms: O1_1  and  C1_3 
ROOT
HETATM    1  C1  UNL     1      27.429   6.969   3.264  1.00  0.00     0.067 A 
HETATM    2  C2  UNL     1      27.601   5.876   2.431  1.00  0.00     0.036 A 
HETATM    3  C3  UNL     1      27.033   4.667   2.782  1.00  0.00     0.004 A 
HETATM    4  C4  UNL     1      26.299   4.520   3.942  1.00  0.00     0.024 A 
HETATM    5  C5  UNL     1      26.124   5.614   4.781  1.00  0.00     0.036 A 
HETATM    6 CL1  UNL     1      25.188   5.394   6.243  1.00  0.00    -0.084 Cl
HETATM    7  C6  UNL     1      26.690   6.822   4.433  1.00  0.00     0.060 A 
ENDROOT
BRANCH   1   8
HETATM    8  O1  UNL     1      27.997   8.177   2.913  1.00  0.00    -0.361 OA
ATOM      9  H1  UNL     1      27.607   8.982   3.232  1.00  0.00     0.217 HD
ENDBRANCH   1   8
TORSDOF 1
ENDMDL
