MODEL 11
REMARK VINA RESULT: -4.764647536      2.826      3.680
REMARK  1 active torsions:
REMARK  status: ('A' for Active; 'I' for Inactive)
REMARK    1  A    between atoms: O1_1  and  C1_3 
ROOT
HETATM    1  C1  UNL     1      27.708   7.040   2.597  1.00  0.00     0.067 A 
HETATM    2  C2  UNL     1      27.278   5.751   2.329  1.00  0.00     0.036 A 
HETATM    3  C3  UNL     1      26.595   5.054   3.307  1.00  0.00     0.004 A 
HETATM    4  C4  UNL     1      26.330   5.609   4.542  1.00  0.00     0.024 A 
HETATM    5  C5  UNL     1      26.760   6.902   4.815  1.00  0.00     0.036 A 
HETATM    6 CL1  UNL     1      26.407   7.576   6.391  1.00  0.00    -0.084 Cl
HETATM    7  C6  UNL     1      27.442   7.600   3.842  1.00  0.00     0.060 A 
ENDROOT
BRANCH   1   8
HETATM    8  O1  UNL     1      28.392   7.736   1.620  1.00  0.00    -0.361 OA
ATOM      9  H1  UNL     1      27.936   8.405   1.124  1.00  0.00     0.217 HD
ENDBRANCH   1   8
TORSDOF 1
ENDMDL
