MODEL 2
REMARK VINA RESULT: -5.635743580      2.838      3.713
REMARK  1 active torsions:
REMARK  status: ('A' for Active; 'I' for Inactive)
REMARK    1  A    between atoms: O1_1  and  C1_3 
ROOT
HETATM    1  C1  UNL     1      27.799   7.712   4.133  1.00  0.00     0.067 A 
HETATM    2  C2  UNL     1      27.998   7.008   2.957  1.00  0.00     0.036 A 
HETATM    3  C3  UNL     1      27.321   5.820   2.762  1.00  0.00     0.004 A 
HETATM    4  C4  UNL     1      26.453   5.316   3.709  1.00  0.00     0.024 A 
HETATM    5  C5  UNL     1      26.251   6.018   4.892  1.00  0.00     0.036 A 
HETATM    6 CL1  UNL     1      25.144   5.352   6.071  1.00  0.00    -0.084 Cl
HETATM    7  C6  UNL     1      26.925   7.205   5.089  1.00  0.00     0.060 A 
ENDROOT
BRANCH   1   8
HETATM    8  O1  UNL     1      28.476   8.899   4.329  1.00  0.00    -0.361 OA
ATOM      9  H1  UNL     1      28.741   9.141   5.208  1.00  0.00     0.217 HD
ENDBRANCH   1   8
TORSDOF 1
ENDMDL
