MODEL 9
REMARK VINA RESULT: -3.974871942      1.898      2.644
REMARK  0 active torsions:
REMARK  status: ('A' for Active; 'I' for Inactive)
ROOT
HETATM    1  C1  UNL     1      25.389   5.264   4.513  1.00  0.00     0.049 C 
HETATM    2  C2  UNL     1      26.544   6.194   4.393  1.00  0.00    -0.045 A 
HETATM    3  C3  UNL     1      27.022   7.047   5.369  1.00  0.00     0.025 A 
HETATM    4  C4  UNL     1      28.112   7.757   4.890  1.00  0.00     0.088 A 
HETATM    5  N1  UNL     1      28.288   7.331   3.629  1.00  0.00    -0.375 N 
ATOM      6  H1  UNL     1      29.019   7.666   3.001  1.00  0.00     0.164 HD
HETATM    7  C5  UNL     1      27.366   6.398   3.305  1.00  0.00     0.094 A 
ENDROOT
TORSDOF 0
ENDMDL
