MODEL 15
REMARK VINA RESULT: -3.530098127      2.245      3.054
REMARK  0 active torsions:
REMARK  status: ('A' for Active; 'I' for Inactive)
ROOT
HETATM    1  C1  UNL     1      26.082   4.453   4.214  1.00  0.00     0.049 C 
HETATM    2  C2  UNL     1      26.893   5.542   3.606  1.00  0.00    -0.045 A 
HETATM    3  C3  UNL     1      27.085   6.812   4.113  1.00  0.00     0.025 A 
HETATM    4  C4  UNL     1      27.902   7.546   3.268  1.00  0.00     0.088 A 
HETATM    5  N1  UNL     1      28.201   6.718   2.254  1.00  0.00    -0.375 N 
ATOM      6  H1  UNL     1      28.793   6.964   1.461  1.00  0.00     0.164 HD
HETATM    7  C5  UNL     1      27.613   5.514   2.429  1.00  0.00     0.094 A 
ENDROOT
TORSDOF 0
ENDMDL
