MODEL 14
REMARK VINA RESULT: -3.604361502      1.607      2.349
REMARK  0 active torsions:
REMARK  status: ('A' for Active; 'I' for Inactive)
ROOT
HETATM    1  C1  UNL     1      25.029   5.047   4.356  1.00  0.00     0.049 C 
HETATM    2  C2  UNL     1      26.069   6.006   4.818  1.00  0.00    -0.045 A 
HETATM    3  C3  UNL     1      26.277   6.441   6.112  1.00  0.00     0.025 A 
HETATM    4  C4  UNL     1      27.337   7.332   6.153  1.00  0.00     0.088 A 
HETATM    5  N1  UNL     1      27.767   7.432   4.885  1.00  0.00    -0.375 N 
ATOM      6  H1  UNL     1      28.545   8.018   4.581  1.00  0.00     0.164 HD
HETATM    7  C5  UNL     1      27.028   6.652   4.065  1.00  0.00     0.094 A 
ENDROOT
TORSDOF 0
ENDMDL
