MODEL 4
REMARK VINA RESULT: -4.184972482      1.546      2.671
REMARK  0 active torsions:
REMARK  status: ('A' for Active; 'I' for Inactive)
ROOT
HETATM    1  C1  UNL     1      25.706   5.585   5.940  1.00  0.00     0.049 C 
HETATM    2  C2  UNL     1      26.421   5.687   4.639  1.00  0.00    -0.045 A 
HETATM    3  C3  UNL     1      27.142   6.770   4.176  1.00  0.00     0.025 A 
HETATM    4  C4  UNL     1      27.665   6.494   2.922  1.00  0.00     0.088 A 
HETATM    5  N1  UNL     1      27.259   5.247   2.633  1.00  0.00    -0.375 N 
ATOM      6  H1  UNL     1      27.483   4.750   1.772  1.00  0.00     0.164 HD
HETATM    7  C5  UNL     1      26.514   4.741   3.641  1.00  0.00     0.094 A 
ENDROOT
TORSDOF 0
ENDMDL
