MODEL 20
REMARK VINA RESULT: -1.260620438      2.317      3.024
REMARK  0 active torsions:
REMARK  status: ('A' for Active; 'I' for Inactive)
ROOT
HETATM    1  C1  UNL     1      27.223   3.725   2.549  1.00  0.00     0.049 C 
HETATM    2  C2  UNL     1      27.289   5.165   2.918  1.00  0.00    -0.045 A 
HETATM    3  C3  UNL     1      26.244   5.954   3.356  1.00  0.00     0.025 A 
HETATM    4  C4  UNL     1      26.689   7.243   3.603  1.00  0.00     0.088 A 
HETATM    5  N1  UNL     1      28.001   7.228   3.315  1.00  0.00    -0.375 N 
ATOM      6  H1  UNL     1      28.621   8.033   3.396  1.00  0.00     0.164 HD
HETATM    7  C5  UNL     1      28.387   6.000   2.903  1.00  0.00     0.094 A 
ENDROOT
TORSDOF 0
ENDMDL
