MODEL 2
REMARK VINA RESULT: -11.234992737      1.510      7.444
REMARK  4 active torsions:
REMARK  status: ('A' for Active; 'I' for Inactive)
REMARK    1  A    between atoms: C5_5  and  O1_6 
REMARK    2  A    between atoms: C13_15  and  O2_16 
REMARK    3  A    between atoms: C16_20  and  C17_21 
REMARK    4  A    between atoms: C23_29  and  O5_30 
ROOT
HETATM    1  C1  UNL     1      12.002 -25.513  35.780  1.00  0.00     0.016 C 
HETATM    2  C2  UNL     1      11.169 -24.510  36.566  1.00  0.00    -0.036 C 
HETATM    3  C3  UNL     1      10.989 -23.308  35.672  1.00  0.00     0.012 C 
HETATM    4  C4  UNL     1      12.195 -22.507  35.434  1.00  0.00     0.032 C 
HETATM    5  C5  UNL     1      13.188 -22.423  36.541  1.00  0.00     0.118 C 
HETATM    6  C6  UNL     1      13.239 -23.605  37.450  1.00  0.00     0.037 C 
HETATM    7  C7  UNL     1      11.860 -24.064  37.810  1.00  0.00    -0.004 C 
HETATM    8  C8  UNL     1      11.084 -22.924  38.402  1.00  0.00     0.006 C 
HETATM    9  C9  UNL     1       9.633 -23.211  38.591  1.00  0.00     0.008 C 
HETATM   10  C10 UNL     1       9.339 -24.664  38.274  1.00  0.00     0.026 C 
HETATM   11  C11 UNL     1       9.820 -25.096  36.937  1.00  0.00     0.003 C 
HETATM   12  C12 UNL     1       9.817 -26.599  36.914  1.00  0.00     0.038 C 
HETATM   13  C13 UNL     1       9.017 -27.231  37.992  1.00  0.00     0.130 C 
HETATM   14  C14 UNL     1       7.749 -26.509  38.353  1.00  0.00     0.021 C 
HETATM   15  C15 UNL     1       7.324 -27.030  39.719  1.00  0.00     0.022 C 
HETATM   16  C16 UNL     1       6.687 -26.656  37.314  1.00  0.00     0.030 C 
HETATM   17  C21 UNL     1       5.773 -25.439  37.622  1.00  0.00     0.013 C 
HETATM   18  C22 UNL     1       6.918 -24.401  37.606  1.00  0.00     0.040 C 
HETATM   19  C23 UNL     1       7.905 -25.016  38.509  1.00  0.00     0.072 C 
ENDROOT
BRANCH  16  20
HETATM   20  C17 UNL     1       5.961 -27.901  37.206  1.00  0.00    -0.045 A 
HETATM   21  C18 UNL     1       5.227 -28.506  38.078  1.00  0.00     0.087 A 
HETATM   22  C19 UNL     1       4.700 -29.740  37.500  1.00  0.00     0.283 A 
HETATM   23  O3  UNL     1       3.939 -30.591  38.065  1.00  0.00    -0.260 OA
HETATM   24  O4  UNL     1       5.188 -29.802  36.216  1.00  0.00    -0.314 OA
HETATM   25  C20 UNL     1       5.977 -28.708  35.950  1.00  0.00     0.213 A 
ENDBRANCH  16  20
BRANCH  13  26
HETATM   26  O2  UNL     1       9.755 -27.551  39.130  1.00  0.00    -0.395 OA
ATOM     27  H2  UNL     1       9.754 -28.476  39.343  1.00  0.00     0.210 HD
ENDBRANCH  13  26
BRANCH  19  28
HETATM   28  O5  UNL     1       7.581 -24.568  39.809  1.00  0.00    -0.389 OA
ATOM     29  H5  UNL     1       6.733 -24.143  39.751  1.00  0.00     0.210 HD
ENDBRANCH  19  28
BRANCH   5  30
HETATM   30  O1  UNL     1      14.451 -22.260  35.962  1.00  0.00    -0.396 OA
ATOM     31  H1  UNL     1      14.383 -21.567  35.316  1.00  0.00     0.210 HD
ENDBRANCH   5  30
TORSDOF 4
ENDMDL
