MODEL 4
REMARK VINA RESULT: -10.781876672      1.595      7.490
REMARK  4 active torsions:
REMARK  status: ('A' for Active; 'I' for Inactive)
REMARK    1  A    between atoms: C5_5  and  O1_6 
REMARK    2  A    between atoms: C13_15  and  O2_16 
REMARK    3  A    between atoms: C16_20  and  C17_21 
REMARK    4  A    between atoms: C23_29  and  O5_30 
ROOT
HETATM    1  C1  UNL     1      11.350 -26.860  36.951  1.00  0.00     0.016 C 
HETATM    2  C2  UNL     1      10.561 -25.561  37.028  1.00  0.00    -0.036 C 
HETATM    3  C3  UNL     1      11.013 -24.715  35.863  1.00  0.00     0.012 C 
HETATM    4  C4  UNL     1      12.379 -24.189  35.952  1.00  0.00     0.032 C 
HETATM    5  C5  UNL     1      12.896 -23.859  37.309  1.00  0.00     0.118 C 
HETATM    6  C6  UNL     1      12.328 -24.666  38.428  1.00  0.00     0.037 C 
HETATM    7  C7  UNL     1      10.844 -24.809  38.285  1.00  0.00    -0.004 C 
HETATM    8  C8  UNL     1      10.210 -23.453  38.181  1.00  0.00     0.006 C 
HETATM    9  C9  UNL     1       8.765 -23.486  37.814  1.00  0.00     0.008 C 
HETATM   10  C10 UNL     1       8.261 -24.914  37.791  1.00  0.00     0.026 C 
HETATM   11  C11 UNL     1       9.069 -25.824  36.939  1.00  0.00     0.003 C 
HETATM   12  C12 UNL     1       8.709 -27.235  37.307  1.00  0.00     0.038 C 
HETATM   13  C13 UNL     1       7.447 -27.370  38.076  1.00  0.00     0.130 C 
HETATM   14  C14 UNL     1       6.351 -26.423  37.673  1.00  0.00     0.021 C 
HETATM   15  C15 UNL     1       5.349 -26.402  38.820  1.00  0.00     0.022 C 
HETATM   16  C16 UNL     1       5.731 -26.782  36.363  1.00  0.00     0.030 C 
HETATM   17  C21 UNL     1       5.094 -25.432  35.934  1.00  0.00     0.013 C 
HETATM   18  C22 UNL     1       6.384 -24.604  36.130  1.00  0.00     0.040 C 
HETATM   19  C23 UNL     1       6.798 -24.994  37.488  1.00  0.00     0.072 C 
ENDROOT
BRANCH  16  20
HETATM   20  C17 UNL     1       4.813 -27.895  36.288  1.00  0.00    -0.045 A 
HETATM   21  C18 UNL     1       4.990 -29.134  36.600  1.00  0.00     0.087 A 
HETATM   22  C19 UNL     1       3.761 -29.882  36.349  1.00  0.00     0.283 A 
HETATM   23  O3  UNL     1       3.564 -31.126  36.540  1.00  0.00    -0.260 OA
HETATM   24  O4  UNL     1       2.851 -28.973  35.863  1.00  0.00    -0.314 OA
HETATM   25  C20 UNL     1       3.415 -27.722  35.791  1.00  0.00     0.213 A 
ENDBRANCH  16  20
BRANCH  13  26
HETATM   26  O2  UNL     1       7.624 -27.376  39.457  1.00  0.00    -0.395 OA
ATOM     27  H2  UNL     1       6.812 -27.408  39.950  1.00  0.00     0.210 HD
ENDBRANCH  13  26
BRANCH  19  28
HETATM   28  O5  UNL     1       6.148 -24.101  38.369  1.00  0.00    -0.389 OA
ATOM     29  H5  UNL     1       5.254 -24.409  38.463  1.00  0.00     0.210 HD
ENDBRANCH  19  28
BRANCH   5  30
HETATM   30  O1  UNL     1      14.283 -24.051  37.290  1.00  0.00    -0.396 OA
ATOM     31  H1  UNL     1      14.670 -23.392  37.854  1.00  0.00     0.210 HD
ENDBRANCH   5  30
TORSDOF 4
ENDMDL
