MODEL 3
REMARK VINA RESULT: -10.810346542      1.955      7.891
REMARK  4 active torsions:
REMARK  status: ('A' for Active; 'I' for Inactive)
REMARK    1  A    between atoms: C5_5  and  O1_6 
REMARK    2  A    between atoms: C13_15  and  O2_16 
REMARK    3  A    between atoms: C16_20  and  C17_21 
REMARK    4  A    between atoms: C23_29  and  O5_30 
ROOT
HETATM    1  C1  UNL     1      10.388 -27.365  38.217  1.00  0.00     0.016 C 
HETATM    2  C2  UNL     1       9.662 -26.474  37.219  1.00  0.00    -0.036 C 
HETATM    3  C3  UNL     1      10.377 -26.635  35.900  1.00  0.00     0.012 C 
HETATM    4  C4  UNL     1      11.721 -26.052  35.831  1.00  0.00     0.032 C 
HETATM    5  C5  UNL     1      11.970 -24.817  36.626  1.00  0.00     0.118 C 
HETATM    6  C6  UNL     1      11.152 -24.673  37.865  1.00  0.00     0.037 C 
HETATM    7  C7  UNL     1       9.722 -25.036  37.608  1.00  0.00    -0.004 C 
HETATM    8  C8  UNL     1       9.185 -24.214  36.473  1.00  0.00     0.006 C 
HETATM    9  C9  UNL     1       7.844 -24.649  35.989  1.00  0.00     0.008 C 
HETATM   10  C10 UNL     1       7.288 -25.735  36.889  1.00  0.00     0.026 C 
HETATM   11  C11 UNL     1       8.207 -26.885  37.082  1.00  0.00     0.003 C 
HETATM   12  C12 UNL     1       7.715 -27.671  38.264  1.00  0.00     0.038 C 
HETATM   13  C13 UNL     1       6.320 -27.369  38.669  1.00  0.00     0.130 C 
HETATM   14  C14 UNL     1       5.372 -27.096  37.534  1.00  0.00     0.021 C 
HETATM   15  C15 UNL     1       4.163 -26.391  38.135  1.00  0.00     0.022 C 
HETATM   16  C16 UNL     1       5.012 -28.329  36.774  1.00  0.00     0.030 C 
HETATM   17  C21 UNL     1       4.537 -27.738  35.418  1.00  0.00     0.013 C 
HETATM   18  C22 UNL     1       5.799 -26.873  35.197  1.00  0.00     0.040 C 
HETATM   19  C23 UNL     1       5.914 -26.161  36.480  1.00  0.00     0.072 C 
ENDROOT
BRANCH  16  20
HETATM   20  C17 UNL     1       4.076 -29.271  37.343  1.00  0.00    -0.045 A 
HETATM   21  C18 UNL     1       2.786 -29.263  37.332  1.00  0.00     0.087 A 
HETATM   22  C19 UNL     1       2.284 -30.436  38.043  1.00  0.00     0.283 A 
HETATM   23  O3  UNL     1       1.066 -30.758  38.232  1.00  0.00    -0.260 OA
HETATM   24  O4  UNL     1       3.391 -31.130  38.469  1.00  0.00    -0.314 OA
HETATM   25  C20 UNL     1       4.540 -30.483  38.083  1.00  0.00     0.213 A 
ENDBRANCH  16  20
BRANCH  13  26
HETATM   26  O2  UNL     1       6.215 -26.392  39.657  1.00  0.00    -0.395 OA
ATOM     27  H2  UNL     1       5.412 -26.438  40.161  1.00  0.00     0.210 HD
ENDBRANCH  13  26
BRANCH  19  28
HETATM   28  O5  UNL     1       5.143 -24.985  36.347  1.00  0.00    -0.389 OA
ATOM     29  H5  UNL     1       4.552 -25.124  35.616  1.00  0.00     0.210 HD
ENDBRANCH  19  28
BRANCH   5  30
HETATM   30  O1  UNL     1      13.322 -24.815  36.990  1.00  0.00    -0.396 OA
ATOM     31  H1  UNL     1      13.406 -25.340  37.778  1.00  0.00     0.210 HD
ENDBRANCH   5  30
TORSDOF 4
ENDMDL
