MODEL 1
REMARK VINA RESULT: -11.477002889      0.000      0.000
REMARK  4 active torsions:
REMARK  status: ('A' for Active; 'I' for Inactive)
REMARK    1  A    between atoms: C5_5  and  O1_6 
REMARK    2  A    between atoms: C13_15  and  O2_16 
REMARK    3  A    between atoms: C16_20  and  C17_21 
REMARK    4  A    between atoms: C23_29  and  O5_30 
ROOT
HETATM    1  C1  UNL     1       5.209 -25.145  35.827  1.00  0.00     0.016 C 
HETATM    2  C2  UNL     1       6.046 -26.253  36.451  1.00  0.00    -0.036 C 
HETATM    3  C3  UNL     1       5.837 -27.480  35.598  1.00  0.00     0.012 C 
HETATM    4  C4  UNL     1       4.506 -28.091  35.678  1.00  0.00     0.032 C 
HETATM    5  C5  UNL     1       3.794 -28.007  36.984  1.00  0.00     0.118 C 
HETATM    6  C6  UNL     1       4.128 -26.819  37.823  1.00  0.00     0.037 C 
HETATM    7  C7  UNL     1       5.604 -26.572  37.839  1.00  0.00    -0.004 C 
HETATM    8  C8  UNL     1       6.322 -27.810  38.294  1.00  0.00     0.006 C 
HETATM    9  C9  UNL     1       7.803 -27.745  38.135  1.00  0.00     0.008 C 
HETATM   10  C10 UNL     1       8.224 -26.359  37.690  1.00  0.00     0.026 C 
HETATM   11  C11 UNL     1       7.516 -25.876  36.478  1.00  0.00     0.003 C 
HETATM   12  C12 UNL     1       7.732 -24.392  36.383  1.00  0.00     0.038 C 
HETATM   13  C13 UNL     1       8.843 -23.875  37.220  1.00  0.00     0.130 C 
HETATM   14  C14 UNL     1      10.041 -24.778  37.319  1.00  0.00     0.021 C 
HETATM   15  C15 UNL     1      10.842 -24.311  38.526  1.00  0.00     0.022 C 
HETATM   16  C16 UNL     1      10.844 -24.809  36.060  1.00  0.00     0.030 C 
HETATM   17  C21 UNL     1      11.617 -26.148  36.211  1.00  0.00     0.013 C 
HETATM   18  C22 UNL     1      10.360 -26.998  36.505  1.00  0.00     0.040 C 
HETATM   19  C23 UNL     1       9.710 -26.228  37.577  1.00  0.00     0.072 C 
ENDROOT
BRANCH  16  20
HETATM   20  C17 UNL     1      11.699 -23.692  35.731  1.00  0.00    -0.045 A 
HETATM   21  C18 UNL     1      12.691 -23.190  36.387  1.00  0.00     0.087 A 
HETATM   22  C19 UNL     1      13.246 -22.062  35.644  1.00  0.00     0.283 A 
HETATM   23  O3  UNL     1      14.230 -21.327  35.983  1.00  0.00    -0.260 OA
HETATM   24  O4  UNL     1      12.494 -21.948  34.499  1.00  0.00    -0.314 OA
HETATM   25  C20 UNL     1      11.515 -22.912  34.471  1.00  0.00     0.213 A 
ENDBRANCH  16  20
BRANCH  13  26
HETATM   26  O2  UNL     1       8.444 -23.432  38.479  1.00  0.00    -0.395 OA
ATOM     27  H2  UNL     1       7.607 -23.779  38.763  1.00  0.00     0.210 HD
ENDBRANCH  13  26
BRANCH  19  28
HETATM   28  O5  UNL     1      10.256 -26.703  38.790  1.00  0.00    -0.389 OA
ATOM     29  H5  UNL     1      11.188 -26.519  38.763  1.00  0.00     0.210 HD
ENDBRANCH  19  28
BRANCH   5  30
HETATM   30  O1  UNL     1       2.421 -27.982  36.715  1.00  0.00    -0.396 OA
ATOM     31  H1  UNL     1       2.091 -28.864  36.834  1.00  0.00     0.210 HD
ENDBRANCH   5  30
TORSDOF 4
ENDMDL
