MODEL 4
REMARK VINA RESULT: -10.927844262      1.874      7.710
REMARK  3 active torsions:
REMARK  status: ('A' for Active; 'I' for Inactive)
REMARK    1  A    between atoms: C5_5  and  O1_6 
REMARK    2  A    between atoms: C16_18  and  C17_19 
REMARK    3  A    between atoms: C23_27  and  O4_28 
ROOT
HETATM    1  C1  UNL     1      12.727 -24.355  36.815  1.00  0.00     0.016 C 
HETATM    2  C2  UNL     1      11.803 -23.140  36.651  1.00  0.00    -0.036 C 
HETATM    3  C3  UNL     1      12.195 -22.486  35.354  1.00  0.00     0.012 C 
HETATM    4  C4  UNL     1      13.649 -22.081  35.399  1.00  0.00     0.032 C 
HETATM    5  C5  UNL     1      13.953 -21.312  36.648  1.00  0.00     0.118 C 
HETATM    6  C6  UNL     1      12.700 -20.999  37.406  1.00  0.00     0.037 C 
HETATM    7  C7  UNL     1      11.960 -22.271  37.840  1.00  0.00    -0.004 C 
HETATM    8  C8  UNL     1      10.734 -21.837  38.533  1.00  0.00     0.006 C 
HETATM    9  C9  UNL     1       9.655 -22.846  38.715  1.00  0.00     0.008 C 
HETATM   10  C10 UNL     1      10.054 -24.143  37.986  1.00  0.00     0.025 C 
HETATM   11  C11 UNL     1      10.405 -23.668  36.605  1.00  0.00     0.001 C 
HETATM   12  C12 UNL     1      10.165 -24.704  35.545  1.00  0.00     0.007 C 
HETATM   13  C13 UNL     1       8.649 -24.948  35.639  1.00  0.00     0.013 C 
HETATM   14  C14 UNL     1       8.433 -25.770  36.877  1.00  0.00    -0.005 C 
HETATM   15  C15 UNL     1       8.901 -27.181  36.550  1.00  0.00     0.019 C 
HETATM   16  C16 UNL     1       6.940 -25.819  37.121  1.00  0.00     0.028 C 
HETATM   17  C21 UNL     1       6.799 -25.829  38.627  1.00  0.00     0.013 C 
HETATM   18  C22 UNL     1       7.907 -24.892  39.049  1.00  0.00     0.040 C 
HETATM   19  C23 UNL     1       9.078 -25.218  38.106  1.00  0.00     0.070 C 
ENDROOT
BRANCH  16  20
HETATM   20  C17 UNL     1       6.253 -26.955  36.514  1.00  0.00    -0.045 A 
HETATM   21  C18 UNL     1       5.813 -28.023  37.201  1.00  0.00     0.087 A 
HETATM   22  C19 UNL     1       5.182 -28.947  36.273  1.00  0.00     0.283 A 
HETATM   23  O2  UNL     1       4.648 -30.058  36.512  1.00  0.00    -0.260 OA
HETATM   24  O3  UNL     1       5.253 -28.406  35.001  1.00  0.00    -0.314 OA
HETATM   25  C20 UNL     1       5.904 -27.170  35.110  1.00  0.00     0.213 A 
ENDBRANCH  16  20
BRANCH  19  26
HETATM   26  O4  UNL     1       9.687 -26.336  38.740  1.00  0.00    -0.389 OA
ATOM     27  H4  UNL     1      10.577 -26.432  38.422  1.00  0.00     0.210 HD
ENDBRANCH  19  26
BRANCH   5  28
HETATM   28  O1  UNL     1      14.906 -21.893  37.455  1.00  0.00    -0.396 OA
ATOM     29  H1  UNL     1      14.616 -22.064  38.343  1.00  0.00     0.210 HD
ENDBRANCH   5  28
TORSDOF 3
ENDMDL
