MODEL 3
REMARK VINA RESULT: -11.262321211      1.522      7.613
REMARK  3 active torsions:
REMARK  status: ('A' for Active; 'I' for Inactive)
REMARK    1  A    between atoms: C5_5  and  O1_6 
REMARK    2  A    between atoms: C16_18  and  C17_19 
REMARK    3  A    between atoms: C23_27  and  O4_28 
ROOT
HETATM    1  C1  UNL     1      10.152 -27.012  37.812  1.00  0.00     0.016 C 
HETATM    2  C2  UNL     1       9.749 -25.741  37.051  1.00  0.00    -0.036 C 
HETATM    3  C3  UNL     1      10.487 -25.785  35.740  1.00  0.00     0.012 C 
HETATM    4  C4  UNL     1      11.975 -25.839  35.988  1.00  0.00     0.032 C 
HETATM    5  C5  UNL     1      12.398 -24.774  36.953  1.00  0.00     0.118 C 
HETATM    6  C6  UNL     1      11.267 -23.840  37.253  1.00  0.00     0.037 C 
HETATM    7  C7  UNL     1      10.077 -24.568  37.893  1.00  0.00    -0.004 C 
HETATM    8  C8  UNL     1       9.020 -23.562  38.100  1.00  0.00     0.006 C 
HETATM    9  C9  UNL     1       7.639 -24.058  38.345  1.00  0.00     0.008 C 
HETATM   10  C10 UNL     1       7.623 -25.592  38.193  1.00  0.00     0.025 C 
HETATM   11  C11 UNL     1       8.268 -25.811  36.854  1.00  0.00     0.001 C 
HETATM   12  C12 UNL     1       7.788 -27.056  36.166  1.00  0.00     0.007 C 
HETATM   13  C13 UNL     1       6.285 -26.790  35.978  1.00  0.00     0.013 C 
HETATM   14  C14 UNL     1       5.656 -26.967  37.330  1.00  0.00    -0.005 C 
HETATM   15  C15 UNL     1       5.620 -28.465  37.599  1.00  0.00     0.019 C 
HETATM   16  C16 UNL     1       4.228 -26.478  37.222  1.00  0.00     0.028 C 
HETATM   17  C21 UNL     1       3.931 -25.864  38.572  1.00  0.00     0.013 C 
HETATM   18  C22 UNL     1       5.249 -25.207  38.911  1.00  0.00     0.040 C 
HETATM   19  C23 UNL     1       6.319 -26.199  38.427  1.00  0.00     0.070 C 
ENDROOT
BRANCH  16  20
HETATM   20  C17 UNL     1       3.249 -27.505  36.876  1.00  0.00    -0.045 A 
HETATM   21  C18 UNL     1       3.115 -28.030  35.647  1.00  0.00     0.087 A 
HETATM   22  C19 UNL     1       2.048 -29.018  35.676  1.00  0.00     0.283 A 
HETATM   23  O2  UNL     1       1.610 -29.730  34.740  1.00  0.00    -0.260 OA
HETATM   24  O3  UNL     1       1.540 -29.074  36.963  1.00  0.00    -0.314 OA
HETATM   25  C20 UNL     1       2.262 -28.156  37.736  1.00  0.00     0.213 A 
ENDBRANCH  16  20
BRANCH  19  26
HETATM   26  O4  UNL     1       6.414 -27.111  39.513  1.00  0.00    -0.389 OA
ATOM     27  H4  UNL     1       5.575 -27.162  39.955  1.00  0.00     0.210 HD
ENDBRANCH  19  26
BRANCH   5  28
HETATM   28  O1  UNL     1      12.986 -25.250  38.103  1.00  0.00    -0.396 OA
ATOM     29  H1  UNL     1      12.696 -26.117  38.362  1.00  0.00     0.210 HD
ENDBRANCH   5  28
TORSDOF 3
ENDMDL
