MODEL 7
REMARK VINA RESULT: -10.670446445      1.626      7.740
REMARK  3 active torsions:
REMARK  status: ('A' for Active; 'I' for Inactive)
REMARK    1  A    between atoms: C5_5  and  O1_6 
REMARK    2  A    between atoms: C16_18  and  C17_19 
REMARK    3  A    between atoms: C23_27  and  O4_28 
ROOT
HETATM    1  C1  UNL     1       9.725 -27.215  37.845  1.00  0.00     0.016 C 
HETATM    2  C2  UNL     1       9.329 -26.064  36.910  1.00  0.00    -0.036 C 
HETATM    3  C3  UNL     1      10.054 -26.306  35.614  1.00  0.00     0.012 C 
HETATM    4  C4  UNL     1      11.545 -26.340  35.857  1.00  0.00     0.032 C 
HETATM    5  C5  UNL     1      11.986 -25.152  36.654  1.00  0.00     0.118 C 
HETATM    6  C6  UNL     1      10.868 -24.171  36.823  1.00  0.00     0.037 C 
HETATM    7  C7  UNL     1       9.676 -24.785  37.571  1.00  0.00    -0.004 C 
HETATM    8  C8  UNL     1       8.632 -23.747  37.638  1.00  0.00     0.006 C 
HETATM    9  C9  UNL     1       7.248 -24.186  37.962  1.00  0.00     0.008 C 
HETATM   10  C10 UNL     1       7.215 -25.726  38.034  1.00  0.00     0.025 C 
HETATM   11  C11 UNL     1       7.845 -26.144  36.737  1.00  0.00     0.001 C 
HETATM   12  C12 UNL     1       7.347 -27.470  36.239  1.00  0.00     0.007 C 
HETATM   13  C13 UNL     1       5.845 -27.217  36.026  1.00  0.00     0.013 C 
HETATM   14  C14 UNL     1       5.226 -27.189  37.394  1.00  0.00    -0.005 C 
HETATM   15  C15 UNL     1       5.177 -28.631  37.878  1.00  0.00     0.019 C 
HETATM   16  C16 UNL     1       3.802 -26.704  37.227  1.00  0.00     0.028 C 
HETATM   17  C21 UNL     1       3.523 -25.898  38.475  1.00  0.00     0.013 C 
HETATM   18  C22 UNL     1       4.851 -25.213  38.706  1.00  0.00     0.040 C 
HETATM   19  C23 UNL     1       5.907 -26.278  38.363  1.00  0.00     0.070 C 
ENDROOT
BRANCH  16  20
HETATM   20  C17 UNL     1       2.810 -27.759  37.040  1.00  0.00    -0.045 A 
HETATM   21  C18 UNL     1       1.799 -27.999  37.892  1.00  0.00     0.087 A 
HETATM   22  C19 UNL     1       1.018 -29.116  37.386  1.00  0.00     0.283 A 
HETATM   23  O2  UNL     1      -0.004 -29.650  37.884  1.00  0.00    -0.260 OA
HETATM   24  O3  UNL     1       1.587 -29.546  36.200  1.00  0.00    -0.314 OA
HETATM   25  C20 UNL     1       2.696 -28.727  35.949  1.00  0.00     0.213 A 
ENDBRANCH  16  20
BRANCH  19  26
HETATM   26  O4  UNL     1       6.002 -27.023  39.570  1.00  0.00    -0.389 OA
ATOM     27  H4  UNL     1       5.298 -26.767  40.153  1.00  0.00     0.210 HD
ENDBRANCH  19  26
BRANCH   5  28
HETATM   28  O1  UNL     1      12.579 -25.462  37.857  1.00  0.00    -0.396 OA
ATOM     29  H1  UNL     1      13.334 -24.927  38.072  1.00  0.00     0.210 HD
ENDBRANCH   5  28
TORSDOF 3
ENDMDL
