MODEL 17
REMARK VINA RESULT: -9.700572860      1.751      3.419
REMARK  3 active torsions:
REMARK  status: ('A' for Active; 'I' for Inactive)
REMARK    1  A    between atoms: C5_5  and  O1_6 
REMARK    2  A    between atoms: C16_18  and  C17_19 
REMARK    3  A    between atoms: C23_27  and  O4_28 
ROOT
HETATM    1  C1  UNL     1       6.906 -25.594  38.910  1.00  0.00     0.016 C 
HETATM    2  C2  UNL     1       6.684 -25.581  37.391  1.00  0.00    -0.036 C 
HETATM    3  C3  UNL     1       5.514 -24.666  37.145  1.00  0.00     0.012 C 
HETATM    4  C4  UNL     1       4.299 -25.174  37.883  1.00  0.00     0.032 C 
HETATM    5  C5  UNL     1       4.073 -26.629  37.609  1.00  0.00     0.118 C 
HETATM    6  C6  UNL     1       4.996 -27.124  36.538  1.00  0.00     0.037 C 
HETATM    7  C7  UNL     1       6.470 -26.975  36.939  1.00  0.00    -0.004 C 
HETATM    8  C8  UNL     1       7.273 -27.452  35.799  1.00  0.00     0.006 C 
HETATM    9  C9  UNL     1       8.710 -27.066  35.763  1.00  0.00     0.008 C 
HETATM   10  C10 UNL     1       8.999 -26.103  36.931  1.00  0.00     0.025 C 
HETATM   11  C11 UNL     1       7.941 -25.049  36.778  1.00  0.00     0.001 C 
HETATM   12  C12 UNL     1       8.366 -23.706  37.296  1.00  0.00     0.007 C 
HETATM   13  C13 UNL     1       9.572 -23.360  36.407  1.00  0.00     0.013 C 
HETATM   14  C14 UNL     1      10.710 -24.212  36.893  1.00  0.00    -0.005 C 
HETATM   15  C15 UNL     1      11.177 -23.604  38.208  1.00  0.00     0.019 C 
HETATM   16  C16 UNL     1      11.832 -24.068  35.888  1.00  0.00     0.028 C 
HETATM   17  C21 UNL     1      12.499 -25.425  35.863  1.00  0.00     0.013 C 
HETATM   18  C22 UNL     1      11.316 -26.355  35.998  1.00  0.00     0.040 C 
HETATM   19  C23 UNL     1      10.387 -25.666  37.011  1.00  0.00     0.070 C 
ENDROOT
BRANCH  16  20
HETATM   20  C17 UNL     1      12.791 -23.007  36.182  1.00  0.00    -0.045 A 
HETATM   21  C18 UNL     1      13.922 -23.190  36.883  1.00  0.00     0.087 A 
HETATM   22  C19 UNL     1      14.624 -21.920  36.976  1.00  0.00     0.283 A 
HETATM   23  O2  UNL     1      15.713 -21.664  37.545  1.00  0.00    -0.260 OA
HETATM   24  O3  UNL     1      13.882 -20.961  36.308  1.00  0.00    -0.314 OA
HETATM   25  C20 UNL     1      12.742 -21.597  35.798  1.00  0.00     0.213 A 
ENDBRANCH  16  20
BRANCH  19  26
HETATM   26  O4  UNL     1      10.934 -26.067  38.260  1.00  0.00    -0.389 OA
ATOM     27  H4  UNL     1      11.756 -25.612  38.404  1.00  0.00     0.210 HD
ENDBRANCH  19  26
BRANCH   5  28
HETATM   28  O1  UNL     1       4.111 -27.431  38.727  1.00  0.00    -0.396 OA
ATOM     29  H1  UNL     1       3.571 -28.210  38.670  1.00  0.00     0.210 HD
ENDBRANCH   5  28
TORSDOF 3
ENDMDL
