MODEL 4
REMARK VINA RESULT: -7.820732107      1.068      1.401
REMARK  7 active torsions:
REMARK  status: ('A' for Active; 'I' for Inactive)
REMARK    1  A    between atoms: C3_4  and  O2_5 
REMARK    2  A    between atoms: N1_7  and  C4_8 
REMARK    3  A    between atoms: C5_10  and  C6_11 
REMARK    4  A    between atoms: C6_11  and  O4_12 
REMARK    5  A    between atoms: O4_12  and  P1_13 
REMARK    6  A    between atoms: C7_17  and  O8_18 
REMARK    7  A    between atoms: C8_20  and  O9_21 
ROOT
HETATM    1  C4  UNL     1      40.565  40.169  37.396  1.00  0.00     0.266 C 
HETATM    2  O3  UNL     1      40.148  39.013  37.986  1.00  0.00    -0.353 OA
HETATM    3  C5  UNL     1      39.494  38.229  37.089  1.00  0.00     0.180 C 
HETATM    4  C7  UNL     1      39.347  38.958  35.795  1.00  0.00     0.182 C 
HETATM    5  C8  UNL     1      40.352  40.074  35.922  1.00  0.00     0.198 C 
ENDROOT
BRANCH   1   6
HETATM    6  N1  UNL     1      41.962  40.390  37.715  1.00  0.00    -0.249 N 
HETATM    7  C3  UNL     1      42.266  41.099  38.813  1.00  0.00     0.153 A 
HETATM    8  C2  UNL     1      43.590  41.349  39.178  1.00  0.00     0.130 A 
HETATM    9  C1  UNL     1      44.604  40.854  38.387  1.00  0.00     0.253 A 
HETATM   10  O1  UNL     1      45.824  41.049  38.668  1.00  0.00    -0.268 OA
HETATM   11  N2  UNL     1      44.266  40.145  37.290  1.00  0.00    -0.275 N 
HETATM   12  C9  UNL     1      42.965  39.925  36.971  1.00  0.00     0.333 A 
ATOM     13  H2  UNL     1      45.000  39.769  36.690  1.00  0.00     0.173 HD
HETATM   14  O10 UNL     1      42.704  39.259  35.940  1.00  0.00    -0.246 OA
BRANCH   7  15
HETATM   15  O2  UNL     1      41.291  41.625  39.650  1.00  0.00    -0.346 OA
ATOM     16  H2  UNL     1      40.938  41.033  40.302  1.00  0.00     0.219 HD
ENDBRANCH   7  15
ENDBRANCH   1   6
BRANCH   5  17
HETATM   17  O9  UNL     1      39.740  41.229  35.412  1.00  0.00    -0.388 OA
ATOM     18  H9  UNL     1      39.794  41.265  34.464  1.00  0.00     0.210 HD
ENDBRANCH   5  17
BRANCH   3  19
HETATM   19  C6  UNL     1      40.304  36.953  36.853  1.00  0.00     0.217 C 
BRANCH  19  20
HETATM   20  O4  UNL     1      40.149  36.622  35.496  1.00  0.00    -0.280 OA
BRANCH  20  21
HETATM   21  P1  UNL     1      39.725  35.007  35.400  1.00  0.00     0.422 P 
HETATM   22  O5  UNL     1      40.821  34.297  34.607  1.00  0.00    -0.617 OA
HETATM   23  O6  UNL     1      39.640  34.260  36.902  1.00  0.00    -0.617 OA
HETATM   24  O7  UNL     1      38.279  34.872  34.539  1.00  0.00    -0.617 OA
ENDBRANCH  20  21
ENDBRANCH  19  20
ENDBRANCH   3  19
BRANCH   4  25
HETATM   25  O8  UNL     1      38.052  39.456  35.608  1.00  0.00    -0.390 OA
ATOM     26  H8  UNL     1      37.454  38.793  35.283  1.00  0.00     0.210 HD
ENDBRANCH   4  25
TORSDOF 7
ENDMDL
