MODEL 1
REMARK VINA RESULT: -8.022891277      0.000      0.000
REMARK  7 active torsions:
REMARK  status: ('A' for Active; 'I' for Inactive)
REMARK    1  A    between atoms: C3_4  and  O2_5 
REMARK    2  A    between atoms: N1_7  and  C4_8 
REMARK    3  A    between atoms: C5_10  and  C6_11 
REMARK    4  A    between atoms: C6_11  and  O4_12 
REMARK    5  A    between atoms: O4_12  and  P1_13 
REMARK    6  A    between atoms: C7_17  and  O8_18 
REMARK    7  A    between atoms: C8_20  and  O9_21 
ROOT
HETATM    1  C4  UNL     1      40.340  39.442  37.177  1.00  0.00     0.266 C 
HETATM    2  O3  UNL     1      40.082  38.346  37.945  1.00  0.00    -0.353 OA
HETATM    3  C5  UNL     1      39.632  37.321  37.176  1.00  0.00     0.180 C 
HETATM    4  C7  UNL     1      39.456  37.786  35.769  1.00  0.00     0.182 C 
HETATM    5  C8  UNL     1      40.249  39.066  35.736  1.00  0.00     0.198 C 
ENDROOT
BRANCH   1   6
HETATM    6  N1  UNL     1      41.655  39.957  37.507  1.00  0.00    -0.249 N 
HETATM    7  C3  UNL     1      41.779  40.777  38.561  1.00  0.00     0.153 A 
HETATM    8  C2  UNL     1      43.015  41.308  38.934  1.00  0.00     0.130 A 
HETATM    9  C1  UNL     1      44.131  40.978  38.196  1.00  0.00     0.253 A 
HETATM   10  O1  UNL     1      45.279  41.429  38.486  1.00  0.00    -0.268 OA
HETATM   11  N2  UNL     1      43.974  40.152  37.141  1.00  0.00    -0.275 N 
HETATM   12  C9  UNL     1      42.753  39.657  36.813  1.00  0.00     0.333 A 
ATOM     13  H2  UNL     1      44.786  39.894  36.581  1.00  0.00     0.173 HD
HETATM   14  O10 UNL     1      42.661  38.893  35.823  1.00  0.00    -0.246 OA
BRANCH   7  15
HETATM   15  O2  UNL     1      40.694  41.147  39.344  1.00  0.00    -0.346 OA
ATOM     16  H2  UNL     1      40.326  40.467  39.896  1.00  0.00     0.219 HD
ENDBRANCH   7  15
ENDBRANCH   1   6
BRANCH   5  17
HETATM   17  O9  UNL     1      39.490  39.994  35.006  1.00  0.00    -0.388 OA
ATOM     18  H9  UNL     1      39.986  40.364  34.286  1.00  0.00     0.210 HD
ENDBRANCH   5  17
BRANCH   3  19
HETATM   19  C6  UNL     1      40.658  36.186  37.201  1.00  0.00     0.217 C 
BRANCH  19  20
HETATM   20  O4  UNL     1      40.670  35.625  35.913  1.00  0.00    -0.280 OA
BRANCH  20  21
HETATM   21  P1  UNL     1      40.702  33.960  36.071  1.00  0.00     0.422 P 
HETATM   22  O5  UNL     1      41.081  33.651  37.519  1.00  0.00    -0.617 OA
HETATM   23  O6  UNL     1      39.209  33.245  35.788  1.00  0.00    -0.617 OA
HETATM   24  O7  UNL     1      41.907  33.339  35.066  1.00  0.00    -0.617 OA
ENDBRANCH  20  21
ENDBRANCH  19  20
ENDBRANCH   3  19
BRANCH   4  25
HETATM   25  O8  UNL     1      38.112  38.009  35.446  1.00  0.00    -0.390 OA
ATOM     26  H8  UNL     1      38.010  38.608  34.716  1.00  0.00     0.210 HD
ENDBRANCH   4  25
TORSDOF 7
ENDMDL
