MODEL 15
REMARK VINA RESULT: -7.110078444      2.887      5.780
REMARK  7 active torsions:
REMARK  status: ('A' for Active; 'I' for Inactive)
REMARK    1  A    between atoms: C3_4  and  O2_5 
REMARK    2  A    between atoms: N1_7  and  C4_8 
REMARK    3  A    between atoms: C5_10  and  C6_11 
REMARK    4  A    between atoms: C6_11  and  O4_12 
REMARK    5  A    between atoms: O4_12  and  P1_13 
REMARK    6  A    between atoms: C7_17  and  O8_18 
REMARK    7  A    between atoms: C8_20  and  O9_21 
ROOT
HETATM    1  C4  UNL     1      39.419  38.757  35.534  1.00  0.00     0.266 C 
HETATM    2  O3  UNL     1      40.540  39.199  34.897  1.00  0.00    -0.353 OA
HETATM    3  C5  UNL     1      40.941  40.392  35.409  1.00  0.00     0.180 C 
HETATM    4  C7  UNL     1      39.943  40.871  36.410  1.00  0.00     0.182 C 
HETATM    5  C8  UNL     1      39.150  39.627  36.717  1.00  0.00     0.198 C 
ENDROOT
BRANCH   1   6
HETATM    6  N1  UNL     1      39.608  37.374  35.927  1.00  0.00    -0.249 N 
HETATM    7  C3  UNL     1      39.906  37.104  37.207  1.00  0.00     0.153 A 
HETATM    8  C2  UNL     1      40.101  35.796  37.652  1.00  0.00     0.130 A 
HETATM    9  C1  UNL     1      39.983  34.761  36.750  1.00  0.00     0.253 A 
HETATM   10  O1  UNL     1      40.148  33.553  37.095  1.00  0.00    -0.268 OA
HETATM   11  N2  UNL     1      39.682  35.065  35.470  1.00  0.00    -0.275 N 
HETATM   12  C9  UNL     1      39.501  36.352  35.079  1.00  0.00     0.333 A 
ATOM     13  H2  UNL     1      39.590  34.315  34.785  1.00  0.00     0.173 HD
HETATM   14  O10 UNL     1      39.223  36.580  33.877  1.00  0.00    -0.246 OA
BRANCH   7  15
HETATM   15  O2  UNL     1      40.039  38.101  38.164  1.00  0.00    -0.346 OA
ATOM     16  H2  UNL     1      39.666  37.913  39.017  1.00  0.00     0.219 HD
ENDBRANCH   7  15
ENDBRANCH   1   6
BRANCH   5  17
HETATM   17  O9  UNL     1      37.803  40.012  36.780  1.00  0.00    -0.388 OA
ATOM     18  H9  UNL     1      37.300  39.438  37.348  1.00  0.00     0.210 HD
ENDBRANCH   5  17
BRANCH   3  19
HETATM   19  C6  UNL     1      42.294  40.213  36.099  1.00  0.00     0.217 C 
BRANCH  19  20
HETATM   20  O4  UNL     1      43.074  41.330  35.753  1.00  0.00    -0.280 OA
BRANCH  20  21
HETATM   21  P1  UNL     1      44.231  40.834  34.651  1.00  0.00     0.422 P 
HETATM   22  O5  UNL     1      43.870  39.412  34.226  1.00  0.00    -0.617 OA
HETATM   23  O6  UNL     1      44.258  41.774  33.260  1.00  0.00    -0.617 OA
HETATM   24  O7  UNL     1      45.733  40.790  35.420  1.00  0.00    -0.617 OA
ENDBRANCH  20  21
ENDBRANCH  19  20
ENDBRANCH   3  19
BRANCH   4  25
HETATM   25  O8  UNL     1      39.124  41.887  35.903  1.00  0.00    -0.390 OA
ATOM     26  H8  UNL     1      38.783  42.451  36.587  1.00  0.00     0.210 HD
ENDBRANCH   4  25
TORSDOF 7
ENDMDL
