MODEL 16
REMARK VINA RESULT: -7.096640262      2.995      5.086
REMARK  7 active torsions:
REMARK  status: ('A' for Active; 'I' for Inactive)
REMARK    1  A    between atoms: C3_4  and  O2_5 
REMARK    2  A    between atoms: N1_7  and  C4_8 
REMARK    3  A    between atoms: C5_10  and  C6_11 
REMARK    4  A    between atoms: C6_11  and  O4_12 
REMARK    5  A    between atoms: O4_12  and  P1_13 
REMARK    6  A    between atoms: C7_17  and  O8_18 
REMARK    7  A    between atoms: C8_20  and  O9_21 
ROOT
HETATM    1  C4  UNL     1      39.857  38.837  35.693  1.00  0.00     0.266 C 
HETATM    2  O3  UNL     1      40.331  37.563  35.806  1.00  0.00    -0.353 OA
HETATM    3  C5  UNL     1      40.023  37.046  37.024  1.00  0.00     0.180 C 
HETATM    4  C7  UNL     1      39.380  38.096  37.869  1.00  0.00     0.182 C 
HETATM    5  C8  UNL     1      38.977  39.140  36.861  1.00  0.00     0.198 C 
ENDROOT
BRANCH   1   6
HETATM    6  N1  UNL     1      39.138  38.969  34.441  1.00  0.00    -0.249 N 
HETATM    7  C3  UNL     1      39.391  38.092  33.458  1.00  0.00     0.153 A 
HETATM    8  C2  UNL     1      38.735  38.162  32.228  1.00  0.00     0.130 A 
HETATM    9  C1  UNL     1      37.807  39.160  32.025  1.00  0.00     0.253 A 
HETATM   10  O1  UNL     1      37.180  39.275  30.930  1.00  0.00    -0.268 OA
HETATM   11  N2  UNL     1      37.575  40.028  33.032  1.00  0.00    -0.275 N 
HETATM   12  C9  UNL     1      38.236  39.924  34.213  1.00  0.00     0.333 A 
ATOM     13  H2  UNL     1      36.893  40.775  32.904  1.00  0.00     0.173 HD
HETATM   14  O10 UNL     1      37.984  40.756  35.117  1.00  0.00    -0.246 OA
BRANCH   7  15
HETATM   15  O2  UNL     1      40.313  37.064  33.601  1.00  0.00    -0.346 OA
ATOM     16  H2  UNL     1      41.222  37.296  33.455  1.00  0.00     0.219 HD
ENDBRANCH   7  15
ENDBRANCH   1   6
BRANCH   5  17
HETATM   17  O9  UNL     1      39.281  40.387  37.427  1.00  0.00    -0.388 OA
ATOM     18  H9  UNL     1      39.439  40.319  38.361  1.00  0.00     0.210 HD
ENDBRANCH   5  17
BRANCH   3  19
HETATM   19  C6  UNL     1      39.046  35.883  36.844  1.00  0.00     0.217 C 
BRANCH  19  20
HETATM   20  O4  UNL     1      39.820  34.713  36.772  1.00  0.00    -0.280 OA
BRANCH  20  21
HETATM   21  P1  UNL     1      39.570  34.015  35.273  1.00  0.00     0.422 P 
HETATM   22  O5  UNL     1      40.878  34.138  34.493  1.00  0.00    -0.617 OA
HETATM   23  O6  UNL     1      39.200  32.380  35.363  1.00  0.00    -0.617 OA
HETATM   24  O7  UNL     1      38.383  34.893  34.454  1.00  0.00    -0.617 OA
ENDBRANCH  20  21
ENDBRANCH  19  20
ENDBRANCH   3  19
BRANCH   4  25
HETATM   25  O8  UNL     1      40.257  38.620  38.825  1.00  0.00    -0.390 OA
ATOM     26  H8  UNL     1      39.881  38.623  39.698  1.00  0.00     0.210 HD
ENDBRANCH   4  25
TORSDOF 7
ENDMDL
