MODEL 5
REMARK VINA RESULT: -7.776378835      1.773      2.030
REMARK  7 active torsions:
REMARK  status: ('A' for Active; 'I' for Inactive)
REMARK    1  A    between atoms: C3_4  and  O2_5 
REMARK    2  A    between atoms: N1_7  and  C4_8 
REMARK    3  A    between atoms: C5_10  and  C6_11 
REMARK    4  A    between atoms: C6_11  and  O4_12 
REMARK    5  A    between atoms: O4_12  and  P1_13 
REMARK    6  A    between atoms: C7_17  and  O8_18 
REMARK    7  A    between atoms: C8_20  and  O9_21 
ROOT
HETATM    1  C4  UNL     1      40.774  40.141  37.215  1.00  0.00     0.266 C 
HETATM    2  O3  UNL     1      40.689  38.956  37.885  1.00  0.00    -0.353 OA
HETATM    3  C5  UNL     1      39.605  38.251  37.470  1.00  0.00     0.180 C 
HETATM    4  C7  UNL     1      38.806  39.071  36.512  1.00  0.00     0.182 C 
HETATM    5  C8  UNL     1      39.773  40.152  36.107  1.00  0.00     0.198 C 
ENDROOT
BRANCH   1   6
HETATM    6  N1  UNL     1      42.123  40.308  36.711  1.00  0.00    -0.249 N 
HETATM    7  C3  UNL     1      43.016  40.961  37.470  1.00  0.00     0.153 A 
HETATM    8  C2  UNL     1      44.331  41.158  37.046  1.00  0.00     0.130 A 
HETATM    9  C1  UNL     1      44.714  40.668  35.816  1.00  0.00     0.253 A 
HETATM   10  O1  UNL     1      45.894  40.816  35.377  1.00  0.00    -0.268 OA
HETATM   11  N2  UNL     1      43.793  40.017  35.076  1.00  0.00    -0.275 N 
HETATM   12  C9  UNL     1      42.524  39.847  35.527  1.00  0.00     0.333 A 
ATOM     13  H2  UNL     1      44.054  39.646  34.163  1.00  0.00     0.173 HD
HETATM   14  O10 UNL     1      41.706  39.234  34.800  1.00  0.00    -0.246 OA
BRANCH   7  15
HETATM   15  O2  UNL     1      42.693  41.478  38.717  1.00  0.00    -0.346 OA
ATOM     16  H2  UNL     1      41.842  41.896  38.788  1.00  0.00     0.219 HD
ENDBRANCH   7  15
ENDBRANCH   1   6
BRANCH   5  17
HETATM   17  O9  UNL     1      39.049  41.353  36.077  1.00  0.00    -0.388 OA
ATOM     18  H9  UNL     1      39.101  41.773  35.226  1.00  0.00     0.210 HD
ENDBRANCH   5  17
BRANCH   3  19
HETATM   19  C6  UNL     1      40.073  36.976  36.766  1.00  0.00     0.217 C 
BRANCH  19  20
HETATM   20  O4  UNL     1      38.961  36.121  36.697  1.00  0.00    -0.280 OA
BRANCH  20  21
HETATM   21  P1  UNL     1      39.001  35.333  35.223  1.00  0.00     0.422 P 
HETATM   22  O5  UNL     1      39.223  33.848  35.509  1.00  0.00    -0.617 OA
HETATM   23  O6  UNL     1      37.560  35.461  34.370  1.00  0.00    -0.617 OA
HETATM   24  O7  UNL     1      40.319  35.902  34.336  1.00  0.00    -0.617 OA
ENDBRANCH  20  21
ENDBRANCH  19  20
ENDBRANCH   3  19
BRANCH   4  25
HETATM   25  O8  UNL     1      37.656  39.609  37.101  1.00  0.00    -0.390 OA
ATOM     26  H8  UNL     1      36.873  39.118  36.879  1.00  0.00     0.210 HD
ENDBRANCH   4  25
TORSDOF 7
ENDMDL
