MODEL 3
REMARK VINA RESULT: -7.844845250      0.904      1.317
REMARK  7 active torsions:
REMARK  status: ('A' for Active; 'I' for Inactive)
REMARK    1  A    between atoms: C3_4  and  O2_5 
REMARK    2  A    between atoms: N1_7  and  C4_8 
REMARK    3  A    between atoms: C5_10  and  C6_11 
REMARK    4  A    between atoms: C6_11  and  O4_12 
REMARK    5  A    between atoms: O4_12  and  P1_13 
REMARK    6  A    between atoms: C7_17  and  O8_18 
REMARK    7  A    between atoms: C8_20  and  O9_21 
ROOT
HETATM    1  C4  UNL     1      40.235  39.720  36.355  1.00  0.00     0.266 C 
HETATM    2  O3  UNL     1      39.696  38.845  37.251  1.00  0.00    -0.353 OA
HETATM    3  C5  UNL     1      39.126  37.794  36.607  1.00  0.00     0.180 C 
HETATM    4  C7  UNL     1      39.175  38.019  35.132  1.00  0.00     0.182 C 
HETATM    5  C8  UNL     1      40.204  39.110  34.993  1.00  0.00     0.198 C 
ENDROOT
BRANCH   1   6
HETATM    6  N1  UNL     1      41.589  40.043  36.759  1.00  0.00    -0.249 N 
HETATM    7  C3  UNL     1      41.776  40.708  37.909  1.00  0.00     0.153 A 
HETATM    8  C2  UNL     1      43.052  41.051  38.357  1.00  0.00     0.130 A 
HETATM    9  C1  UNL     1      44.143  40.695  37.595  1.00  0.00     0.253 A 
HETATM   10  O1  UNL     1      45.326  40.979  37.949  1.00  0.00    -0.268 OA
HETATM   11  N2  UNL     1      43.923  40.028  36.442  1.00  0.00    -0.275 N 
HETATM   12  C9  UNL     1      42.664  39.714  36.044  1.00  0.00     0.333 A 
ATOM     13  H2  UNL     1      44.716  39.754  35.862  1.00  0.00     0.173 HD
HETATM   14  O10 UNL     1      42.514  39.092  34.965  1.00  0.00    -0.246 OA
BRANCH   7  15
HETATM   15  O2  UNL     1      40.719  41.094  38.722  1.00  0.00    -0.346 OA
ATOM     16  H2  UNL     1      40.577  42.030  38.807  1.00  0.00     0.219 HD
ENDBRANCH   7  15
ENDBRANCH   1   6
BRANCH   5  17
HETATM   17  O9  UNL     1      39.713  40.010  34.035  1.00  0.00    -0.388 OA
ATOM     18  H9  UNL     1      40.418  40.450  33.573  1.00  0.00     0.210 HD
ENDBRANCH   5  17
BRANCH   3  19
HETATM   19  C6  UNL     1      39.901  36.518  36.942  1.00  0.00     0.217 C 
BRANCH  19  20
HETATM   20  O4  UNL     1      39.095  35.439  36.542  1.00  0.00    -0.280 OA
BRANCH  20  21
HETATM   21  P1  UNL     1      40.090  34.259  35.897  1.00  0.00     0.422 P 
HETATM   22  O5  UNL     1      40.733  34.846  34.641  1.00  0.00    -0.617 OA
HETATM   23  O6  UNL     1      41.337  33.814  36.930  1.00  0.00    -0.617 OA
HETATM   24  O7  UNL     1      39.143  32.939  35.436  1.00  0.00    -0.617 OA
ENDBRANCH  20  21
ENDBRANCH  19  20
ENDBRANCH   3  19
BRANCH   4  25
HETATM   25  O8  UNL     1      37.936  38.416  34.613  1.00  0.00    -0.390 OA
ATOM     26  H8  UNL     1      37.525  37.732  34.098  1.00  0.00     0.210 HD
ENDBRANCH   4  25
TORSDOF 7
ENDMDL
