MODEL 2
REMARK VINA RESULT: -7.901886789      1.622      2.111
REMARK  7 active torsions:
REMARK  status: ('A' for Active; 'I' for Inactive)
REMARK    1  A    between atoms: C3_4  and  O2_5 
REMARK    2  A    between atoms: N1_7  and  C4_8 
REMARK    3  A    between atoms: C5_10  and  C6_11 
REMARK    4  A    between atoms: C6_11  and  O4_12 
REMARK    5  A    between atoms: O4_12  and  P1_13 
REMARK    6  A    between atoms: C7_17  and  O8_18 
REMARK    7  A    between atoms: C8_20  and  O9_21 
ROOT
HETATM    1  C4  UNL     1      40.149  40.562  37.770  1.00  0.00     0.266 C 
HETATM    2  O3  UNL     1      39.733  39.279  37.968  1.00  0.00    -0.353 OA
HETATM    3  C5  UNL     1      38.781  38.941  37.060  1.00  0.00     0.180 C 
HETATM    4  C7  UNL     1      38.426  40.133  36.234  1.00  0.00     0.182 C 
HETATM    5  C8  UNL     1      39.574  41.073  36.490  1.00  0.00     0.198 C 
ENDROOT
BRANCH   1   6
HETATM    6  N1  UNL     1      41.598  40.595  37.749  1.00  0.00    -0.249 N 
HETATM    7  C3  UNL     1      42.244  41.138  38.792  1.00  0.00     0.153 A 
HETATM    8  C2  UNL     1      43.637  41.202  38.837  1.00  0.00     0.130 A 
HETATM    9  C1  UNL     1      44.361  40.696  37.780  1.00  0.00     0.253 A 
HETATM   10  O1  UNL     1      45.628  40.727  37.764  1.00  0.00    -0.268 OA
HETATM   11  N2  UNL     1      43.684  40.158  36.745  1.00  0.00    -0.275 N 
HETATM   12  C9  UNL     1      42.327  40.115  36.742  1.00  0.00     0.333 A 
ATOM     13  H2  UNL     1      44.199  39.777  35.951  1.00  0.00     0.173 HD
HETATM   14  O10 UNL     1      41.745  39.603  35.755  1.00  0.00    -0.246 OA
BRANCH   7  15
HETATM   15  O2  UNL     1      41.572  41.665  39.887  1.00  0.00    -0.346 OA
ATOM     16  H2  UNL     1      41.018  42.417  39.715  1.00  0.00     0.219 HD
ENDBRANCH   7  15
ENDBRANCH   1   6
BRANCH   5  17
HETATM   17  O9  UNL     1      39.021  42.353  36.647  1.00  0.00    -0.388 OA
ATOM     18  H9  UNL     1      38.700  42.491  37.531  1.00  0.00     0.210 HD
ENDBRANCH   5  17
BRANCH   3  19
HETATM   19  C6  UNL     1      39.327  37.844  36.144  1.00  0.00     0.217 C 
BRANCH  19  20
HETATM   20  O4  UNL     1      38.622  36.669  36.456  1.00  0.00    -0.280 OA
BRANCH  20  21
HETATM   21  P1  UNL     1      39.002  35.515  35.308  1.00  0.00     0.422 P 
HETATM   22  O5  UNL     1      40.155  36.068  34.473  1.00  0.00    -0.617 OA
HETATM   23  O6  UNL     1      39.528  34.068  35.979  1.00  0.00    -0.617 OA
HETATM   24  O7  UNL     1      37.671  35.298  34.291  1.00  0.00    -0.617 OA
ENDBRANCH  20  21
ENDBRANCH  19  20
ENDBRANCH   3  19
BRANCH   4  25
HETATM   25  O8  UNL     1      37.205  40.701  36.616  1.00  0.00    -0.390 OA
ATOM     26  H8  UNL     1      37.307  41.580  36.960  1.00  0.00     0.210 HD
ENDBRANCH   4  25
TORSDOF 7
ENDMDL
