MODEL 9
REMARK VINA RESULT: -7.351817550      2.911      6.056
REMARK  7 active torsions:
REMARK  status: ('A' for Active; 'I' for Inactive)
REMARK    1  A    between atoms: C3_4  and  O2_5 
REMARK    2  A    between atoms: N1_7  and  C4_8 
REMARK    3  A    between atoms: C5_10  and  C6_11 
REMARK    4  A    between atoms: C6_11  and  O4_12 
REMARK    5  A    between atoms: O4_12  and  P1_13 
REMARK    6  A    between atoms: C7_17  and  O8_18 
REMARK    7  A    between atoms: C8_20  and  O9_21 
ROOT
HETATM    1  C4  UNL     1      39.362  38.871  35.550  1.00  0.00     0.266 C 
HETATM    2  O3  UNL     1      40.476  39.311  34.898  1.00  0.00    -0.353 OA
HETATM    3  C5  UNL     1      40.944  40.450  35.472  1.00  0.00     0.180 C 
HETATM    4  C7  UNL     1      40.005  40.899  36.541  1.00  0.00     0.182 C 
HETATM    5  C8  UNL     1      39.173  39.669  36.797  1.00  0.00     0.198 C 
ENDROOT
BRANCH   1   6
HETATM    6  N1  UNL     1      39.508  37.458  35.843  1.00  0.00    -0.249 N 
HETATM    7  C3  UNL     1      39.413  36.579  34.834  1.00  0.00     0.153 A 
HETATM    8  C2  UNL     1      39.544  35.205  35.046  1.00  0.00     0.130 A 
HETATM    9  C1  UNL     1      39.775  34.748  36.325  1.00  0.00     0.253 A 
HETATM   10  O1  UNL     1      39.902  33.514  36.580  1.00  0.00    -0.268 OA
HETATM   11  N2  UNL     1      39.864  35.657  37.319  1.00  0.00    -0.275 N 
HETATM   12  C9  UNL     1      39.731  36.985  37.068  1.00  0.00     0.333 A 
ATOM     13  H2  UNL     1      40.035  35.342  38.273  1.00  0.00     0.173 HD
HETATM   14  O10 UNL     1      39.824  37.788  38.027  1.00  0.00    -0.246 OA
BRANCH   7  15
HETATM   15  O2  UNL     1      39.182  36.975  33.524  1.00  0.00    -0.346 OA
ATOM     16  H2  UNL     1      39.919  37.366  33.070  1.00  0.00     0.219 HD
ENDBRANCH   7  15
ENDBRANCH   1   6
BRANCH   5  17
HETATM   17  O9  UNL     1      37.846  40.100  36.939  1.00  0.00    -0.388 OA
ATOM     18  H9  UNL     1      37.690  40.477  37.797  1.00  0.00     0.210 HD
ENDBRANCH   5  17
BRANCH   3  19
HETATM   19  C6  UNL     1      42.314  40.173  36.094  1.00  0.00     0.217 C 
BRANCH  19  20
HETATM   20  O4  UNL     1      43.116  41.293  35.818  1.00  0.00    -0.280 OA
BRANCH  20  21
HETATM   21  P1  UNL     1      44.262  40.846  34.686  1.00  0.00     0.422 P 
HETATM   22  O5  UNL     1      43.915  39.430  34.225  1.00  0.00    -0.617 OA
HETATM   23  O6  UNL     1      44.256  41.825  33.321  1.00  0.00    -0.617 OA
HETATM   24  O7  UNL     1      45.777  40.801  35.431  1.00  0.00    -0.617 OA
ENDBRANCH  20  21
ENDBRANCH  19  20
ENDBRANCH   3  19
BRANCH   4  25
HETATM   25  O8  UNL     1      39.211  41.977  36.135  1.00  0.00    -0.390 OA
ATOM     26  H8  UNL     1      38.307  41.725  35.989  1.00  0.00     0.210 HD
ENDBRANCH   4  25
TORSDOF 7
ENDMDL
