MODEL 4
REMARK VINA RESULT: -7.979576483      0.985      1.151
REMARK  8 active torsions:
REMARK  status: ('A' for Active; 'I' for Inactive)
REMARK    1  A    between atoms: C2_2  and  C3_3 
REMARK    2  A    between atoms: C3_3  and  C4_4 
REMARK    3  A    between atoms: C4_4  and  C5_5 
REMARK    4  A    between atoms: C5_5  and  C6_6 
REMARK    5  A    between atoms: C6_6  and  C7_7 
REMARK    6  A    between atoms: C8_8  and  C9_9 
REMARK    7  A    between atoms: C14_14  and  C15_15 
REMARK    8  A    between atoms: C16_16  and  C17_17 
ROOT
HETATM    1  C9  UNL     1     -29.547 152.679  57.463  1.00  0.00     0.028 A 
HETATM    2  C10 UNL     1     -30.817 153.158  57.836  1.00  0.00     0.021 A 
HETATM    3  C11 UNL     1     -31.981 152.508  57.514  1.00  0.00     0.002 A 
HETATM    4  C12 UNL     1     -31.862 151.343  56.797  1.00  0.00     0.001 A 
HETATM    5  C13 UNL     1     -30.635 150.850  56.417  1.00  0.00     0.013 A 
HETATM    6  C14 UNL     1     -29.445 151.530  56.755  1.00  0.00    -0.017 A 
ENDROOT
BRANCH   1   7
HETATM    7  C8  UNL     1     -28.387 153.430  57.913  1.00  0.00    -0.066 C 
HETATM    8  C7  UNL     1     -27.404 154.017  58.275  1.00  0.00    -0.101 C 
BRANCH   8   9
HETATM    9  C6  UNL     1     -26.198 154.734  58.692  1.00  0.00     0.094 C 
BRANCH   9  10
HETATM   10  C5  UNL     1     -25.019 153.890  58.353  1.00  0.00     0.012 C 
BRANCH  10  11
HETATM   11  C4  UNL     1     -25.158 152.451  58.780  1.00  0.00     0.001 C 
BRANCH  11  12
HETATM   12  C3  UNL     1     -24.342 151.504  57.973  1.00  0.00    -0.000 C 
BRANCH  12  13
HETATM   13  C2  UNL     1     -24.061 152.174  56.630  1.00  0.00    -0.005 C 
HETATM   14  C1  UNL     1     -23.043 151.392  55.835  1.00  0.00     0.005 C 
ENDBRANCH  12  13
ENDBRANCH  11  12
ENDBRANCH  10  11
ENDBRANCH   9  10
ENDBRANCH   8   9
ENDBRANCH   1   7
BRANCH   6  15
HETATM   15  C15 UNL     1     -28.215 150.985  56.270  1.00  0.00     0.020 C 
HETATM   16  C16 UNL     1     -27.764 149.778  56.166  1.00  0.00     0.085 C 
BRANCH  16  17
HETATM   17  C17 UNL     1     -26.410 149.562  55.602  1.00  0.00     0.198 C 
HETATM   18  O1  UNL     1     -26.096 150.029  54.476  1.00  0.00    -0.645 OA
HETATM   19  O2  UNL     1     -25.462 148.841  56.301  1.00  0.00    -0.645 OA
ENDBRANCH  16  17
ENDBRANCH   6  15
TORSDOF 8
ENDMDL
