MODEL 6
REMARK VINA RESULT: -7.550477498      2.261      7.007
REMARK  8 active torsions:
REMARK  status: ('A' for Active; 'I' for Inactive)
REMARK    1  A    between atoms: C2_2  and  C3_3 
REMARK    2  A    between atoms: C3_3  and  C4_4 
REMARK    3  A    between atoms: C4_4  and  C5_5 
REMARK    4  A    between atoms: C5_5  and  C6_6 
REMARK    5  A    between atoms: C6_6  and  C7_7 
REMARK    6  A    between atoms: C8_8  and  C9_9 
REMARK    7  A    between atoms: C14_14  and  C15_15 
REMARK    8  A    between atoms: C16_16  and  C17_17 
ROOT
HETATM    1  C9  UNL     1     -25.349 150.898  55.936  1.00  0.00     0.028 A 
HETATM    2  C10 UNL     1     -24.668 150.198  54.923  1.00  0.00     0.021 A 
HETATM    3  C11 UNL     1     -23.333 150.380  54.661  1.00  0.00     0.002 A 
HETATM    4  C12 UNL     1     -22.668 151.292  55.443  1.00  0.00     0.001 A 
HETATM    5  C13 UNL     1     -23.307 151.992  56.440  1.00  0.00     0.013 A 
HETATM    6  C14 UNL     1     -24.680 151.796  56.698  1.00  0.00    -0.017 A 
ENDROOT
BRANCH   1   7
HETATM    7  C8  UNL     1     -26.750 150.576  56.151  1.00  0.00    -0.066 C 
HETATM    8  C7  UNL     1     -27.916 150.324  56.291  1.00  0.00    -0.101 C 
BRANCH   8   9
HETATM    9  C6  UNL     1     -29.334 150.000  56.443  1.00  0.00     0.094 C 
BRANCH   9  10
HETATM   10  C5  UNL     1     -30.121 151.240  56.196  1.00  0.00     0.012 C 
BRANCH  10  11
HETATM   11  C4  UNL     1     -31.569 151.131  56.598  1.00  0.00     0.001 C 
BRANCH  11  12
HETATM   12  C3  UNL     1     -31.987 152.134  57.615  1.00  0.00    -0.000 C 
BRANCH  12  13
HETATM   13  C2  UNL     1     -30.770 153.001  57.928  1.00  0.00    -0.005 C 
HETATM   14  C1  UNL     1     -31.185 154.399  58.319  1.00  0.00     0.005 C 
ENDBRANCH  12  13
ENDBRANCH  11  12
ENDBRANCH  10  11
ENDBRANCH   9  10
ENDBRANCH   8   9
ENDBRANCH   1   7
BRANCH   6  15
HETATM   15  C15 UNL     1     -25.283 152.607  57.710  1.00  0.00     0.020 C 
HETATM   16  C16 UNL     1     -25.289 153.880  57.935  1.00  0.00     0.085 C 
BRANCH  16  17
HETATM   17  C17 UNL     1     -26.037 154.400  59.103  1.00  0.00     0.198 C 
HETATM   18  O1  UNL     1     -27.166 153.936  59.409  1.00  0.00    -0.645 OA
HETATM   19  O2  UNL     1     -25.510 155.410  59.885  1.00  0.00    -0.645 OA
ENDBRANCH  16  17
ENDBRANCH   6  15
TORSDOF 8
ENDMDL
