MODEL 5
REMARK VINA RESULT: -7.590004420      1.678      5.916
REMARK  8 active torsions:
REMARK  status: ('A' for Active; 'I' for Inactive)
REMARK    1  A    between atoms: C2_2  and  C3_3 
REMARK    2  A    between atoms: C3_3  and  C4_4 
REMARK    3  A    between atoms: C4_4  and  C5_5 
REMARK    4  A    between atoms: C5_5  and  C6_6 
REMARK    5  A    between atoms: C6_6  and  C7_7 
REMARK    6  A    between atoms: C8_8  and  C9_9 
REMARK    7  A    between atoms: C14_14  and  C15_15 
REMARK    8  A    between atoms: C16_16  and  C17_17 
ROOT
HETATM    1  C9  UNL     1     -26.729 152.515  57.729  1.00  0.00     0.028 A 
HETATM    2  C10 UNL     1     -27.395 153.330  58.664  1.00  0.00     0.021 A 
HETATM    3  C11 UNL     1     -26.803 154.415  59.260  1.00  0.00     0.002 A 
HETATM    4  C12 UNL     1     -25.504 154.685  58.903  1.00  0.00     0.001 A 
HETATM    5  C13 UNL     1     -24.828 153.906  57.993  1.00  0.00     0.013 A 
HETATM    6  C14 UNL     1     -25.449 152.793  57.388  1.00  0.00    -0.017 A 
ENDROOT
BRANCH   1   7
HETATM    7  C8  UNL     1     -27.484 151.429  57.127  1.00  0.00    -0.066 C 
HETATM    8  C7  UNL     1     -28.133 150.531  56.662  1.00  0.00    -0.101 C 
BRANCH   8   9
HETATM    9  C6  UNL     1     -28.944 149.455  56.092  1.00  0.00     0.094 C 
BRANCH   9  10
HETATM   10  C5  UNL     1     -30.365 149.703  56.460  1.00  0.00     0.012 C 
BRANCH  10  11
HETATM   11  C4  UNL     1     -30.888 151.040  56.002  1.00  0.00     0.001 C 
BRANCH  11  12
HETATM   12  C3  UNL     1     -31.739 151.729  57.009  1.00  0.00    -0.000 C 
BRANCH  12  13
HETATM   13  C2  UNL     1     -30.877 152.794  57.683  1.00  0.00    -0.005 C 
HETATM   14  C1  UNL     1     -31.731 153.809  58.403  1.00  0.00     0.005 C 
ENDBRANCH  12  13
ENDBRANCH  11  12
ENDBRANCH  10  11
ENDBRANCH   9  10
ENDBRANCH   8   9
ENDBRANCH   1   7
BRANCH   6  15
HETATM   15  C15 UNL     1     -24.657 151.999  56.500  1.00  0.00     0.020 C 
HETATM   16  C16 UNL     1     -23.413 152.036  56.153  1.00  0.00     0.085 C 
BRANCH  16  17
HETATM   17  C17 UNL     1     -22.905 151.034  55.186  1.00  0.00     0.198 C 
HETATM   18  O1  UNL     1     -23.687 150.227  54.619  1.00  0.00    -0.645 OA
HETATM   19  O2  UNL     1     -21.559 150.965  54.883  1.00  0.00    -0.645 OA
ENDBRANCH  16  17
ENDBRANCH   6  15
TORSDOF 8
ENDMDL
