MODEL 7
REMARK VINA RESULT: -7.502528524      2.804      4.414
REMARK  8 active torsions:
REMARK  status: ('A' for Active; 'I' for Inactive)
REMARK    1  A    between atoms: C2_2  and  C3_3 
REMARK    2  A    between atoms: C3_3  and  C4_4 
REMARK    3  A    between atoms: C4_4  and  C5_5 
REMARK    4  A    between atoms: C5_5  and  C6_6 
REMARK    5  A    between atoms: C6_6  and  C7_7 
REMARK    6  A    between atoms: C8_8  and  C9_9 
REMARK    7  A    between atoms: C14_14  and  C15_15 
REMARK    8  A    between atoms: C16_16  and  C17_17 
ROOT
HETATM    1  C9  UNL     1     -29.445 151.903  57.144  1.00  0.00     0.028 A 
HETATM    2  C10 UNL     1     -30.761 151.418  57.031  1.00  0.00     0.021 A 
HETATM    3  C11 UNL     1     -31.855 152.129  57.454  1.00  0.00     0.002 A 
HETATM    4  C12 UNL     1     -31.616 153.363  58.006  1.00  0.00     0.001 A 
HETATM    5  C13 UNL     1     -30.341 153.865  58.130  1.00  0.00     0.013 A 
HETATM    6  C14 UNL     1     -29.224 153.122  57.692  1.00  0.00    -0.017 A 
ENDROOT
BRANCH   1   7
HETATM    7  C8  UNL     1     -28.375 151.078  56.608  1.00  0.00    -0.066 C 
HETATM    8  C7  UNL     1     -27.519 150.380  56.138  1.00  0.00    -0.101 C 
BRANCH   8   9
HETATM    9  C6  UNL     1     -26.476 149.543  55.543  1.00  0.00     0.094 C 
BRANCH   9  10
HETATM   10  C5  UNL     1     -25.336 150.424  55.166  1.00  0.00     0.012 C 
BRANCH  10  11
HETATM   11  C4  UNL     1     -25.050 150.449  53.686  1.00  0.00     0.001 C 
BRANCH  11  12
HETATM   12  C3  UNL     1     -25.456 149.206  52.976  1.00  0.00    -0.000 C 
BRANCH  12  13
HETATM   13  C2  UNL     1     -25.681 149.572  51.510  1.00  0.00    -0.005 C 
HETATM   14  C1  UNL     1     -26.502 148.518  50.807  1.00  0.00     0.005 C 
ENDBRANCH  12  13
ENDBRANCH  11  12
ENDBRANCH  10  11
ENDBRANCH   9  10
ENDBRANCH   8   9
ENDBRANCH   1   7
BRANCH   6  15
HETATM   15  C15 UNL     1     -27.929 153.687  57.913  1.00  0.00     0.020 C 
HETATM   16  C16 UNL     1     -27.095 153.625  58.899  1.00  0.00     0.085 C 
BRANCH  16  17
HETATM   17  C17 UNL     1     -25.805 154.347  58.796  1.00  0.00     0.198 C 
HETATM   18  O1  UNL     1     -24.977 154.069  57.889  1.00  0.00    -0.645 OA
HETATM   19  O2  UNL     1     -25.481 155.344  59.696  1.00  0.00    -0.645 OA
ENDBRANCH  16  17
ENDBRANCH   6  15
TORSDOF 8
ENDMDL
