MODEL 8
REMARK VINA RESULT: -7.303612074      0.743      1.027
REMARK  8 active torsions:
REMARK  status: ('A' for Active; 'I' for Inactive)
REMARK    1  A    between atoms: C2_2  and  C3_3 
REMARK    2  A    between atoms: C3_3  and  C4_4 
REMARK    3  A    between atoms: C4_4  and  C5_5 
REMARK    4  A    between atoms: C5_5  and  C6_6 
REMARK    5  A    between atoms: C6_6  and  C7_7 
REMARK    6  A    between atoms: C8_8  and  C9_9 
REMARK    7  A    between atoms: C14_14  and  C15_15 
REMARK    8  A    between atoms: C16_16  and  C17_17 
ROOT
HETATM    1  C9  UNL     1     -29.477 153.052  57.667  1.00  0.00     0.028 A 
HETATM    2  C10 UNL     1     -30.267 154.084  58.208  1.00  0.00     0.021 A 
HETATM    3  C11 UNL     1     -31.638 154.031  58.243  1.00  0.00     0.002 A 
HETATM    4  C12 UNL     1     -32.227 152.907  57.719  1.00  0.00     0.001 A 
HETATM    5  C13 UNL     1     -31.482 151.882  57.183  1.00  0.00     0.013 A 
HETATM    6  C14 UNL     1     -30.073 151.950  57.153  1.00  0.00    -0.017 A 
ENDROOT
BRANCH   1   7
HETATM    7  C8  UNL     1     -28.034 153.203  57.740  1.00  0.00    -0.066 C 
HETATM    8  C7  UNL     1     -26.837 153.297  57.771  1.00  0.00    -0.101 C 
BRANCH   8   9
HETATM    9  C6  UNL     1     -25.379 153.422  57.785  1.00  0.00     0.094 C 
BRANCH   9  10
HETATM   10  C5  UNL     1     -24.798 152.073  57.541  1.00  0.00     0.012 C 
BRANCH  10  11
HETATM   11  C4  UNL     1     -23.315 152.089  57.272  1.00  0.00     0.001 C 
BRANCH  11  12
HETATM   12  C3  UNL     1     -22.939 151.528  55.945  1.00  0.00    -0.000 C 
BRANCH  12  13
HETATM   13  C2  UNL     1     -24.198 150.912  55.338  1.00  0.00    -0.005 C 
HETATM   14  C1  UNL     1     -24.091 150.830  53.834  1.00  0.00     0.005 C 
ENDBRANCH  12  13
ENDBRANCH  11  12
ENDBRANCH  10  11
ENDBRANCH   9  10
ENDBRANCH   8   9
ENDBRANCH   1   7
BRANCH   6  15
HETATM   15  C15 UNL     1     -29.374 150.873  56.524  1.00  0.00     0.020 C 
HETATM   16  C16 UNL     1     -28.551 149.978  56.962  1.00  0.00     0.085 C 
BRANCH  16  17
HETATM   17  C17 UNL     1     -28.001 148.980  56.014  1.00  0.00     0.198 C 
HETATM   18  O1  UNL     1     -26.964 149.225  55.345  1.00  0.00    -0.645 OA
HETATM   19  O2  UNL     1     -28.617 147.755  55.845  1.00  0.00    -0.645 OA
ENDBRANCH  16  17
ENDBRANCH   6  15
TORSDOF 8
ENDMDL
