MODEL 1
REMARK VINA RESULT: -8.727860176      0.000      0.000
REMARK  8 active torsions:
REMARK  status: ('A' for Active; 'I' for Inactive)
REMARK    1  A    between atoms: C2_2  and  C3_3 
REMARK    2  A    between atoms: C3_3  and  C4_4 
REMARK    3  A    between atoms: C4_4  and  C5_5 
REMARK    4  A    between atoms: C5_5  and  C6_6 
REMARK    5  A    between atoms: C6_6  and  C7_7 
REMARK    6  A    between atoms: C8_8  and  C9_9 
REMARK    7  A    between atoms: C14_14  and  C15_15 
REMARK    8  A    between atoms: C16_16  and  C17_17 
ROOT
HETATM    1  C9  UNL     1     -29.764 153.260  57.787  1.00  0.00     0.028 A 
HETATM    2  C10 UNL     1     -30.764 154.088  58.330  1.00  0.00     0.021 A 
HETATM    3  C11 UNL     1     -32.100 153.783  58.260  1.00  0.00     0.002 A 
HETATM    4  C12 UNL     1     -32.436 152.612  57.627  1.00  0.00     0.001 A 
HETATM    5  C13 UNL     1     -31.481 151.783  57.085  1.00  0.00     0.013 A 
HETATM    6  C14 UNL     1     -30.110 152.109  57.163  1.00  0.00    -0.017 A 
ENDROOT
BRANCH   1   7
HETATM    7  C8  UNL     1     -28.381 153.666  57.974  1.00  0.00    -0.066 C 
HETATM    8  C7  UNL     1     -27.249 154.021  58.164  1.00  0.00    -0.101 C 
BRANCH   8   9
HETATM    9  C6  UNL     1     -25.869 154.437  58.416  1.00  0.00     0.094 C 
BRANCH   9  10
HETATM   10  C5  UNL     1     -24.969 153.554  57.623  1.00  0.00     0.012 C 
BRANCH  10  11
HETATM   11  C4  UNL     1     -25.015 152.107  58.040  1.00  0.00     0.001 C 
BRANCH  11  12
HETATM   12  C3  UNL     1     -23.944 151.272  57.431  1.00  0.00    -0.000 C 
BRANCH  12  13
HETATM   13  C2  UNL     1     -23.519 151.954  56.132  1.00  0.00    -0.005 C 
HETATM   14  C1  UNL     1     -23.169 150.935  55.074  1.00  0.00     0.005 C 
ENDBRANCH  12  13
ENDBRANCH  11  12
ENDBRANCH  10  11
ENDBRANCH   9  10
ENDBRANCH   8   9
ENDBRANCH   1   7
BRANCH   6  15
HETATM   15  C15 UNL     1     -29.185 151.226  56.522  1.00  0.00     0.020 C 
HETATM   16  C16 UNL     1     -28.381 150.316  56.965  1.00  0.00     0.085 C 
BRANCH  16  17
HETATM   17  C17 UNL     1     -27.543 149.566  56.000  1.00  0.00     0.198 C 
HETATM   18  O1  UNL     1     -26.454 150.039  55.583  1.00  0.00    -0.645 OA
HETATM   19  O2  UNL     1     -27.940 148.327  55.535  1.00  0.00    -0.645 OA
ENDBRANCH  16  17
ENDBRANCH   6  15
TORSDOF 8
ENDMDL
