MODEL 2
REMARK VINA RESULT: -9.187278776      5.612      8.254
REMARK  10 active torsions:
REMARK  status: ('A' for Active; 'I' for Inactive)
REMARK    1  A    between atoms: N1_2  and  C4_5 
REMARK    2  A    between atoms: C7_8  and  C8_9 
REMARK    3  A    between atoms: C8_9  and  N2_10 
REMARK       I    between atoms: N2_10  and  C9_12 
REMARK    4  A    between atoms: C9_12  and  C10_14 
REMARK    5  A    between atoms: C14_18  and  O2_19 
REMARK    6  A    between atoms: O2_19  and  C15_20 
REMARK    7  A    between atoms: C15_20  and  C16_21 
REMARK    8  A    between atoms: N3_30  and  C25_31 
REMARK    9  A    between atoms: C25_31  and  C26_32 
REMARK   10  A    between atoms: C30_36  and  C31_37 
ROOT
HETATM    1  C10 UNL     1       5.213   8.342  21.505  1.00  0.00     0.104 A 
HETATM    2  C11 UNL     1       4.145   9.275  21.578  1.00  0.00     0.049 A 
HETATM    3  C12 UNL     1       3.719   9.418  22.874  1.00  0.00    -0.004 A 
HETATM    4  C13 UNL     1       2.723  10.185  23.471  1.00  0.00     0.050 A 
HETATM    5  C14 UNL     1       2.537  10.100  24.812  1.00  0.00     0.070 A 
HETATM    6  C22 UNL     1       3.321   9.268  25.566  1.00  0.00     0.039 A 
HETATM    7  C23 UNL     1       4.305   8.511  24.963  1.00  0.00     0.033 A 
HETATM    8  C24 UNL     1       4.518   8.579  23.600  1.00  0.00     0.045 A 
HETATM    9  N3  UNL     1       5.411   7.943  22.753  1.00  0.00    -0.337 N 
ENDROOT
BRANCH   1  10
HETATM   10  C9  UNL     1       5.841   8.053  20.234  1.00  0.00     0.268 C 
HETATM   11  N2  UNL     1       5.454   7.154  19.232  1.00  0.00    -0.351 N 
ATOM     12  H2  UNL     1       4.608   6.601  19.374  1.00  0.00     0.163 HD
HETATM   13  O1  UNL     1       6.923   8.705  19.934  1.00  0.00    -0.266 OA
BRANCH  11  14
HETATM   14  C8  UNL     1       6.204   6.971  17.995  1.00  0.00     0.161 C 
BRANCH  14  15
HETATM   15  C7  UNL     1       6.867   5.652  17.921  1.00  0.00    -0.040 A 
HETATM   16  C6  UNL     1       7.749   5.249  18.912  1.00  0.00     0.011 A 
HETATM   17  C5  UNL     1       8.344   4.008  18.824  1.00  0.00     0.038 A 
HETATM   18  C4  UNL     1       8.063   3.182  17.763  1.00  0.00     0.135 A 
HETATM   19  C34 UNL     1       7.183   3.571  16.762  1.00  0.00     0.038 A 
HETATM   20  C33 UNL     1       6.605   4.808  16.871  1.00  0.00     0.011 A 
BRANCH  18  21
HETATM   21  N1  UNL     1       8.658   1.905  17.654  1.00  0.00    -0.049 N 
HETATM   22  C1  UNL     1       8.261   1.063  18.787  1.00  0.00     0.278 C 
HETATM   23  C2  UNL     1      10.113   1.996  17.735  1.00  0.00     0.278 C 
HETATM   24  C3  UNL     1       8.281   1.198  16.448  1.00  0.00     0.278 C 
ENDBRANCH  18  21
ENDBRANCH  14  15
ENDBRANCH  11  14
ENDBRANCH   1  10
BRANCH   9  25
HETATM   25  C25 UNL     1       6.397   7.053  23.255  1.00  0.00     0.168 C 
BRANCH  25  26
HETATM   26  C26 UNL     1       7.624   7.690  23.766  1.00  0.00    -0.039 A 
HETATM   27  C27 UNL     1       8.241   8.715  23.097  1.00  0.00     0.009 A 
HETATM   28  C28 UNL     1       9.381   9.275  23.637  1.00  0.00     0.002 A 
HETATM   29  C29 UNL     1       9.910   8.835  24.819  1.00  0.00     0.015 A 
HETATM   30  C30 UNL     1       9.308   7.790  25.532  1.00  0.00     0.005 A 
HETATM   31  C32 UNL     1       8.163   7.259  24.951  1.00  0.00     0.023 A 
BRANCH  30  32
HETATM   32  C31 UNL     1       9.876   7.335  26.784  1.00  0.00     0.120 C 
HETATM   33  N4  UNL     1      11.282   7.446  26.972  1.00  0.00    -0.082 NA
HETATM   34  N5  UNL     1       9.174   6.847  27.707  1.00  0.00    -0.387 N 
ATOM     35  H52 UNL     1       8.166   6.766  27.573  1.00  0.00     0.157 HD
ATOM     36  H51 UNL     1       9.574   6.526  28.588  1.00  0.00     0.157 HD
ENDBRANCH  30  32
ENDBRANCH  25  26
ENDBRANCH   9  25
BRANCH   5  37
HETATM   37  O2  UNL     1       1.560  10.851  25.423  1.00  0.00    -0.347 OA
BRANCH  37  38
HETATM   38  C15 UNL     1       0.725  11.666  24.646  1.00  0.00     0.214 C 
BRANCH  38  39
HETATM   39  C16 UNL     1      -0.570  11.834  25.346  1.00  0.00    -0.034 A 
HETATM   40  C17 UNL     1      -1.266  10.678  25.687  1.00  0.00     0.009 A 
HETATM   41  C18 UNL     1      -2.488  10.805  26.344  1.00  0.00     0.001 A 
HETATM   42  C19 UNL     1      -3.006  12.046  26.657  1.00  0.00     0.000 A 
HETATM   43  C20 UNL     1      -2.310  13.185  26.317  1.00  0.00     0.001 A 
HETATM   44  C21 UNL     1      -1.114  13.054  25.672  1.00  0.00     0.009 A 
ENDBRANCH  38  39
ENDBRANCH  37  38
ENDBRANCH   5  37
TORSDOF 10
ENDMDL
