MODEL 1
REMARK VINA RESULT: -9.207479065      0.000      0.000
REMARK  10 active torsions:
REMARK  status: ('A' for Active; 'I' for Inactive)
REMARK    1  A    between atoms: N1_2  and  C4_5 
REMARK    2  A    between atoms: C7_8  and  C8_9 
REMARK    3  A    between atoms: C8_9  and  N2_10 
REMARK       I    between atoms: N2_10  and  C9_12 
REMARK    4  A    between atoms: C9_12  and  C10_14 
REMARK    5  A    between atoms: C14_18  and  O2_19 
REMARK    6  A    between atoms: O2_19  and  C15_20 
REMARK    7  A    between atoms: C15_20  and  C16_21 
REMARK    8  A    between atoms: N3_30  and  C25_31 
REMARK    9  A    between atoms: C25_31  and  C26_32 
REMARK   10  A    between atoms: C30_36  and  C31_37 
ROOT
HETATM    1  C10 UNL     1       5.642   5.281  20.075  1.00  0.00     0.104 A 
HETATM    2  C11 UNL     1       6.070   5.684  21.367  1.00  0.00     0.049 A 
HETATM    3  C12 UNL     1       7.034   6.657  21.273  1.00  0.00    -0.004 A 
HETATM    4  C13 UNL     1       7.765   7.368  22.219  1.00  0.00     0.050 A 
HETATM    5  C14 UNL     1       8.674   8.284  21.801  1.00  0.00     0.070 A 
HETATM    6  C22 UNL     1       8.865   8.504  20.463  1.00  0.00     0.039 A 
HETATM    7  C23 UNL     1       8.133   7.793  19.533  1.00  0.00     0.033 A 
HETATM    8  C24 UNL     1       7.201   6.855  19.931  1.00  0.00     0.045 A 
HETATM    9  N3  UNL     1       6.351   6.015  19.230  1.00  0.00    -0.337 N 
ENDROOT
BRANCH   1  10
HETATM   10  C9  UNL     1       4.608   4.280  19.930  1.00  0.00     0.268 C 
HETATM   11  N2  UNL     1       4.710   2.882  19.947  1.00  0.00    -0.351 N 
ATOM     12  H2  UNL     1       5.629   2.463  20.081  1.00  0.00     0.163 HD
HETATM   13  O1  UNL     1       3.388   4.693  19.765  1.00  0.00    -0.266 OA
BRANCH  11  14
HETATM   14  C8  UNL     1       3.561   2.000  19.781  1.00  0.00     0.161 C 
BRANCH  14  15
HETATM   15  C7  UNL     1       3.604   1.241  18.513  1.00  0.00    -0.040 A 
HETATM   16  C6  UNL     1       2.541   0.435  18.137  1.00  0.00     0.011 A 
HETATM   17  C5  UNL     1       2.604  -0.253  16.942  1.00  0.00     0.038 A 
HETATM   18  C4  UNL     1       3.710  -0.136  16.136  1.00  0.00     0.135 A 
HETATM   19  C34 UNL     1       4.783   0.667  16.499  1.00  0.00     0.038 A 
HETATM   20  C33 UNL     1       4.698   1.339  17.690  1.00  0.00     0.011 A 
BRANCH  18  21
HETATM   21  N1  UNL     1       3.794  -0.827  14.907  1.00  0.00    -0.049 N 
HETATM   22  C1  UNL     1       4.608  -0.068  13.953  1.00  0.00     0.278 C 
HETATM   23  C2  UNL     1       2.479  -0.944  14.282  1.00  0.00     0.278 C 
HETATM   24  C3  UNL     1       4.394  -2.140  15.027  1.00  0.00     0.278 C 
ENDBRANCH  18  21
ENDBRANCH  14  15
ENDBRANCH  11  14
ENDBRANCH   1  10
BRANCH   9  25
HETATM   25  C25 UNL     1       6.281   6.053  17.812  1.00  0.00     0.168 C 
BRANCH  25  26
HETATM   26  C26 UNL     1       6.795   4.857  17.121  1.00  0.00    -0.039 A 
HETATM   27  C27 UNL     1       6.446   4.560  15.829  1.00  0.00     0.009 A 
HETATM   28  C28 UNL     1       6.972   3.430  15.237  1.00  0.00     0.002 A 
HETATM   29  C29 UNL     1       7.831   2.601  15.905  1.00  0.00     0.015 A 
HETATM   30  C30 UNL     1       8.211   2.871  17.225  1.00  0.00     0.005 A 
HETATM   31  C32 UNL     1       7.658   4.018  17.779  1.00  0.00     0.023 A 
BRANCH  30  32
HETATM   32  C31 UNL     1       9.124   1.985  17.921  1.00  0.00     0.120 C 
HETATM   33  N4  UNL     1       8.585   1.042  18.840  1.00  0.00    -0.082 NA
HETATM   34  N5  UNL     1      10.368   2.021  17.743  1.00  0.00    -0.387 N 
ATOM     35  H52 UNL     1      10.755   2.698  17.084  1.00  0.00     0.157 HD
ATOM     36  H51 UNL     1      11.010   1.399  18.233  1.00  0.00     0.157 HD
ENDBRANCH  30  32
ENDBRANCH  25  26
ENDBRANCH   9  25
BRANCH   5  37
HETATM   37  O2  UNL     1       9.407   8.999  22.719  1.00  0.00    -0.347 OA
BRANCH  37  38
HETATM   38  C15 UNL     1       8.855   9.286  23.975  1.00  0.00     0.214 C 
BRANCH  38  39
HETATM   39  C16 UNL     1       9.638   8.583  25.017  1.00  0.00    -0.034 A 
HETATM   40  C17 UNL     1       8.953   7.690  25.836  1.00  0.00     0.009 A 
HETATM   41  C18 UNL     1       9.664   7.016  26.827  1.00  0.00     0.001 A 
HETATM   42  C19 UNL     1      11.019   7.220  27.001  1.00  0.00     0.000 A 
HETATM   43  C20 UNL     1      11.688   8.105  26.185  1.00  0.00     0.001 A 
HETATM   44  C21 UNL     1      10.987   8.764  25.216  1.00  0.00     0.009 A 
ENDBRANCH  38  39
ENDBRANCH  37  38
ENDBRANCH   5  37
TORSDOF 10
ENDMDL
