MODEL 3
REMARK VINA RESULT: -9.115323040      5.433     11.248
REMARK  10 active torsions:
REMARK  status: ('A' for Active; 'I' for Inactive)
REMARK    1  A    between atoms: N1_2  and  C4_5 
REMARK    2  A    between atoms: C7_8  and  C8_9 
REMARK    3  A    between atoms: C8_9  and  N2_10 
REMARK       I    between atoms: N2_10  and  C9_12 
REMARK    4  A    between atoms: C9_12  and  C10_14 
REMARK    5  A    between atoms: C14_18  and  O2_19 
REMARK    6  A    between atoms: O2_19  and  C15_20 
REMARK    7  A    between atoms: C15_20  and  C16_21 
REMARK    8  A    between atoms: N3_30  and  C25_31 
REMARK    9  A    between atoms: C25_31  and  C26_32 
REMARK   10  A    between atoms: C30_36  and  C31_37 
ROOT
HETATM    1  C10 UNL     1       7.194   9.855  19.673  1.00  0.00     0.104 A 
HETATM    2  C11 UNL     1       7.331   9.057  18.507  1.00  0.00     0.049 A 
HETATM    3  C12 UNL     1       6.759   7.825  18.698  1.00  0.00    -0.004 A 
HETATM    4  C13 UNL     1       6.627   6.699  17.890  1.00  0.00     0.050 A 
HETATM    5  C14 UNL     1       5.998   5.603  18.380  1.00  0.00     0.070 A 
HETATM    6  C22 UNL     1       5.497   5.607  19.655  1.00  0.00     0.039 A 
HETATM    7  C23 UNL     1       5.633   6.729  20.448  1.00  0.00     0.033 A 
HETATM    8  C24 UNL     1       6.269   7.860  19.974  1.00  0.00     0.045 A 
HETATM    9  N3  UNL     1       6.542   9.095  20.540  1.00  0.00    -0.337 N 
ENDROOT
BRANCH   1  10
HETATM   10  C9  UNL     1       7.703  11.209  19.692  1.00  0.00     0.268 C 
HETATM   11  N2  UNL     1       7.019  12.422  19.527  1.00  0.00    -0.351 N 
ATOM     12  H2  UNL     1       6.012  12.395  19.371  1.00  0.00     0.163 HD
HETATM   13  O1  UNL     1       8.975  11.373  19.894  1.00  0.00    -0.266 OA
BRANCH  11  14
HETATM   14  C8  UNL     1       7.682  13.719  19.569  1.00  0.00     0.161 C 
BRANCH  14  15
HETATM   15  C7  UNL     1       6.725  14.845  19.641  1.00  0.00    -0.040 A 
HETATM   16  C6  UNL     1       5.907  15.145  18.563  1.00  0.00     0.011 A 
HETATM   17  C5  UNL     1       5.016  16.193  18.662  1.00  0.00     0.038 A 
HETATM   18  C4  UNL     1       4.942  16.930  19.819  1.00  0.00     0.135 A 
HETATM   19  C34 UNL     1       5.755  16.642  20.907  1.00  0.00     0.038 A 
HETATM   20  C33 UNL     1       6.633  15.597  20.785  1.00  0.00     0.011 A 
BRANCH  18  21
HETATM   21  N1  UNL     1       4.034  18.004  19.944  1.00  0.00    -0.049 N 
HETATM   22  C1  UNL     1       2.876  17.598  20.748  1.00  0.00     0.278 C 
HETATM   23  C2  UNL     1       3.485  18.380  18.644  1.00  0.00     0.278 C 
HETATM   24  C3  UNL     1       4.608  19.169  20.586  1.00  0.00     0.278 C 
ENDBRANCH  18  21
ENDBRANCH  14  15
ENDBRANCH  11  14
ENDBRANCH   1  10
BRANCH   9  25
HETATM   25  C25 UNL     1       6.095   9.421  21.848  1.00  0.00     0.168 C 
BRANCH  25  26
HETATM   26  C26 UNL     1       6.840   8.784  22.949  1.00  0.00    -0.039 A 
HETATM   27  C27 UNL     1       6.278   7.816  23.739  1.00  0.00     0.009 A 
HETATM   28  C28 UNL     1       7.034   7.252  24.746  1.00  0.00     0.002 A 
HETATM   29  C29 UNL     1       8.328   7.635  24.976  1.00  0.00     0.015 A 
HETATM   30  C30 UNL     1       8.936   8.621  24.190  1.00  0.00     0.005 A 
HETATM   31  C32 UNL     1       8.137   9.158  23.189  1.00  0.00     0.023 A 
BRANCH  30  32
HETATM   32  C31 UNL     1      10.308   9.016  24.442  1.00  0.00     0.120 C 
HETATM   33  N4  UNL     1      10.783   8.999  25.783  1.00  0.00    -0.082 NA
HETATM   34  N5  UNL     1      11.088   9.372  23.523  1.00  0.00    -0.387 N 
ATOM     35  H52 UNL     1      10.748   9.384  22.562  1.00  0.00     0.157 HD
ATOM     36  H51 UNL     1      12.053   9.650  23.700  1.00  0.00     0.157 HD
ENDBRANCH  30  32
ENDBRANCH  25  26
ENDBRANCH   9  25
BRANCH   5  37
HETATM   37  O2  UNL     1       5.855   4.480  17.599  1.00  0.00    -0.347 OA
BRANCH  37  38
HETATM   38  C15 UNL     1       5.833   3.215  18.201  1.00  0.00     0.214 C 
BRANCH  38  39
HETATM   39  C16 UNL     1       7.197   2.639  18.162  1.00  0.00    -0.034 A 
HETATM   40  C17 UNL     1       7.379   1.388  18.744  1.00  0.00     0.009 A 
HETATM   41  C18 UNL     1       8.652   0.822  18.724  1.00  0.00     0.001 A 
HETATM   42  C19 UNL     1       9.718   1.479  18.141  1.00  0.00     0.000 A 
HETATM   43  C20 UNL     1       9.529   2.716  17.566  1.00  0.00     0.001 A 
HETATM   44  C21 UNL     1       8.279   3.266  17.589  1.00  0.00     0.009 A 
ENDBRANCH  38  39
ENDBRANCH  37  38
ENDBRANCH   5  37
TORSDOF 10
ENDMDL
