MODEL 4
REMARK VINA RESULT: -9.066253918      2.634      4.017
REMARK  10 active torsions:
REMARK  status: ('A' for Active; 'I' for Inactive)
REMARK    1  A    between atoms: N1_2  and  C4_5 
REMARK    2  A    between atoms: C7_8  and  C8_9 
REMARK    3  A    between atoms: C8_9  and  N2_10 
REMARK       I    between atoms: N2_10  and  C9_12 
REMARK    4  A    between atoms: C9_12  and  C10_14 
REMARK    5  A    between atoms: C14_18  and  O2_19 
REMARK    6  A    between atoms: O2_19  and  C15_20 
REMARK    7  A    between atoms: C15_20  and  C16_21 
REMARK    8  A    between atoms: N3_30  and  C25_31 
REMARK    9  A    between atoms: C25_31  and  C26_32 
REMARK   10  A    between atoms: C30_36  and  C31_37 
ROOT
HETATM    1  C10 UNL     1       5.570   5.150  20.248  1.00  0.00     0.104 A 
HETATM    2  C11 UNL     1       5.613   5.640  21.580  1.00  0.00     0.049 A 
HETATM    3  C12 UNL     1       6.604   6.580  21.715  1.00  0.00    -0.004 A 
HETATM    4  C13 UNL     1       7.054   7.344  22.787  1.00  0.00     0.050 A 
HETATM    5  C14 UNL     1       8.085   8.204  22.600  1.00  0.00     0.070 A 
HETATM    6  C22 UNL     1       8.673   8.319  21.369  1.00  0.00     0.039 A 
HETATM    7  C23 UNL     1       8.218   7.557  20.312  1.00  0.00     0.033 A 
HETATM    8  C24 UNL     1       7.169   6.673  20.473  1.00  0.00     0.045 A 
HETATM    9  N3  UNL     1       6.528   5.803  19.606  1.00  0.00    -0.337 N 
ENDROOT
BRANCH   1  10
HETATM   10  C9  UNL     1       4.581   4.166  19.867  1.00  0.00     0.268 C 
HETATM   11  N2  UNL     1       4.144   3.026  20.556  1.00  0.00    -0.351 N 
ATOM     12  H2  UNL     1       4.555   2.822  21.467  1.00  0.00     0.163 HD
HETATM   13  O1  UNL     1       3.979   4.326  18.728  1.00  0.00    -0.266 OA
BRANCH  11  14
HETATM   14  C8  UNL     1       3.131   2.119  20.031  1.00  0.00     0.161 C 
BRANCH  14  15
HETATM   15  C7  UNL     1       2.790   1.036  20.978  1.00  0.00    -0.040 A 
HETATM   16  C6  UNL     1       3.371   0.990  22.236  1.00  0.00     0.011 A 
HETATM   17  C5  UNL     1       3.027  -0.026  23.103  1.00  0.00     0.038 A 
HETATM   18  C4  UNL     1       2.116  -0.980  22.721  1.00  0.00     0.135 A 
HETATM   19  C34 UNL     1       1.526  -0.949  21.464  1.00  0.00     0.038 A 
HETATM   20  C33 UNL     1       1.884   0.069  20.620  1.00  0.00     0.011 A 
BRANCH  18  21
HETATM   21  N1  UNL     1       1.744  -2.026  23.594  1.00  0.00    -0.049 N 
HETATM   22  C1  UNL     1       2.481  -3.249  23.263  1.00  0.00     0.278 C 
HETATM   23  C2  UNL     1       0.334  -2.371  23.428  1.00  0.00     0.278 C 
HETATM   24  C3  UNL     1       2.013  -1.733  24.987  1.00  0.00     0.278 C 
ENDBRANCH  18  21
ENDBRANCH  14  15
ENDBRANCH  11  14
ENDBRANCH   1  10
BRANCH   9  25
HETATM   25  C25 UNL     1       6.882   5.736  18.233  1.00  0.00     0.168 C 
BRANCH  25  26
HETATM   26  C26 UNL     1       7.561   4.496  17.815  1.00  0.00    -0.039 A 
HETATM   27  C27 UNL     1       8.710   4.059  18.421  1.00  0.00     0.009 A 
HETATM   28  C28 UNL     1       9.289   2.884  17.987  1.00  0.00     0.002 A 
HETATM   29  C29 UNL     1       8.747   2.146  16.970  1.00  0.00     0.015 A 
HETATM   30  C30 UNL     1       7.574   2.559  16.327  1.00  0.00     0.005 A 
HETATM   31  C32 UNL     1       7.027   3.747  16.797  1.00  0.00     0.023 A 
BRANCH  30  32
HETATM   32  C31 UNL     1       7.009   1.768  15.253  1.00  0.00     0.120 C 
HETATM   33  N4  UNL     1       6.443   0.502  15.568  1.00  0.00    -0.082 NA
HETATM   34  N5  UNL     1       7.001   2.159  14.057  1.00  0.00    -0.387 N 
ATOM     35  H52 UNL     1       7.407   3.066  13.830  1.00  0.00     0.157 HD
ATOM     36  H51 UNL     1       6.604   1.601  13.302  1.00  0.00     0.157 HD
ENDBRANCH  30  32
ENDBRANCH  25  26
ENDBRANCH   9  25
BRANCH   5  37
HETATM   37  O2  UNL     1       8.545   8.970  23.646  1.00  0.00    -0.347 OA
BRANCH  37  38
HETATM   38  C15 UNL     1       8.187   8.636  24.960  1.00  0.00     0.214 C 
BRANCH  38  39
HETATM   39  C16 UNL     1       9.388   8.145  25.676  1.00  0.00    -0.034 A 
HETATM   40  C17 UNL     1      10.601   8.762  25.386  1.00  0.00     0.009 A 
HETATM   41  C18 UNL     1      11.747   8.320  26.043  1.00  0.00     0.001 A 
HETATM   42  C19 UNL     1      11.692   7.293  26.964  1.00  0.00     0.000 A 
HETATM   43  C20 UNL     1      10.487   6.688  27.245  1.00  0.00     0.001 A 
HETATM   44  C21 UNL     1       9.367   7.124  26.598  1.00  0.00     0.009 A 
ENDBRANCH  38  39
ENDBRANCH  37  38
ENDBRANCH   5  37
TORSDOF 10
ENDMDL
