MODEL 5
REMARK VINA RESULT: -9.782107353      1.551      4.907
REMARK  8 active torsions:
REMARK  status: ('A' for Active; 'I' for Inactive)
REMARK    1  A    between atoms: C1_2  and  C2_6 
REMARK    2  A    between atoms: C6_10  and  C7_11 
REMARK    3  A    between atoms: C7_11  and  O1_12 
REMARK    4  A    between atoms: O1_12  and  C8_13 
REMARK    5  A    between atoms: C8_13  and  C9_15 
REMARK    6  A    between atoms: N3_23  and  C17_24 
REMARK    7  A    between atoms: C17_24  and  C18_25 
REMARK    8  A    between atoms: C22_29  and  C23_30 
ROOT
HETATM    1  C9  UNL     1       7.913   8.205  22.525  1.00  0.00     0.112 A 
HETATM    2  C10 UNL     1       9.211   8.722  22.575  1.00  0.00     0.050 A 
HETATM    3  C11 UNL     1       9.655   8.657  23.877  1.00  0.00    -0.007 A 
HETATM    4  C12 UNL     1      10.829   9.014  24.499  1.00  0.00     0.014 A 
HETATM    5  C13 UNL     1      10.950   8.803  25.850  1.00  0.00     0.001 A 
HETATM    6  C14 UNL     1       9.936   8.250  26.596  1.00  0.00     0.002 A 
HETATM    7  C15 UNL     1       8.772   7.901  25.958  1.00  0.00     0.030 A 
HETATM    8  C16 UNL     1       8.626   8.101  24.607  1.00  0.00     0.045 A 
HETATM    9  N3  UNL     1       7.573   7.835  23.759  1.00  0.00    -0.337 N 
ENDROOT
BRANCH   1  10
HETATM   10  C8  UNL     1       7.137   8.083  21.312  1.00  0.00     0.310 C 
HETATM   11  O2  UNL     1       6.577   8.988  20.684  1.00  0.00    -0.258 OA
BRANCH  10  12
HETATM   12  O1  UNL     1       6.967   6.801  20.736  1.00  0.00    -0.312 OA
BRANCH  12  13
HETATM   13  C7  UNL     1       7.857   6.327  19.748  1.00  0.00     0.217 C 
BRANCH  13  14
HETATM   14  C6  UNL     1       7.851   4.844  19.832  1.00  0.00    -0.033 A 
HETATM   15  C5  UNL     1       7.088   4.153  20.750  1.00  0.00     0.009 A 
HETATM   16  C4  UNL     1       7.101   2.772  20.807  1.00  0.00     0.002 A 
HETATM   17  C3  UNL     1       7.870   2.024  19.956  1.00  0.00     0.015 A 
HETATM   18  C2  UNL     1       8.650   2.688  19.019  1.00  0.00     0.005 A 
HETATM   19  C25 UNL     1       8.632   4.061  18.969  1.00  0.00     0.024 A 
BRANCH  18  20
HETATM   20  C1  UNL     1       9.453   1.856  18.134  1.00  0.00     0.120 C 
HETATM   21  N1  UNL     1      10.146   0.715  18.664  1.00  0.00    -0.082 NA
HETATM   22  N2  UNL     1       9.532   2.151  16.894  1.00  0.00    -0.387 N 
ATOM     23  H22 UNL     1      10.095   1.568  16.274  1.00  0.00     0.157 HD
ATOM     24  H21 UNL     1       9.040   2.961  16.519  1.00  0.00     0.157 HD
ENDBRANCH  18  20
ENDBRANCH  13  14
ENDBRANCH  12  13
ENDBRANCH  10  12
ENDBRANCH   1  10
BRANCH   9  25
HETATM   25  C17 UNL     1       6.341   7.246  24.168  1.00  0.00     0.168 C 
BRANCH  25  26
HETATM   26  C18 UNL     1       5.303   8.160  24.646  1.00  0.00    -0.039 A 
HETATM   27  C19 UNL     1       4.998   8.360  25.963  1.00  0.00     0.009 A 
HETATM   28  C20 UNL     1       4.004   9.265  26.334  1.00  0.00     0.002 A 
HETATM   29  C21 UNL     1       3.317   9.969  25.403  1.00  0.00     0.015 A 
HETATM   30  C22 UNL     1       3.592   9.799  24.062  1.00  0.00     0.005 A 
HETATM   31  C24 UNL     1       4.562   8.913  23.719  1.00  0.00     0.023 A 
BRANCH  30  32
HETATM   32  C23 UNL     1       2.865  10.545  23.033  1.00  0.00     0.120 C 
HETATM   33  N4  UNL     1       1.597  11.136  23.385  1.00  0.00    -0.082 NA
HETATM   34  N5  UNL     1       3.275  10.710  21.840  1.00  0.00    -0.387 N 
ATOM     35  H52 UNL     1       4.172  10.293  21.591  1.00  0.00     0.157 HD
ATOM     36  H51 UNL     1       2.768  11.230  21.123  1.00  0.00     0.157 HD
ENDBRANCH  30  32
ENDBRANCH  25  26
ENDBRANCH   9  25
TORSDOF 8
ENDMDL
