MODEL 2
REMARK VINA RESULT: -10.001158544      1.771      4.714
REMARK  8 active torsions:
REMARK  status: ('A' for Active; 'I' for Inactive)
REMARK    1  A    between atoms: C1_2  and  C2_6 
REMARK    2  A    between atoms: C6_10  and  C7_11 
REMARK    3  A    between atoms: C7_11  and  O1_12 
REMARK    4  A    between atoms: O1_12  and  C8_13 
REMARK    5  A    between atoms: C8_13  and  C9_15 
REMARK    6  A    between atoms: N3_23  and  C17_24 
REMARK    7  A    between atoms: C17_24  and  C18_25 
REMARK    8  A    between atoms: C22_29  and  C23_30 
ROOT
HETATM    1  C9  UNL     1       7.995   7.999  22.843  1.00  0.00     0.112 A 
HETATM    2  C10 UNL     1       9.197   8.713  22.844  1.00  0.00     0.050 A 
HETATM    3  C11 UNL     1       9.730   8.664  24.114  1.00  0.00    -0.007 A 
HETATM    4  C12 UNL     1      10.873   9.176  24.684  1.00  0.00     0.014 A 
HETATM    5  C13 UNL     1      11.113   8.931  26.013  1.00  0.00     0.001 A 
HETATM    6  C14 UNL     1      10.247   8.194  26.787  1.00  0.00     0.002 A 
HETATM    7  C15 UNL     1       9.113   7.693  26.201  1.00  0.00     0.030 A 
HETATM    8  C16 UNL     1       8.850   7.923  24.872  1.00  0.00     0.045 A 
HETATM    9  N3  UNL     1       7.797   7.529  24.074  1.00  0.00    -0.337 N 
ENDROOT
BRANCH   1  10
HETATM   10  C8  UNL     1       7.170   7.807  21.672  1.00  0.00     0.310 C 
HETATM   11  O2  UNL     1       6.526   8.663  21.058  1.00  0.00    -0.258 OA
BRANCH  10  12
HETATM   12  O1  UNL     1       7.050   6.506  21.128  1.00  0.00    -0.312 OA
BRANCH  12  13
HETATM   13  C7  UNL     1       7.823   6.114  20.012  1.00  0.00     0.217 C 
BRANCH  13  14
HETATM   14  C6  UNL     1       7.838   4.629  19.994  1.00  0.00    -0.033 A 
HETATM   15  C5  UNL     1       7.080   3.865  20.857  1.00  0.00     0.009 A 
HETATM   16  C4  UNL     1       7.114   2.484  20.819  1.00  0.00     0.002 A 
HETATM   17  C3  UNL     1       7.900   1.807  19.923  1.00  0.00     0.015 A 
HETATM   18  C2  UNL     1       8.675   2.546  19.040  1.00  0.00     0.005 A 
HETATM   19  C25 UNL     1       8.636   3.918  19.085  1.00  0.00     0.024 A 
BRANCH  18  20
HETATM   20  C1  UNL     1       9.496   1.789  18.106  1.00  0.00     0.120 C 
HETATM   21  N1  UNL     1      10.247   0.657  18.572  1.00  0.00    -0.082 NA
HETATM   22  N2  UNL     1       9.539   2.140  16.879  1.00  0.00    -0.387 N 
ATOM     23  H22 UNL     1      10.114   1.610  16.224  1.00  0.00     0.157 HD
ATOM     24  H21 UNL     1       9.005   2.944  16.548  1.00  0.00     0.157 HD
ENDBRANCH  18  20
ENDBRANCH  13  14
ENDBRANCH  12  13
ENDBRANCH  10  12
ENDBRANCH   1  10
BRANCH   9  25
HETATM   25  C17 UNL     1       6.701   6.737  24.523  1.00  0.00     0.168 C 
BRANCH  25  26
HETATM   26  C18 UNL     1       5.530   7.459  25.022  1.00  0.00    -0.039 A 
HETATM   27  C19 UNL     1       5.520   8.788  25.339  1.00  0.00     0.009 A 
HETATM   28  C20 UNL     1       4.354   9.403  25.792  1.00  0.00     0.002 A 
HETATM   29  C21 UNL     1       3.202   8.703  25.929  1.00  0.00     0.015 A 
HETATM   30  C22 UNL     1       3.166   7.359  25.621  1.00  0.00     0.005 A 
HETATM   31  C24 UNL     1       4.311   6.777  25.182  1.00  0.00     0.023 A 
BRANCH  30  32
HETATM   32  C23 UNL     1       1.937   6.577  25.760  1.00  0.00     0.120 C 
HETATM   33  N4  UNL     1       2.002   5.153  25.533  1.00  0.00    -0.082 NA
HETATM   34  N5  UNL     1       0.803   7.067  26.069  1.00  0.00    -0.387 N 
ATOM     35  H52 UNL     1       0.757   8.073  26.230  1.00  0.00     0.157 HD
ATOM     36  H51 UNL     1      -0.053   6.521  26.166  1.00  0.00     0.157 HD
ENDBRANCH  30  32
ENDBRANCH  25  26
ENDBRANCH   9  25
TORSDOF 8
ENDMDL
