MODEL 1
REMARK VINA RESULT: -10.593590146      0.000      0.000
REMARK  8 active torsions:
REMARK  status: ('A' for Active; 'I' for Inactive)
REMARK    1  A    between atoms: C1_2  and  C2_6 
REMARK    2  A    between atoms: C6_10  and  C7_11 
REMARK    3  A    between atoms: C7_11  and  O1_12 
REMARK    4  A    between atoms: O1_12  and  C8_13 
REMARK    5  A    between atoms: C8_13  and  C9_15 
REMARK    6  A    between atoms: N3_23  and  C17_24 
REMARK    7  A    between atoms: C17_24  and  C18_25 
REMARK    8  A    between atoms: C22_29  and  C23_30 
ROOT
HETATM    1  C9  UNL     1       5.816   8.353  22.212  1.00  0.00     0.112 A 
HETATM    2  C10 UNL     1       4.722   9.223  22.193  1.00  0.00     0.050 A 
HETATM    3  C11 UNL     1       4.276   9.388  23.486  1.00  0.00    -0.007 A 
HETATM    4  C12 UNL     1       3.256  10.118  24.052  1.00  0.00     0.014 A 
HETATM    5  C13 UNL     1       3.084  10.062  25.413  1.00  0.00     0.001 A 
HETATM    6  C14 UNL     1       3.896   9.302  26.222  1.00  0.00     0.002 A 
HETATM    7  C15 UNL     1       4.907   8.581  25.638  1.00  0.00     0.030 A 
HETATM    8  C16 UNL     1       5.102   8.620  24.279  1.00  0.00     0.045 A 
HETATM    9  N3  UNL     1       6.033   7.996  23.478  1.00  0.00    -0.337 N 
ENDROOT
BRANCH   1  10
HETATM   10  C8  UNL     1       6.566   7.970  21.037  1.00  0.00     0.310 C 
HETATM   11  O2  UNL     1       7.063   8.716  20.187  1.00  0.00    -0.258 OA
BRANCH  10  12
HETATM   12  O1  UNL     1       6.784   6.594  20.785  1.00  0.00    -0.312 OA
BRANCH  12  13
HETATM   13  C7  UNL     1       7.864   6.167  19.982  1.00  0.00     0.217 C 
BRANCH  13  14
HETATM   14  C6  UNL     1       7.849   4.682  19.987  1.00  0.00    -0.033 A 
HETATM   15  C5  UNL     1       7.067   3.947  20.854  1.00  0.00     0.009 A 
HETATM   16  C4  UNL     1       7.072   2.566  20.836  1.00  0.00     0.002 A 
HETATM   17  C3  UNL     1       7.851   1.859  19.958  1.00  0.00     0.015 A 
HETATM   18  C2  UNL     1       8.649   2.568  19.071  1.00  0.00     0.005 A 
HETATM   19  C25 UNL     1       8.639   3.941  19.095  1.00  0.00     0.024 A 
BRANCH  18  20
HETATM   20  C1  UNL     1       9.462   1.780  18.155  1.00  0.00     0.120 C 
HETATM   21  N1  UNL     1      10.165   0.625  18.640  1.00  0.00    -0.082 NA
HETATM   22  N2  UNL     1       9.541   2.124  16.928  1.00  0.00    -0.387 N 
ATOM     23  H22 UNL     1      10.110   1.572  16.286  1.00  0.00     0.157 HD
ATOM     24  H21 UNL     1       9.041   2.944  16.584  1.00  0.00     0.157 HD
ENDBRANCH  18  20
ENDBRANCH  13  14
ENDBRANCH  12  13
ENDBRANCH  10  12
ENDBRANCH   1  10
BRANCH   9  25
HETATM   25  C17 UNL     1       7.056   7.128  23.960  1.00  0.00     0.168 C 
BRANCH  25  26
HETATM   26  C18 UNL     1       8.274   7.763  24.460  1.00  0.00    -0.039 A 
HETATM   27  C19 UNL     1       8.935   8.776  23.823  1.00  0.00     0.009 A 
HETATM   28  C20 UNL     1      10.082   9.338  24.380  1.00  0.00     0.002 A 
HETATM   29  C21 UNL     1      10.573   8.898  25.564  1.00  0.00     0.015 A 
HETATM   30  C22 UNL     1       9.938   7.878  26.242  1.00  0.00     0.005 A 
HETATM   31  C24 UNL     1       8.823   7.342  25.684  1.00  0.00     0.023 A 
BRANCH  30  32
HETATM   32  C23 UNL     1      10.446   7.381  27.522  1.00  0.00     0.120 C 
HETATM   33  N4  UNL     1      11.872   7.376  27.737  1.00  0.00    -0.082 NA
HETATM   34  N5  UNL     1       9.712   6.949  28.468  1.00  0.00    -0.387 N 
ATOM     35  H52 UNL     1       8.703   6.953  28.317  1.00  0.00     0.157 HD
ATOM     36  H51 UNL     1      10.066   6.603  29.360  1.00  0.00     0.157 HD
ENDBRANCH  30  32
ENDBRANCH  25  26
ENDBRANCH   9  25
TORSDOF 8
ENDMDL
