MODEL 4
REMARK VINA RESULT: -9.849521731      1.357      1.817
REMARK  8 active torsions:
REMARK  status: ('A' for Active; 'I' for Inactive)
REMARK    1  A    between atoms: C1_2  and  C2_6 
REMARK    2  A    between atoms: C6_10  and  C7_11 
REMARK    3  A    between atoms: C7_11  and  O1_12 
REMARK    4  A    between atoms: O1_12  and  C8_13 
REMARK    5  A    between atoms: C8_13  and  C9_15 
REMARK    6  A    between atoms: N3_23  and  C17_24 
REMARK    7  A    between atoms: C17_24  and  C18_25 
REMARK    8  A    between atoms: C22_29  and  C23_30 
ROOT
HETATM    1  C9  UNL     1       5.734   8.304  22.258  1.00  0.00     0.112 A 
HETATM    2  C10 UNL     1       4.670   9.209  22.204  1.00  0.00     0.050 A 
HETATM    3  C11 UNL     1       4.258   9.471  23.492  1.00  0.00    -0.007 A 
HETATM    4  C12 UNL     1       3.275  10.270  24.030  1.00  0.00     0.014 A 
HETATM    5  C13 UNL     1       3.130  10.307  25.395  1.00  0.00     0.001 A 
HETATM    6  C14 UNL     1       3.933   9.571  26.235  1.00  0.00     0.002 A 
HETATM    7  C15 UNL     1       4.907   8.780  25.679  1.00  0.00     0.030 A 
HETATM    8  C16 UNL     1       5.074   8.726  24.317  1.00  0.00     0.045 A 
HETATM    9  N3  UNL     1       5.966   8.020  23.539  1.00  0.00    -0.337 N 
ENDROOT
BRANCH   1  10
HETATM   10  C8  UNL     1       6.445   7.822  21.095  1.00  0.00     0.310 C 
HETATM   11  O2  UNL     1       7.523   8.229  20.651  1.00  0.00    -0.258 OA
BRANCH  10  12
HETATM   12  O1  UNL     1       5.884   6.761  20.344  1.00  0.00    -0.312 OA
BRANCH  12  13
HETATM   13  C7  UNL     1       6.041   5.419  20.756  1.00  0.00     0.217 C 
BRANCH  13  14
HETATM   14  C6  UNL     1       6.922   4.759  19.760  1.00  0.00    -0.033 A 
HETATM   15  C5  UNL     1       8.094   4.119  20.108  1.00  0.00     0.009 A 
HETATM   16  C4  UNL     1       8.895   3.512  19.161  1.00  0.00     0.002 A 
HETATM   17  C3  UNL     1       8.567   3.516  17.831  1.00  0.00     0.015 A 
HETATM   18  C2  UNL     1       7.394   4.150  17.445  1.00  0.00     0.005 A 
HETATM   19  C25 UNL     1       6.603   4.752  18.393  1.00  0.00     0.024 A 
BRANCH  18  20
HETATM   20  C1  UNL     1       7.082   4.132  16.023  1.00  0.00     0.120 C 
HETATM   21  N1  UNL     1       6.459   5.274  15.415  1.00  0.00    -0.082 NA
HETATM   22  N2  UNL     1       7.366   3.098  15.330  1.00  0.00    -0.387 N 
ATOM     23  H22 UNL     1       7.147   3.084  14.334  1.00  0.00     0.157 HD
ATOM     24  H21 UNL     1       7.808   2.286  15.762  1.00  0.00     0.157 HD
ENDBRANCH  18  20
ENDBRANCH  13  14
ENDBRANCH  12  13
ENDBRANCH  10  12
ENDBRANCH   1  10
BRANCH   9  25
HETATM   25  C17 UNL     1       6.969   7.149  24.056  1.00  0.00     0.168 C 
BRANCH  25  26
HETATM   26  C18 UNL     1       8.198   7.777  24.540  1.00  0.00    -0.039 A 
HETATM   27  C19 UNL     1       8.841   8.804  23.909  1.00  0.00     0.009 A 
HETATM   28  C20 UNL     1      10.000   9.358  24.450  1.00  0.00     0.002 A 
HETATM   29  C21 UNL     1      10.520   8.895  25.612  1.00  0.00     0.015 A 
HETATM   30  C22 UNL     1       9.904   7.860  26.284  1.00  0.00     0.005 A 
HETATM   31  C24 UNL     1       8.776   7.333  25.742  1.00  0.00     0.023 A 
BRANCH  30  32
HETATM   32  C23 UNL     1      10.443   7.338  27.541  1.00  0.00     0.120 C 
HETATM   33  N4  UNL     1      11.870   7.392  27.749  1.00  0.00    -0.082 NA
HETATM   34  N5  UNL     1       9.737   6.835  28.473  1.00  0.00    -0.387 N 
ATOM     35  H52 UNL     1       8.728   6.797  28.326  1.00  0.00     0.157 HD
ATOM     36  H51 UNL     1      10.113   6.472  29.349  1.00  0.00     0.157 HD
ENDBRANCH  30  32
ENDBRANCH  25  26
ENDBRANCH   9  25
TORSDOF 8
ENDMDL
