MODEL 6
REMARK VINA RESULT: -9.765371724      1.903      7.893
REMARK  8 active torsions:
REMARK  status: ('A' for Active; 'I' for Inactive)
REMARK    1  A    between atoms: C1_2  and  C2_6 
REMARK    2  A    between atoms: C6_10  and  C7_11 
REMARK    3  A    between atoms: C7_11  and  O1_12 
REMARK    4  A    between atoms: O1_12  and  C8_13 
REMARK    5  A    between atoms: C8_13  and  C9_15 
REMARK    6  A    between atoms: N3_23  and  C17_24 
REMARK    7  A    between atoms: C17_24  and  C18_25 
REMARK    8  A    between atoms: C22_29  and  C23_30 
ROOT
HETATM    1  C9  UNL     1       5.750   7.145  21.222  1.00  0.00     0.112 A 
HETATM    2  C10 UNL     1       4.621   7.695  20.607  1.00  0.00     0.050 A 
HETATM    3  C11 UNL     1       4.722   7.487  19.249  1.00  0.00    -0.007 A 
HETATM    4  C12 UNL     1       3.919   7.804  18.178  1.00  0.00     0.014 A 
HETATM    5  C13 UNL     1       4.324   7.436  16.919  1.00  0.00     0.001 A 
HETATM    6  C14 UNL     1       5.503   6.764  16.699  1.00  0.00     0.002 A 
HETATM    7  C15 UNL     1       6.291   6.458  17.779  1.00  0.00     0.030 A 
HETATM    8  C16 UNL     1       5.909   6.814  19.050  1.00  0.00     0.045 A 
HETATM    9  N3  UNL     1       6.519   6.618  20.270  1.00  0.00    -0.337 N 
ENDROOT
BRANCH   1  10
HETATM   10  C8  UNL     1       5.975   7.146  22.650  1.00  0.00     0.310 C 
HETATM   11  O2  UNL     1       5.531   6.348  23.481  1.00  0.00    -0.258 OA
BRANCH  10  12
HETATM   12  O1  UNL     1       6.791   8.158  23.212  1.00  0.00    -0.312 OA
BRANCH  12  13
HETATM   13  C7  UNL     1       6.867   8.333  24.611  1.00  0.00     0.217 C 
BRANCH  13  14
HETATM   14  C6  UNL     1       8.306   8.457  24.956  1.00  0.00    -0.033 A 
HETATM   15  C5  UNL     1       9.191   9.202  24.205  1.00  0.00     0.009 A 
HETATM   16  C4  UNL     1      10.526   9.301  24.548  1.00  0.00     0.002 A 
HETATM   17  C3  UNL     1      11.035   8.664  25.650  1.00  0.00     0.015 A 
HETATM   18  C2  UNL     1      10.171   7.905  26.428  1.00  0.00     0.005 A 
HETATM   19  C25 UNL     1       8.845   7.813  26.079  1.00  0.00     0.024 A 
BRANCH  18  20
HETATM   20  C1  UNL     1      10.751   7.245  27.588  1.00  0.00     0.120 C 
HETATM   21  N1  UNL     1      12.175   7.253  27.775  1.00  0.00    -0.082 NA
HETATM   22  N2  UNL     1       9.986   6.664  28.429  1.00  0.00    -0.387 N 
ATOM     23  H22 UNL     1      10.393   6.201  29.243  1.00  0.00     0.157 HD
ATOM     24  H21 UNL     1       8.975   6.658  28.296  1.00  0.00     0.157 HD
ENDBRANCH  18  20
ENDBRANCH  13  14
ENDBRANCH  12  13
ENDBRANCH  10  12
ENDBRANCH   1  10
BRANCH   9  25
HETATM   25  C17 UNL     1       7.763   5.945  20.447  1.00  0.00     0.168 C 
BRANCH  25  26
HETATM   26  C18 UNL     1       7.743   4.487  20.336  1.00  0.00    -0.039 A 
HETATM   27  C19 UNL     1       6.951   3.666  21.088  1.00  0.00     0.009 A 
HETATM   28  C20 UNL     1       6.981   2.284  20.905  1.00  0.00     0.002 A 
HETATM   29  C21 UNL     1       7.792   1.719  19.979  1.00  0.00     0.015 A 
HETATM   30  C22 UNL     1       8.608   2.510  19.197  1.00  0.00     0.005 A 
HETATM   31  C24 UNL     1       8.566   3.853  19.389  1.00  0.00     0.023 A 
BRANCH  30  32
HETATM   32  C23 UNL     1       9.496   1.927  18.189  1.00  0.00     0.120 C 
HETATM   33  N4  UNL     1       9.366   2.373  16.823  1.00  0.00    -0.082 NA
HETATM   34  N5  UNL     1      10.383   1.047  18.433  1.00  0.00    -0.387 N 
ATOM     35  H52 UNL     1      10.475   0.732  19.399  1.00  0.00     0.157 HD
ATOM     36  H51 UNL     1      11.001   0.641  17.730  1.00  0.00     0.157 HD
ENDBRANCH  30  32
ENDBRANCH  25  26
ENDBRANCH   9  25
TORSDOF 8
ENDMDL
