MODEL 5
REMARK VINA RESULT: -9.011152059      3.163      5.435
REMARK  6 active torsions:
REMARK  status: ('A' for Active; 'I' for Inactive)
REMARK    1  A    between atoms: C9_9  and  C10_10 
REMARK       I    between atoms: C10_10  and  N1_12 
REMARK    2  A    between atoms: N1_12  and  C11_14 
REMARK    3  A    between atoms: C11_14  and  C12_15 
REMARK    4  A    between atoms: N2_23  and  C18_24 
REMARK    5  A    between atoms: C18_24  and  C19_25 
REMARK    6  A    between atoms: C23_29  and  C24_30 
ROOT
HETATM    1  C1  UNL     1       9.520   8.911  23.715  1.00  0.00     0.049 C 
HETATM    2  C2  UNL     1       8.196   8.245  23.757  1.00  0.00    -0.049 A 
HETATM    3  C3  UNL     1       7.491   8.288  24.940  1.00  0.00     0.007 A 
HETATM    4  C4  UNL     1       6.252   7.669  24.999  1.00  0.00     0.003 A 
HETATM    5  C5  UNL     1       5.728   7.028  23.915  1.00  0.00     0.030 A 
HETATM    6  C6  UNL     1       6.424   6.984  22.737  1.00  0.00     0.046 A 
HETATM    7  C7  UNL     1       7.672   7.597  22.654  1.00  0.00    -0.001 A 
HETATM    8  C8  UNL     1       8.136   7.376  21.381  1.00  0.00     0.049 A 
HETATM    9  C9  UNL     1       7.194   6.637  20.680  1.00  0.00     0.104 A 
HETATM   10  N2  UNL     1       6.174   6.413  21.503  1.00  0.00    -0.337 N 
ENDROOT
BRANCH   9  11
HETATM   11  C10 UNL     1       7.353   6.177  19.308  1.00  0.00     0.268 C 
HETATM   12  O1  UNL     1       7.012   6.797  18.298  1.00  0.00    -0.266 OA
HETATM   13  N1  UNL     1       7.956   4.888  19.035  1.00  0.00    -0.351 N 
ATOM     14  H1  UNL     1       8.266   4.328  19.830  1.00  0.00     0.163 HD
BRANCH  13  15
HETATM   15  C11 UNL     1       8.145   4.351  17.732  1.00  0.00     0.161 C 
BRANCH  15  16
HETATM   16  C12 UNL     1       8.108   2.878  17.624  1.00  0.00    -0.037 A 
HETATM   17  C13 UNL     1       6.988   2.187  17.195  1.00  0.00     0.032 A 
HETATM   18  C14 UNL     1       6.953   0.824  17.072  1.00  0.00     0.036 A 
HETATM   19 CL1  UNL     1       5.504   0.021  16.522  1.00  0.00    -0.084 Cl
HETATM   20  C15 UNL     1       8.050   0.057  17.377  1.00  0.00     0.047 A 
HETATM   21  C16 UNL     1       9.186   0.718  17.810  1.00  0.00     0.036 A 
HETATM   22 CL2  UNL     1      10.595  -0.274  18.195  1.00  0.00    -0.084 Cl
HETATM   23  C17 UNL     1       9.209   2.094  17.929  1.00  0.00     0.032 A 
ENDBRANCH  15  16
ENDBRANCH  13  15
ENDBRANCH   9  11
BRANCH  10  24
HETATM   24  C18 UNL     1       4.949   5.711  21.239  1.00  0.00     0.168 C 
BRANCH  24  25
HETATM   25  C19 UNL     1       5.021   4.241  21.514  1.00  0.00    -0.039 A 
HETATM   26  C20 UNL     1       5.836   3.370  20.832  1.00  0.00     0.009 A 
HETATM   27  C21 UNL     1       5.873   1.994  21.093  1.00  0.00     0.002 A 
HETATM   28  C22 UNL     1       5.075   1.472  22.061  1.00  0.00     0.015 A 
HETATM   29  C23 UNL     1       4.223   2.309  22.789  1.00  0.00     0.005 A 
HETATM   30  C25 UNL     1       4.217   3.654  22.500  1.00  0.00     0.023 A 
BRANCH  29  31
HETATM   31  C24 UNL     1       3.387   1.704  23.826  1.00  0.00     0.120 C 
HETATM   32  N3  UNL     1       2.603   2.572  24.646  1.00  0.00    -0.082 NA
HETATM   33  N4  UNL     1       3.334   0.441  24.009  1.00  0.00    -0.387 N 
ATOM     34  H42 UNL     1       3.894  -0.179  23.423  1.00  0.00     0.157 HD
ATOM     35  H41 UNL     1       2.751   0.019  24.732  1.00  0.00     0.157 HD
ENDBRANCH  29  31
ENDBRANCH  24  25
ENDBRANCH  10  24
TORSDOF 6
ENDMDL
