MODEL 2
REMARK VINA RESULT: -10.143012495      0.780      1.475
REMARK  6 active torsions:
REMARK  status: ('A' for Active; 'I' for Inactive)
REMARK    1  A    between atoms: C9_9  and  C10_10 
REMARK       I    between atoms: C10_10  and  N1_12 
REMARK    2  A    between atoms: N1_12  and  C11_14 
REMARK    3  A    between atoms: C11_14  and  C12_15 
REMARK    4  A    between atoms: N2_23  and  C18_24 
REMARK    5  A    between atoms: C18_24  and  C19_25 
REMARK    6  A    between atoms: C23_29  and  C24_30 
ROOT
HETATM    1  C1  UNL     1       2.374  10.956  22.130  1.00  0.00     0.049 C 
HETATM    2  C2  UNL     1       3.120  10.122  23.104  1.00  0.00    -0.049 A 
HETATM    3  C3  UNL     1       2.726  10.166  24.423  1.00  0.00     0.007 A 
HETATM    4  C4  UNL     1       3.411   9.395  25.348  1.00  0.00     0.003 A 
HETATM    5  C5  UNL     1       4.456   8.602  24.974  1.00  0.00     0.030 A 
HETATM    6  C6  UNL     1       4.850   8.554  23.664  1.00  0.00     0.046 A 
HETATM    7  C7  UNL     1       4.177   9.322  22.716  1.00  0.00    -0.001 A 
HETATM    8  C8  UNL     1       4.795   9.092  21.511  1.00  0.00     0.049 A 
HETATM    9  C9  UNL     1       5.836   8.195  21.703  1.00  0.00     0.104 A 
HETATM   10  N2  UNL     1       5.855   7.879  22.995  1.00  0.00    -0.337 N 
ENDROOT
BRANCH   9  11
HETATM   11  C10 UNL     1       6.744   7.742  20.659  1.00  0.00     0.268 C 
HETATM   12  O1  UNL     1       7.655   8.407  20.160  1.00  0.00    -0.266 OA
HETATM   13  N1  UNL     1       6.622   6.404  20.114  1.00  0.00    -0.351 N 
ATOM     14  H1  UNL     1       5.890   5.801  20.491  1.00  0.00     0.163 HD
BRANCH  13  15
HETATM   15  C11 UNL     1       7.455   5.878  19.090  1.00  0.00     0.161 C 
BRANCH  15  16
HETATM   16  C12 UNL     1       7.457   4.407  18.946  1.00  0.00    -0.037 A 
HETATM   17  C13 UNL     1       8.602   3.684  18.656  1.00  0.00     0.032 A 
HETATM   18  C14 UNL     1       8.615   2.321  18.542  1.00  0.00     0.036 A 
HETATM   19 CL1  UNL     1      10.098   1.477  18.175  1.00  0.00    -0.084 Cl
HETATM   20  C15 UNL     1       7.469   1.584  18.712  1.00  0.00     0.047 A 
HETATM   21  C16 UNL     1       6.306   2.277  19.003  1.00  0.00     0.036 A 
HETATM   22 CL2  UNL     1       4.837   1.323  19.226  1.00  0.00    -0.084 Cl
HETATM   23  C17 UNL     1       6.306   3.654  19.116  1.00  0.00     0.032 A 
ENDBRANCH  15  16
ENDBRANCH  13  15
ENDBRANCH   9  11
BRANCH  10  24
HETATM   24  C18 UNL     1       6.734   6.975  23.682  1.00  0.00     0.168 C 
BRANCH  24  25
HETATM   25  C19 UNL     1       7.955   7.630  24.249  1.00  0.00    -0.039 A 
HETATM   26  C20 UNL     1       8.572   8.724  23.690  1.00  0.00     0.009 A 
HETATM   27  C21 UNL     1       9.725   9.308  24.228  1.00  0.00     0.002 A 
HETATM   28  C22 UNL     1      10.281   8.788  25.353  1.00  0.00     0.015 A 
HETATM   29  C23 UNL     1       9.699   7.674  25.967  1.00  0.00     0.005 A 
HETATM   30  C25 UNL     1       8.567   7.130  25.407  1.00  0.00     0.023 A 
BRANCH  29  31
HETATM   31  C24 UNL     1      10.327   7.152  27.181  1.00  0.00     0.120 C 
HETATM   32  N3  UNL     1      11.755   7.125  27.238  1.00  0.00    -0.082 NA
HETATM   33  N4  UNL     1       9.645   6.734  28.177  1.00  0.00    -0.387 N 
ATOM     34  H42 UNL     1       8.626   6.754  28.136  1.00  0.00     0.157 HD
ATOM     35  H41 UNL     1      10.083   6.370  29.023  1.00  0.00     0.157 HD
ENDBRANCH  29  31
ENDBRANCH  24  25
ENDBRANCH  10  24
TORSDOF 6
ENDMDL
