MODEL 1
REMARK VINA RESULT: -10.296380875      0.000      0.000
REMARK  6 active torsions:
REMARK  status: ('A' for Active; 'I' for Inactive)
REMARK    1  A    between atoms: C9_9  and  C10_10 
REMARK       I    between atoms: C10_10  and  N1_12 
REMARK    2  A    between atoms: N1_12  and  C11_14 
REMARK    3  A    between atoms: C11_14  and  C12_15 
REMARK    4  A    between atoms: N2_23  and  C18_24 
REMARK    5  A    between atoms: C18_24  and  C19_25 
REMARK    6  A    between atoms: C23_29  and  C24_30 
ROOT
HETATM    1  C1  UNL     1       2.186  11.068  22.606  1.00  0.00     0.049 C 
HETATM    2  C2  UNL     1       2.988  10.187  23.490  1.00  0.00    -0.049 A 
HETATM    3  C3  UNL     1       2.671  10.158  24.830  1.00  0.00     0.007 A 
HETATM    4  C4  UNL     1       3.410   9.341  25.671  1.00  0.00     0.003 A 
HETATM    5  C5  UNL     1       4.433   8.575  25.196  1.00  0.00     0.030 A 
HETATM    6  C6  UNL     1       4.751   8.599  23.865  1.00  0.00     0.046 A 
HETATM    7  C7  UNL     1       4.023   9.413  22.999  1.00  0.00    -0.001 A 
HETATM    8  C8  UNL     1       4.571   9.251  21.751  1.00  0.00     0.049 A 
HETATM    9  C9  UNL     1       5.623   8.351  21.834  1.00  0.00     0.104 A 
HETATM   10  N2  UNL     1       5.717   7.966  23.104  1.00  0.00    -0.337 N 
ENDROOT
BRANCH   9  11
HETATM   11  C10 UNL     1       6.470   7.959  20.717  1.00  0.00     0.268 C 
HETATM   12  O1  UNL     1       7.350   8.654  20.203  1.00  0.00    -0.266 OA
HETATM   13  N1  UNL     1       6.317   6.652  20.107  1.00  0.00    -0.351 N 
ATOM     14  H1  UNL     1       5.608   6.027  20.491  1.00  0.00     0.163 HD
BRANCH  13  15
HETATM   15  C11 UNL     1       7.091   6.185  19.010  1.00  0.00     0.161 C 
BRANCH  15  16
HETATM   16  C12 UNL     1       7.417   4.744  19.011  1.00  0.00    -0.037 A 
HETATM   17  C13 UNL     1       7.033   3.890  20.032  1.00  0.00     0.032 A 
HETATM   18  C14 UNL     1       7.313   2.551  20.029  1.00  0.00     0.036 A 
HETATM   19 CL1  UNL     1       6.795   1.535  21.351  1.00  0.00    -0.084 Cl
HETATM   20  C15 UNL     1       8.006   1.973  18.994  1.00  0.00     0.047 A 
HETATM   21  C16 UNL     1       8.404   2.801  17.958  1.00  0.00     0.036 A 
HETATM   22 CL2  UNL     1       9.289   2.050  16.626  1.00  0.00    -0.084 Cl
HETATM   23  C17 UNL     1       8.114   4.151  17.971  1.00  0.00     0.032 A 
ENDBRANCH  15  16
ENDBRANCH  13  15
ENDBRANCH   9  11
BRANCH  10  24
HETATM   24  C18 UNL     1       6.635   7.031  23.690  1.00  0.00     0.168 C 
BRANCH  24  25
HETATM   25  C19 UNL     1       7.878   7.663  24.237  1.00  0.00    -0.039 A 
HETATM   26  C20 UNL     1       8.509   8.741  23.665  1.00  0.00     0.009 A 
HETATM   27  C21 UNL     1       9.681   9.304  24.184  1.00  0.00     0.002 A 
HETATM   28  C22 UNL     1      10.242   8.777  25.304  1.00  0.00     0.015 A 
HETATM   29  C23 UNL     1       9.645   7.678  25.931  1.00  0.00     0.005 A 
HETATM   30  C25 UNL     1       8.495   7.155  25.388  1.00  0.00     0.023 A 
BRANCH  29  31
HETATM   31  C24 UNL     1      10.280   7.148  27.138  1.00  0.00     0.120 C 
HETATM   32  N3  UNL     1      11.703   7.222  27.235  1.00  0.00    -0.082 NA
HETATM   33  N4  UNL     1       9.606   6.637  28.095  1.00  0.00    -0.387 N 
ATOM     34  H42 UNL     1       8.589   6.584  28.026  1.00  0.00     0.157 HD
ATOM     35  H41 UNL     1      10.048   6.267  28.937  1.00  0.00     0.157 HD
ENDBRANCH  29  31
ENDBRANCH  24  25
ENDBRANCH  10  24
TORSDOF 6
ENDMDL
