MODEL 3
REMARK VINA RESULT: -9.618674993      1.473      1.864
REMARK  6 active torsions:
REMARK  status: ('A' for Active; 'I' for Inactive)
REMARK    1  A    between atoms: C9_9  and  C10_10 
REMARK       I    between atoms: C10_10  and  N1_12 
REMARK    2  A    between atoms: N1_12  and  C11_14 
REMARK    3  A    between atoms: C11_14  and  C12_15 
REMARK    4  A    between atoms: N2_23  and  C18_24 
REMARK    5  A    between atoms: C18_24  and  C19_25 
REMARK    6  A    between atoms: C23_29  and  C24_30 
ROOT
HETATM    1  C1  UNL     1       2.537  10.133  21.533  1.00  0.00     0.049 C 
HETATM    2  C2  UNL     1       3.178   9.774  22.821  1.00  0.00    -0.049 A 
HETATM    3  C3  UNL     1       2.646  10.306  23.975  1.00  0.00     0.007 A 
HETATM    4  C4  UNL     1       3.232   9.983  25.188  1.00  0.00     0.003 A 
HETATM    5  C5  UNL     1       4.314   9.155  25.254  1.00  0.00     0.030 A 
HETATM    6  C6  UNL     1       4.845   8.622  24.111  1.00  0.00     0.046 A 
HETATM    7  C7  UNL     1       4.273   8.934  22.879  1.00  0.00    -0.001 A 
HETATM    8  C8  UNL     1       5.016   8.284  21.924  1.00  0.00     0.049 A 
HETATM    9  C9  UNL     1       6.035   7.579  22.548  1.00  0.00     0.104 A 
HETATM   10  N2  UNL     1       5.918   7.788  23.857  1.00  0.00    -0.337 N 
ENDROOT
BRANCH   9  11
HETATM   11  C10 UNL     1       7.050   6.799  21.855  1.00  0.00     0.268 C 
HETATM   12  O1  UNL     1       8.151   7.216  21.488  1.00  0.00    -0.266 OA
HETATM   13  N1  UNL     1       6.810   5.405  21.537  1.00  0.00    -0.351 N 
ATOM     14  H1  UNL     1       5.919   4.998  21.821  1.00  0.00     0.163 HD
BRANCH  13  15
HETATM   15  C11 UNL     1       7.736   4.568  20.857  1.00  0.00     0.161 C 
BRANCH  15  16
HETATM   16  C12 UNL     1       7.524   4.411  19.403  1.00  0.00    -0.037 A 
HETATM   17  C13 UNL     1       6.598   5.160  18.696  1.00  0.00     0.032 A 
HETATM   18  C14 UNL     1       6.411   5.034  17.347  1.00  0.00     0.036 A 
HETATM   19 CL1  UNL     1       5.226   6.015  16.522  1.00  0.00    -0.084 Cl
HETATM   20  C15 UNL     1       7.146   4.139  16.609  1.00  0.00     0.047 A 
HETATM   21  C16 UNL     1       8.081   3.375  17.287  1.00  0.00     0.036 A 
HETATM   22 CL2  UNL     1       9.027   2.230  16.332  1.00  0.00    -0.084 Cl
HETATM   23  C17 UNL     1       8.261   3.511  18.649  1.00  0.00     0.032 A 
ENDBRANCH  15  16
ENDBRANCH  13  15
ENDBRANCH   9  11
BRANCH  10  24
HETATM   24  C18 UNL     1       6.722   7.259  24.923  1.00  0.00     0.168 C 
BRANCH  24  25
HETATM   25  C19 UNL     1       8.088   7.866  25.010  1.00  0.00    -0.039 A 
HETATM   26  C20 UNL     1       8.512   8.922  24.239  1.00  0.00     0.009 A 
HETATM   27  C21 UNL     1       9.802   9.461  24.324  1.00  0.00     0.002 A 
HETATM   28  C22 UNL     1      10.695   8.932  25.201  1.00  0.00     0.015 A 
HETATM   29  C23 UNL     1      10.321   7.856  26.012  1.00  0.00     0.005 A 
HETATM   30  C25 UNL     1       9.045   7.356  25.897  1.00  0.00     0.023 A 
BRANCH  29  31
HETATM   31  C24 UNL     1      11.314   7.324  26.947  1.00  0.00     0.120 C 
HETATM   32  N3  UNL     1      12.694   7.456  26.605  1.00  0.00    -0.082 NA
HETATM   33  N4  UNL     1      10.984   6.761  28.045  1.00  0.00    -0.387 N 
ATOM     34  H42 UNL     1       9.997   6.667  28.289  1.00  0.00     0.157 HD
ATOM     35  H41 UNL     1      11.675   6.390  28.697  1.00  0.00     0.157 HD
ENDBRANCH  29  31
ENDBRANCH  24  25
ENDBRANCH  10  24
TORSDOF 6
ENDMDL
