MODEL 4
REMARK VINA RESULT: -9.027150876      3.921      7.640
REMARK  6 active torsions:
REMARK  status: ('A' for Active; 'I' for Inactive)
REMARK    1  A    between atoms: C9_9  and  C10_10 
REMARK       I    between atoms: C10_10  and  N1_12 
REMARK    2  A    between atoms: N1_12  and  C11_14 
REMARK    3  A    between atoms: C11_14  and  C12_15 
REMARK    4  A    between atoms: N2_23  and  C18_24 
REMARK    5  A    between atoms: C18_24  and  C19_25 
REMARK    6  A    between atoms: C23_29  and  C24_30 
ROOT
HETATM    1  C1  UNL     1       7.987   0.798  19.188  1.00  0.00     0.049 C 
HETATM    2  C2  UNL     1       7.816   2.270  19.254  1.00  0.00    -0.049 A 
HETATM    3  C3  UNL     1       8.639   3.049  18.470  1.00  0.00     0.007 A 
HETATM    4  C4  UNL     1       8.494   4.427  18.520  1.00  0.00     0.003 A 
HETATM    5  C5  UNL     1       7.561   5.013  19.323  1.00  0.00     0.030 A 
HETATM    6  C6  UNL     1       6.741   4.243  20.102  1.00  0.00     0.046 A 
HETATM    7  C7  UNL     1       6.868   2.855  20.070  1.00  0.00    -0.001 A 
HETATM    8  C8  UNL     1       5.945   2.354  20.955  1.00  0.00     0.049 A 
HETATM    9  C9  UNL     1       5.252   3.410  21.530  1.00  0.00     0.104 A 
HETATM   10  N2  UNL     1       5.737   4.534  21.007  1.00  0.00    -0.337 N 
ENDROOT
BRANCH   9  11
HETATM   11  C10 UNL     1       4.220   3.271  22.546  1.00  0.00     0.268 C 
HETATM   12  O1  UNL     1       4.331   2.645  23.603  1.00  0.00    -0.266 OA
HETATM   13  N1  UNL     1       2.924   3.895  22.363  1.00  0.00    -0.351 N 
ATOM     14  H1  UNL     1       2.771   4.433  21.510  1.00  0.00     0.163 HD
BRANCH  13  15
HETATM   15  C11 UNL     1       1.854   3.807  23.294  1.00  0.00     0.161 C 
BRANCH  15  16
HETATM   16  C12 UNL     1       1.483   5.063  23.978  1.00  0.00    -0.037 A 
HETATM   17  C13 UNL     1       0.168   5.453  24.168  1.00  0.00     0.032 A 
HETATM   18  C14 UNL     1      -0.183   6.604  24.819  1.00  0.00     0.036 A 
HETATM   19 CL1  UNL     1      -1.863   7.031  25.022  1.00  0.00    -0.084 Cl
HETATM   20  C15 UNL     1       0.772   7.450  25.328  1.00  0.00     0.047 A 
HETATM   21  C16 UNL     1       2.097   7.088  25.155  1.00  0.00     0.036 A 
HETATM   22 CL2  UNL     1       3.319   8.178  25.816  1.00  0.00    -0.084 Cl
HETATM   23  C17 UNL     1       2.438   5.923  24.496  1.00  0.00     0.032 A 
ENDBRANCH  15  16
ENDBRANCH  13  15
ENDBRANCH   9  11
BRANCH  10  24
HETATM   24  C18 UNL     1       5.335   5.887  21.267  1.00  0.00     0.168 C 
BRANCH  24  25
HETATM   25  C19 UNL     1       6.128   6.560  22.344  1.00  0.00    -0.039 A 
HETATM   26  C20 UNL     1       5.807   6.513  23.679  1.00  0.00     0.009 A 
HETATM   27  C21 UNL     1       6.553   7.166  24.668  1.00  0.00     0.002 A 
HETATM   28  C22 UNL     1       7.650   7.887  24.317  1.00  0.00     0.015 A 
HETATM   29  C23 UNL     1       8.026   7.973  22.972  1.00  0.00     0.005 A 
HETATM   30  C25 UNL     1       7.266   7.317  22.033  1.00  0.00     0.023 A 
BRANCH  29  31
HETATM   31  C24 UNL     1       9.218   8.754  22.641  1.00  0.00     0.120 C 
HETATM   32  N3  UNL     1      10.118   9.085  23.700  1.00  0.00    -0.082 NA
HETATM   33  N4  UNL     1       9.474   9.136  21.450  1.00  0.00    -0.387 N 
ATOM     34  H42 UNL     1       8.831   8.900  20.694  1.00  0.00     0.157 HD
ATOM     35  H41 UNL     1      10.305   9.681  21.219  1.00  0.00     0.157 HD
ENDBRANCH  29  31
ENDBRANCH  24  25
ENDBRANCH  10  24
TORSDOF 6
ENDMDL
