MODEL 6
REMARK VINA RESULT: -8.983210967      3.873      8.115
REMARK  6 active torsions:
REMARK  status: ('A' for Active; 'I' for Inactive)
REMARK    1  A    between atoms: C9_9  and  C10_10 
REMARK       I    between atoms: C10_10  and  N1_12 
REMARK    2  A    between atoms: N1_12  and  C11_14 
REMARK    3  A    between atoms: C11_14  and  C12_15 
REMARK    4  A    between atoms: N2_23  and  C18_24 
REMARK    5  A    between atoms: C18_24  and  C19_25 
REMARK    6  A    between atoms: C23_29  and  C24_30 
ROOT
HETATM    1  C1  UNL     1      10.013   1.480  17.834  1.00  0.00     0.049 C 
HETATM    2  C2  UNL     1       8.538   1.607  17.927  1.00  0.00    -0.049 A 
HETATM    3  C3  UNL     1       7.776   0.500  17.623  1.00  0.00     0.007 A 
HETATM    4  C4  UNL     1       6.397   0.600  17.703  1.00  0.00     0.003 A 
HETATM    5  C5  UNL     1       5.791   1.764  18.074  1.00  0.00     0.030 A 
HETATM    6  C6  UNL     1       6.543   2.866  18.378  1.00  0.00     0.046 A 
HETATM    7  C7  UNL     1       7.933   2.791  18.304  1.00  0.00    -0.001 A 
HETATM    8  C8  UNL     1       8.414   4.033  18.638  1.00  0.00     0.049 A 
HETATM    9  C9  UNL     1       7.343   4.871  18.916  1.00  0.00     0.104 A 
HETATM   10  N2  UNL     1       6.231   4.158  18.760  1.00  0.00    -0.337 N 
ENDROOT
BRANCH   9  11
HETATM   11  C10 UNL     1       7.461   6.278  19.270  1.00  0.00     0.268 C 
HETATM   12  O1  UNL     1       7.030   7.224  18.607  1.00  0.00    -0.266 OA
HETATM   13  N1  UNL     1       8.132   6.670  20.493  1.00  0.00    -0.351 N 
ATOM     14  H1  UNL     1       8.507   5.932  21.090  1.00  0.00     0.163 HD
BRANCH  13  15
HETATM   15  C11 UNL     1       8.303   8.016  20.917  1.00  0.00     0.161 C 
BRANCH  15  16
HETATM   16  C12 UNL     1       8.124   8.271  22.362  1.00  0.00    -0.037 A 
HETATM   17  C13 UNL     1       6.877   8.389  22.952  1.00  0.00     0.032 A 
HETATM   18  C14 UNL     1       6.704   8.604  24.292  1.00  0.00     0.036 A 
HETATM   19 CL1  UNL     1       5.100   8.741  24.967  1.00  0.00    -0.084 Cl
HETATM   20  C15 UNL     1       7.780   8.716  25.138  1.00  0.00     0.047 A 
HETATM   21  C16 UNL     1       9.041   8.602  24.578  1.00  0.00     0.036 A 
HETATM   22 CL2  UNL     1      10.421   8.742  25.671  1.00  0.00    -0.084 Cl
HETATM   23  C17 UNL     1       9.203   8.385  23.224  1.00  0.00     0.032 A 
ENDBRANCH  15  16
ENDBRANCH  13  15
ENDBRANCH   9  11
BRANCH  10  24
HETATM   24  C18 UNL     1       4.869   4.572  18.951  1.00  0.00     0.168 C 
BRANCH  24  25
HETATM   25  C19 UNL     1       4.475   4.715  20.389  1.00  0.00    -0.039 A 
HETATM   26  C20 UNL     1       4.325   5.922  21.028  1.00  0.00     0.009 A 
HETATM   27  C21 UNL     1       3.974   6.031  22.380  1.00  0.00     0.002 A 
HETATM   28  C22 UNL     1       3.767   4.907  23.114  1.00  0.00     0.015 A 
HETATM   29  C23 UNL     1       3.905   3.649  22.518  1.00  0.00     0.005 A 
HETATM   30  C25 UNL     1       4.252   3.586  21.188  1.00  0.00     0.023 A 
BRANCH  29  31
HETATM   31  C24 UNL     1       3.666   2.467  23.345  1.00  0.00     0.120 C 
HETATM   32  N3  UNL     1       2.917   2.632  24.550  1.00  0.00    -0.082 NA
HETATM   33  N4  UNL     1       4.095   1.308  23.020  1.00  0.00    -0.387 N 
ATOM     34  H42 UNL     1       4.630   1.190  22.159  1.00  0.00     0.157 HD
ATOM     35  H41 UNL     1       3.928   0.484  23.597  1.00  0.00     0.157 HD
ENDBRANCH  29  31
ENDBRANCH  24  25
ENDBRANCH  10  24
TORSDOF 6
ENDMDL
