MODEL 4
REMARK VINA RESULT: -10.290915428      1.525      1.855
REMARK  6 active torsions:
REMARK  status: ('A' for Active; 'I' for Inactive)
REMARK    1  A    between atoms: C7_7  and  C8_8 
REMARK    2  A    between atoms: C8_8  and  N1_9 
REMARK       I    between atoms: N1_9  and  C9_11 
REMARK    3  A    between atoms: C9_11  and  C10_13 
REMARK    4  A    between atoms: N2_22  and  C19_23 
REMARK    5  A    between atoms: C19_23  and  C20_24 
REMARK    6  A    between atoms: C24_28  and  C25_29 
ROOT
HETATM    1  C10 UNL     1       6.265   7.188  23.043  1.00  0.00     0.104 A 
HETATM    2  C11 UNL     1       5.087   6.512  23.420  1.00  0.00     0.049 A 
HETATM    3  C12 UNL     1       4.455   7.285  24.337  1.00  0.00    -0.001 A 
HETATM    4  C13 UNL     1       3.271   7.055  25.014  1.00  0.00    -0.049 A 
HETATM    5  C14 UNL     1       2.496   5.797  24.745  1.00  0.00     0.049 C 
HETATM    6  C15 UNL     1       2.811   7.979  25.926  1.00  0.00     0.007 A 
HETATM    7  C16 UNL     1       3.559   9.113  26.133  1.00  0.00     0.003 A 
HETATM    8  C17 UNL     1       4.751   9.317  25.434  1.00  0.00     0.030 A 
HETATM    9  C18 UNL     1       5.231   8.410  24.516  1.00  0.00     0.046 A 
HETATM   10  N2  UNL     1       6.337   8.336  23.714  1.00  0.00    -0.337 N 
ENDROOT
BRANCH   1  11
HETATM   11  C9  UNL     1       7.243   6.689  22.086  1.00  0.00     0.268 C 
HETATM   12  N1  UNL     1       6.894   6.485  20.700  1.00  0.00    -0.351 N 
ATOM     13  H1  UNL     1       5.945   6.696  20.389  1.00  0.00     0.163 HD
HETATM   14  O1  UNL     1       8.420   6.405  22.375  1.00  0.00    -0.266 OA
BRANCH  12  15
HETATM   15  C8  UNL     1       7.844   5.996  19.754  1.00  0.00     0.161 C 
BRANCH  15  16
HETATM   16  C7  UNL     1       7.925   4.536  19.662  1.00  0.00    -0.040 A 
HETATM   17  C6  UNL     1       8.676   3.847  18.737  1.00  0.00     0.015 A 
HETATM   18  C4  UNL     1       8.708   2.471  18.704  1.00  0.00    -0.061 A 
HETATM   19  C3  UNL     1       7.964   1.747  19.627  1.00  0.00     0.013 A 
HETATM   20  C5  UNL     1       9.517   1.720  17.704  1.00  0.00     0.048 C 
HETATM   21  C2  UNL     1       7.205   2.406  20.561  1.00  0.00    -0.061 A 
HETATM   22  C1  UNL     1       6.426   1.589  21.528  1.00  0.00     0.048 C 
HETATM   23  C27 UNL     1       7.201   3.784  20.561  1.00  0.00     0.015 A 
ENDBRANCH  15  16
ENDBRANCH  12  15
ENDBRANCH   1  11
BRANCH  10  24
HETATM   24  C19 UNL     1       7.326   9.380  23.667  1.00  0.00     0.168 C 
BRANCH  24  25
HETATM   25  C20 UNL     1       8.646   9.027  24.232  1.00  0.00    -0.039 A 
HETATM   26  C21 UNL     1       9.808   9.416  23.612  1.00  0.00     0.009 A 
HETATM   27  C22 UNL     1      11.069   9.106  24.145  1.00  0.00     0.002 A 
HETATM   28  C23 UNL     1      11.170   8.405  25.305  1.00  0.00     0.015 A 
HETATM   29  C24 UNL     1      10.032   7.992  25.966  1.00  0.00     0.005 A 
HETATM   30  C26 UNL     1       8.795   8.313  25.415  1.00  0.00     0.023 A 
BRANCH  29  31
HETATM   31  C25 UNL     1      10.184   7.246  27.202  1.00  0.00     0.120 C 
HETATM   32  N3  UNL     1      11.502   6.773  27.564  1.00  0.00    -0.082 NA
HETATM   33  N4  UNL     1       9.199   7.000  27.965  1.00  0.00    -0.387 N 
ATOM     34  H42 UNL     1       8.269   7.333  27.709  1.00  0.00     0.157 HD
ATOM     35  H41 UNL     1       9.306   6.475  28.833  1.00  0.00     0.157 HD
ENDBRANCH  29  31
ENDBRANCH  24  25
ENDBRANCH  10  24
TORSDOF 6
ENDMDL
