MODEL 10
REMARK VINA RESULT: -9.588700531      2.733      7.983
REMARK  6 active torsions:
REMARK  status: ('A' for Active; 'I' for Inactive)
REMARK    1  A    between atoms: C7_7  and  C8_8 
REMARK    2  A    between atoms: C8_8  and  N1_9 
REMARK       I    between atoms: N1_9  and  C9_11 
REMARK    3  A    between atoms: C9_11  and  C10_13 
REMARK    4  A    between atoms: N2_22  and  C19_23 
REMARK    5  A    between atoms: C19_23  and  C20_24 
REMARK    6  A    between atoms: C24_28  and  C25_29 
ROOT
HETATM    1  C10 UNL     1       6.281   3.684  20.088  1.00  0.00     0.104 A 
HETATM    2  C11 UNL     1       7.267   2.686  19.951  1.00  0.00     0.049 A 
HETATM    3  C12 UNL     1       7.751   2.769  18.689  1.00  0.00    -0.001 A 
HETATM    4  C13 UNL     1       8.722   2.003  18.066  1.00  0.00    -0.049 A 
HETATM    5  C14 UNL     1       9.402   0.906  18.834  1.00  0.00     0.049 C 
HETATM    6  C15 UNL     1       9.056   2.253  16.754  1.00  0.00     0.007 A 
HETATM    7  C16 UNL     1       8.402   3.269  16.100  1.00  0.00     0.003 A 
HETATM    8  C17 UNL     1       7.427   4.024  16.754  1.00  0.00     0.030 A 
HETATM    9  C18 UNL     1       7.076   3.797  18.067  1.00  0.00     0.046 A 
HETATM   10  N2  UNL     1       6.178   4.349  18.939  1.00  0.00    -0.337 N 
ENDROOT
BRANCH   1  11
HETATM   11  C9  UNL     1       5.498   3.924  21.292  1.00  0.00     0.268 C 
HETATM   12  N1  UNL     1       5.839   4.991  22.204  1.00  0.00    -0.351 N 
ATOM     13  H1  UNL     1       6.641   5.585  21.997  1.00  0.00     0.163 HD
HETATM   14  O1  UNL     1       4.506   3.251  21.625  1.00  0.00    -0.266 OA
BRANCH  12  15
HETATM   15  C8  UNL     1       5.079   5.234  23.387  1.00  0.00     0.161 C 
BRANCH  15  16
HETATM   16  C7  UNL     1       5.276   6.558  23.984  1.00  0.00    -0.040 A 
HETATM   17  C6  UNL     1       4.337   7.230  24.732  1.00  0.00     0.015 A 
HETATM   18  C4  UNL     1       4.586   8.475  25.266  1.00  0.00    -0.061 A 
HETATM   19  C3  UNL     1       5.817   9.078  25.049  1.00  0.00     0.013 A 
HETATM   20  C5  UNL     1       3.573   9.208  26.076  1.00  0.00     0.048 C 
HETATM   21  C2  UNL     1       6.774   8.433  24.306  1.00  0.00    -0.061 A 
HETATM   22  C1  UNL     1       8.077   9.118  24.100  1.00  0.00     0.048 C 
HETATM   23  C27 UNL     1       6.485   7.188  23.790  1.00  0.00     0.015 A 
ENDBRANCH  15  16
ENDBRANCH  12  15
ENDBRANCH   1  11
BRANCH  10  24
HETATM   24  C19 UNL     1       5.339   5.461  18.580  1.00  0.00     0.168 C 
BRANCH  24  25
HETATM   25  C20 UNL     1       5.605   6.717  19.314  1.00  0.00    -0.039 A 
HETATM   26  C21 UNL     1       4.593   7.390  19.953  1.00  0.00     0.009 A 
HETATM   27  C22 UNL     1       4.830   8.573  20.671  1.00  0.00     0.002 A 
HETATM   28  C23 UNL     1       6.086   9.086  20.752  1.00  0.00     0.015 A 
HETATM   29  C24 UNL     1       7.137   8.446  20.127  1.00  0.00     0.005 A 
HETATM   30  C26 UNL     1       6.872   7.276  19.422  1.00  0.00     0.023 A 
BRANCH  29  31
HETATM   31  C25 UNL     1       8.462   9.027  20.238  1.00  0.00     0.120 C 
HETATM   32  N3  UNL     1       8.643  10.412  19.863  1.00  0.00    -0.082 NA
HETATM   33  N4  UNL     1       9.458   8.356  20.654  1.00  0.00    -0.387 N 
ATOM     34  H42 UNL     1       9.331   7.379  20.918  1.00  0.00     0.157 HD
ATOM     35  H41 UNL     1      10.390   8.764  20.731  1.00  0.00     0.157 HD
ENDBRANCH  29  31
ENDBRANCH  24  25
ENDBRANCH  10  24
TORSDOF 6
ENDMDL
