MODEL 1
REMARK VINA RESULT: -10.794325445      0.000      0.000
REMARK  6 active torsions:
REMARK  status: ('A' for Active; 'I' for Inactive)
REMARK    1  A    between atoms: C7_7  and  C8_8 
REMARK    2  A    between atoms: C8_8  and  N1_9 
REMARK       I    between atoms: N1_9  and  C9_11 
REMARK    3  A    between atoms: C9_11  and  C10_13 
REMARK    4  A    between atoms: N2_22  and  C19_23 
REMARK    5  A    between atoms: C19_23  and  C20_24 
REMARK    6  A    between atoms: C24_28  and  C25_29 
ROOT
HETATM    1  C10 UNL     1       5.298   8.166  21.958  1.00  0.00     0.104 A 
HETATM    2  C11 UNL     1       4.252   9.110  21.973  1.00  0.00     0.049 A 
HETATM    3  C12 UNL     1       3.945   9.349  23.271  1.00  0.00    -0.001 A 
HETATM    4  C13 UNL     1       2.982  10.187  23.808  1.00  0.00    -0.049 A 
HETATM    5  C14 UNL     1       2.115  11.000  22.890  1.00  0.00     0.049 C 
HETATM    6  C15 UNL     1       2.829  10.269  25.174  1.00  0.00     0.007 A 
HETATM    7  C16 UNL     1       3.649   9.503  25.966  1.00  0.00     0.003 A 
HETATM    8  C17 UNL     1       4.611   8.667  25.395  1.00  0.00     0.030 A 
HETATM    9  C18 UNL     1       4.787   8.568  24.033  1.00  0.00     0.046 A 
HETATM   10  N2  UNL     1       5.612   7.849  23.212  1.00  0.00    -0.337 N 
ENDROOT
BRANCH   1  11
HETATM   11  C9  UNL     1       5.913   7.623  20.754  1.00  0.00     0.268 C 
HETATM   12  N1  UNL     1       7.106   6.812  20.827  1.00  0.00    -0.351 N 
ATOM     13  H1  UNL     1       7.522   6.619  21.737  1.00  0.00     0.163 HD
HETATM   14  O1  UNL     1       5.477   7.807  19.604  1.00  0.00    -0.266 OA
BRANCH  12  15
HETATM   15  C8  UNL     1       7.717   6.276  19.653  1.00  0.00     0.161 C 
BRANCH  15  16
HETATM   16  C7  UNL     1       7.847   4.816  19.640  1.00  0.00    -0.040 A 
HETATM   17  C6  UNL     1       8.648   4.106  18.776  1.00  0.00     0.015 A 
HETATM   18  C4  UNL     1       8.725   2.732  18.816  1.00  0.00    -0.061 A 
HETATM   19  C3  UNL     1       7.976   2.032  19.752  1.00  0.00     0.013 A 
HETATM   20  C5  UNL     1       9.590   1.958  17.882  1.00  0.00     0.048 C 
HETATM   21  C2  UNL     1       7.167   2.712  20.627  1.00  0.00    -0.061 A 
HETATM   22  C1  UNL     1       6.382   1.920  21.611  1.00  0.00     0.048 C 
HETATM   23  C27 UNL     1       7.118   4.087  20.554  1.00  0.00     0.015 A 
ENDBRANCH  15  16
ENDBRANCH  12  15
ENDBRANCH   1  11
BRANCH  10  24
HETATM   24  C19 UNL     1       6.619   6.956  23.722  1.00  0.00     0.168 C 
BRANCH  24  25
HETATM   25  C20 UNL     1       7.821   7.611  24.282  1.00  0.00    -0.039 A 
HETATM   26  C21 UNL     1       8.355   8.731  23.692  1.00  0.00     0.009 A 
HETATM   27  C22 UNL     1       9.483   9.376  24.221  1.00  0.00     0.002 A 
HETATM   28  C23 UNL     1      10.081   8.902  25.345  1.00  0.00     0.015 A 
HETATM   29  C24 UNL     1       9.581   7.781  25.975  1.00  0.00     0.005 A 
HETATM   30  C26 UNL     1       8.463   7.160  25.428  1.00  0.00     0.023 A 
BRANCH  29  31
HETATM   31  C25 UNL     1      10.250   7.307  27.174  1.00  0.00     0.120 C 
HETATM   32  N3  UNL     1      11.681   7.482  27.280  1.00  0.00    -0.082 NA
HETATM   33  N4  UNL     1       9.615   6.748  28.121  1.00  0.00    -0.387 N 
ATOM     34  H42 UNL     1       8.605   6.624  28.046  1.00  0.00     0.157 HD
ATOM     35  H41 UNL     1      10.084   6.415  28.963  1.00  0.00     0.157 HD
ENDBRANCH  29  31
ENDBRANCH  24  25
ENDBRANCH  10  24
TORSDOF 6
ENDMDL
