MODEL 8
REMARK VINA RESULT: -9.757364514      3.105      7.923
REMARK  6 active torsions:
REMARK  status: ('A' for Active; 'I' for Inactive)
REMARK    1  A    between atoms: C7_7  and  C8_8 
REMARK    2  A    between atoms: C8_8  and  N1_9 
REMARK       I    between atoms: N1_9  and  C9_11 
REMARK    3  A    between atoms: C9_11  and  C10_13 
REMARK    4  A    between atoms: N2_22  and  C19_23 
REMARK    5  A    between atoms: C19_23  and  C20_24 
REMARK    6  A    between atoms: C24_28  and  C25_29 
ROOT
HETATM    1  C10 UNL     1       7.349   5.199  20.160  1.00  0.00     0.104 A 
HETATM    2  C11 UNL     1       8.270   4.185  19.828  1.00  0.00     0.049 A 
HETATM    3  C12 UNL     1       8.151   3.952  18.499  1.00  0.00    -0.001 A 
HETATM    4  C13 UNL     1       8.826   3.046  17.700  1.00  0.00    -0.049 A 
HETATM    5  C14 UNL     1       9.873   2.159  18.311  1.00  0.00     0.049 C 
HETATM    6  C15 UNL     1       8.534   2.964  16.357  1.00  0.00     0.007 A 
HETATM    7  C16 UNL     1       7.567   3.799  15.852  1.00  0.00     0.003 A 
HETATM    8  C17 UNL     1       6.903   4.704  16.682  1.00  0.00     0.030 A 
HETATM    9  C18 UNL     1       7.177   4.807  18.028  1.00  0.00     0.046 A 
HETATM   10  N2  UNL     1       6.696   5.566  19.059  1.00  0.00    -0.337 N 
ENDROOT
BRANCH   1  11
HETATM   11  C9  UNL     1       7.145   5.734  21.499  1.00  0.00     0.268 C 
HETATM   12  N1  UNL     1       5.869   5.613  22.165  1.00  0.00    -0.351 N 
ATOM     13  H1  UNL     1       5.101   5.143  21.687  1.00  0.00     0.163 HD
HETATM   14  O1  UNL     1       8.023   6.322  22.157  1.00  0.00    -0.266 OA
BRANCH  12  15
HETATM   15  C8  UNL     1       5.659   6.134  23.477  1.00  0.00     0.161 C 
BRANCH  15  16
HETATM   16  C7  UNL     1       4.922   7.400  23.525  1.00  0.00    -0.040 A 
HETATM   17  C6  UNL     1       4.527   8.122  22.422  1.00  0.00     0.015 A 
HETATM   18  C4  UNL     1       3.835   9.307  22.536  1.00  0.00    -0.061 A 
HETATM   19  C3  UNL     1       3.522   9.797  23.797  1.00  0.00     0.013 A 
HETATM   20  C5  UNL     1       3.406  10.093  21.346  1.00  0.00     0.048 C 
HETATM   21  C2  UNL     1       3.903   9.100  24.916  1.00  0.00    -0.061 A 
HETATM   22  C1  UNL     1       3.546   9.664  26.244  1.00  0.00     0.048 C 
HETATM   23  C27 UNL     1       4.593   7.918  24.758  1.00  0.00     0.015 A 
ENDBRANCH  15  16
ENDBRANCH  12  15
ENDBRANCH   1  11
BRANCH  10  24
HETATM   24  C19 UNL     1       5.681   6.569  18.870  1.00  0.00     0.168 C 
BRANCH  24  25
HETATM   25  C20 UNL     1       6.178   7.956  18.744  1.00  0.00    -0.039 A 
HETATM   26  C21 UNL     1       5.657   8.811  17.805  1.00  0.00     0.009 A 
HETATM   27  C22 UNL     1       6.102  10.136  17.684  1.00  0.00     0.002 A 
HETATM   28  C23 UNL     1       7.073  10.611  18.508  1.00  0.00     0.015 A 
HETATM   29  C24 UNL     1       7.628   9.792  19.469  1.00  0.00     0.005 A 
HETATM   30  C26 UNL     1       7.168   8.482  19.565  1.00  0.00     0.023 A 
BRANCH  29  31
HETATM   31  C25 UNL     1       8.662  10.338  20.328  1.00  0.00     0.120 C 
HETATM   32  N3  UNL     1       8.775  11.775  20.444  1.00  0.00    -0.082 NA
HETATM   33  N4  UNL     1       9.462   9.593  20.975  1.00  0.00    -0.387 N 
ATOM     34  H42 UNL     1       9.383   8.580  20.893  1.00  0.00     0.157 HD
ATOM     35  H41 UNL     1      10.189   9.977  21.578  1.00  0.00     0.157 HD
ENDBRANCH  29  31
ENDBRANCH  24  25
ENDBRANCH  10  24
TORSDOF 6
ENDMDL
