MODEL 5
REMARK VINA RESULT: -9.808207261      2.950      4.165
REMARK  6 active torsions:
REMARK  status: ('A' for Active; 'I' for Inactive)
REMARK    1  A    between atoms: C7_7  and  C8_8 
REMARK    2  A    between atoms: C8_8  and  N1_9 
REMARK       I    between atoms: N1_9  and  C9_11 
REMARK    3  A    between atoms: C9_11  and  C10_13 
REMARK    4  A    between atoms: N2_22  and  C19_23 
REMARK    5  A    between atoms: C19_23  and  C20_24 
REMARK    6  A    between atoms: C24_28  and  C25_29 
ROOT
HETATM    1  C10 UNL     1       3.798   5.163  23.291  1.00  0.00     0.104 A 
HETATM    2  C11 UNL     1       2.512   5.354  23.836  1.00  0.00     0.049 A 
HETATM    3  C12 UNL     1       2.544   6.505  24.550  1.00  0.00    -0.001 A 
HETATM    4  C13 UNL     1       1.540   7.116  25.280  1.00  0.00    -0.049 A 
HETATM    5  C14 UNL     1       0.176   6.488  25.331  1.00  0.00     0.049 C 
HETATM    6  C15 UNL     1       1.796   8.291  25.951  1.00  0.00     0.007 A 
HETATM    7  C16 UNL     1       3.061   8.821  25.869  1.00  0.00     0.003 A 
HETATM    8  C17 UNL     1       4.054   8.182  25.124  1.00  0.00     0.030 A 
HETATM    9  C18 UNL     1       3.823   7.007  24.443  1.00  0.00     0.046 A 
HETATM   10  N2  UNL     1       4.579   6.174  23.666  1.00  0.00    -0.337 N 
ENDROOT
BRANCH   1  11
HETATM   11  C9  UNL     1       4.194   4.029  22.467  1.00  0.00     0.268 C 
HETATM   12  N1  UNL     1       5.407   3.295  22.742  1.00  0.00    -0.351 N 
ATOM     13  H1  UNL     1       5.993   3.578  23.528  1.00  0.00     0.163 HD
HETATM   14  O1  UNL     1       3.544   3.615  21.491  1.00  0.00    -0.266 OA
BRANCH  12  15
HETATM   15  C8  UNL     1       5.804   2.183  21.941  1.00  0.00     0.161 C 
BRANCH  15  16
HETATM   16  C7  UNL     1       6.775   2.498  20.889  1.00  0.00    -0.040 A 
HETATM   17  C6  UNL     1       7.503   1.565  20.186  1.00  0.00     0.015 A 
HETATM   18  C4  UNL     1       8.401   1.929  19.208  1.00  0.00    -0.061 A 
HETATM   19  C3  UNL     1       8.586   3.273  18.914  1.00  0.00     0.013 A 
HETATM   20  C5  UNL     1       9.192   0.923  18.445  1.00  0.00     0.048 C 
HETATM   21  C2  UNL     1       7.875   4.226  19.599  1.00  0.00    -0.061 A 
HETATM   22  C1  UNL     1       8.107   5.653  19.251  1.00  0.00     0.048 C 
HETATM   23  C27 UNL     1       6.986   3.821  20.570  1.00  0.00     0.015 A 
ENDBRANCH  15  16
ENDBRANCH  12  15
ENDBRANCH   1  11
BRANCH  10  24
HETATM   24  C19 UNL     1       5.957   6.448  23.355  1.00  0.00     0.168 C 
BRANCH  24  25
HETATM   25  C20 UNL     1       6.179   7.385  22.233  1.00  0.00    -0.039 A 
HETATM   26  C21 UNL     1       5.236   7.542  21.247  1.00  0.00     0.009 A 
HETATM   27  C22 UNL     1       5.420   8.441  20.185  1.00  0.00     0.002 A 
HETATM   28  C23 UNL     1       6.553   9.188  20.108  1.00  0.00     0.015 A 
HETATM   29  C24 UNL     1       7.530   9.066  21.074  1.00  0.00     0.005 A 
HETATM   30  C26 UNL     1       7.321   8.167  22.115  1.00  0.00     0.023 A 
BRANCH  29  31
HETATM   31  C25 UNL     1       8.725   9.883  20.954  1.00  0.00     0.120 C 
HETATM   32  N3  UNL     1       8.593  11.226  20.435  1.00  0.00    -0.082 NA
HETATM   33  N4  UNL     1       9.871   9.450  21.289  1.00  0.00    -0.387 N 
ATOM     34  H42 UNL     1       9.964   8.502  21.655  1.00  0.00     0.157 HD
ATOM     35  H41 UNL     1      10.710  10.023  21.205  1.00  0.00     0.157 HD
ENDBRANCH  29  31
ENDBRANCH  24  25
ENDBRANCH  10  24
TORSDOF 6
ENDMDL
