MODEL 2
REMARK VINA RESULT: -10.787499066      0.180      1.498
REMARK  6 active torsions:
REMARK  status: ('A' for Active; 'I' for Inactive)
REMARK    1  A    between atoms: C7_7  and  C8_8 
REMARK    2  A    between atoms: C8_8  and  N1_9 
REMARK       I    between atoms: N1_9  and  C9_11 
REMARK    3  A    between atoms: C9_11  and  C10_13 
REMARK    4  A    between atoms: N2_22  and  C19_23 
REMARK    5  A    between atoms: C19_23  and  C20_24 
REMARK    6  A    between atoms: C24_28  and  C25_29 
ROOT
HETATM    1  C10 UNL     1       5.170   8.024  21.996  1.00  0.00     0.104 A 
HETATM    2  C11 UNL     1       4.142   8.988  21.975  1.00  0.00     0.049 A 
HETATM    3  C12 UNL     1       3.878   9.324  23.260  1.00  0.00    -0.001 A 
HETATM    4  C13 UNL     1       2.948  10.217  23.764  1.00  0.00    -0.049 A 
HETATM    5  C14 UNL     1       2.069  10.981  22.816  1.00  0.00     0.049 C 
HETATM    6  C15 UNL     1       2.838  10.398  25.124  1.00  0.00     0.007 A 
HETATM    7  C16 UNL     1       3.668   9.673  25.945  1.00  0.00     0.003 A 
HETATM    8  C17 UNL     1       4.596   8.780  25.408  1.00  0.00     0.030 A 
HETATM    9  C18 UNL     1       4.729   8.581  24.051  1.00  0.00     0.046 A 
HETATM   10  N2  UNL     1       5.516   7.790  23.260  1.00  0.00    -0.337 N 
ENDROOT
BRANCH   1  11
HETATM   11  C9  UNL     1       5.738   7.385  20.817  1.00  0.00     0.268 C 
HETATM   12  N1  UNL     1       7.114   6.949  20.795  1.00  0.00    -0.351 N 
ATOM     13  H1  UNL     1       7.696   7.093  21.620  1.00  0.00     0.163 HD
HETATM   14  O1  UNL     1       5.106   7.169  19.767  1.00  0.00    -0.266 OA
BRANCH  12  15
HETATM   15  C8  UNL     1       7.681   6.322  19.644  1.00  0.00     0.161 C 
BRANCH  15  16
HETATM   16  C7  UNL     1       7.768   4.861  19.720  1.00  0.00    -0.040 A 
HETATM   17  C6  UNL     1       7.090   4.079  20.627  1.00  0.00     0.015 A 
HETATM   18  C4  UNL     1       7.216   2.709  20.645  1.00  0.00    -0.061 A 
HETATM   19  C3  UNL     1       8.049   2.086  19.724  1.00  0.00     0.013 A 
HETATM   20  C5  UNL     1       6.486   1.857  21.625  1.00  0.00     0.048 C 
HETATM   21  C2  UNL     1       8.738   2.839  18.808  1.00  0.00    -0.061 A 
HETATM   22  C1  UNL     1       9.619   2.129  17.843  1.00  0.00     0.048 C 
HETATM   23  C27 UNL     1       8.584   4.209  18.823  1.00  0.00     0.015 A 
ENDBRANCH  15  16
ENDBRANCH  12  15
ENDBRANCH   1  11
BRANCH  10  24
HETATM   24  C19 UNL     1       6.521   6.915  23.803  1.00  0.00     0.168 C 
BRANCH  24  25
HETATM   25  C20 UNL     1       7.730   7.587  24.325  1.00  0.00    -0.039 A 
HETATM   26  C21 UNL     1       8.234   8.709  23.715  1.00  0.00     0.009 A 
HETATM   27  C22 UNL     1       9.369   9.371  24.209  1.00  0.00     0.002 A 
HETATM   28  C23 UNL     1      10.003   8.911  25.319  1.00  0.00     0.015 A 
HETATM   29  C24 UNL     1       9.535   7.787  25.968  1.00  0.00     0.005 A 
HETATM   30  C26 UNL     1       8.409   7.151  25.456  1.00  0.00     0.023 A 
BRANCH  29  31
HETATM   31  C25 UNL     1      10.242   7.329  27.150  1.00  0.00     0.120 C 
HETATM   32  N3  UNL     1      11.669   7.548  27.230  1.00  0.00    -0.082 NA
HETATM   33  N4  UNL     1       9.644   6.745  28.107  1.00  0.00    -0.387 N 
ATOM     34  H42 UNL     1       8.637   6.590  28.051  1.00  0.00     0.157 HD
ATOM     35  H41 UNL     1      10.140   6.422  28.938  1.00  0.00     0.157 HD
ENDBRANCH  29  31
ENDBRANCH  24  25
ENDBRANCH  10  24
TORSDOF 6
ENDMDL
