MODEL 3
REMARK VINA RESULT: -10.334224649      1.446      2.219
REMARK  6 active torsions:
REMARK  status: ('A' for Active; 'I' for Inactive)
REMARK    1  A    between atoms: C7_7  and  C8_8 
REMARK    2  A    between atoms: C8_8  and  N1_9 
REMARK       I    between atoms: N1_9  and  C9_11 
REMARK    3  A    between atoms: C9_11  and  C10_13 
REMARK    4  A    between atoms: N2_22  and  C19_23 
REMARK    5  A    between atoms: C19_23  and  C20_24 
REMARK    6  A    between atoms: C24_28  and  C25_29 
ROOT
HETATM    1  C10 UNL     1       6.201   7.609  22.712  1.00  0.00     0.104 A 
HETATM    2  C11 UNL     1       5.193   8.346  22.058  1.00  0.00     0.049 A 
HETATM    3  C12 UNL     1       4.468   8.973  23.015  1.00  0.00    -0.001 A 
HETATM    4  C13 UNL     1       3.368   9.803  22.884  1.00  0.00    -0.049 A 
HETATM    5  C14 UNL     1       2.841  10.122  21.514  1.00  0.00     0.049 C 
HETATM    6  C15 UNL     1       2.768  10.330  24.005  1.00  0.00     0.007 A 
HETATM    7  C16 UNL     1       3.291  10.006  25.234  1.00  0.00     0.003 A 
HETATM    8  C17 UNL     1       4.401   9.166  25.335  1.00  0.00     0.030 A 
HETATM    9  C18 UNL     1       5.022   8.628  24.229  1.00  0.00     0.046 A 
HETATM   10  N2  UNL     1       6.085   7.792  24.026  1.00  0.00    -0.337 N 
ENDROOT
BRANCH   1  11
HETATM   11  C9  UNL     1       7.190   6.774  22.043  1.00  0.00     0.268 C 
HETATM   12  N1  UNL     1       6.897   5.404  21.696  1.00  0.00    -0.351 N 
ATOM     13  H1  UNL     1       5.982   5.017  21.924  1.00  0.00     0.163 HD
HETATM   14  O1  UNL     1       8.330   7.160  21.728  1.00  0.00    -0.266 OA
BRANCH  12  15
HETATM   15  C8  UNL     1       7.860   4.577  21.042  1.00  0.00     0.161 C 
BRANCH  15  16
HETATM   16  C7  UNL     1       7.713   4.498  19.586  1.00  0.00    -0.040 A 
HETATM   17  C6  UNL     1       6.882   5.296  18.834  1.00  0.00     0.015 A 
HETATM   18  C4  UNL     1       6.791   5.170  17.467  1.00  0.00    -0.061 A 
HETATM   19  C3  UNL     1       7.556   4.211  16.816  1.00  0.00     0.013 A 
HETATM   20  C5  UNL     1       5.893   6.031  16.648  1.00  0.00     0.048 C 
HETATM   21  C2  UNL     1       8.394   3.399  17.538  1.00  0.00    -0.061 A 
HETATM   22  C1  UNL     1       9.192   2.386  16.799  1.00  0.00     0.048 C 
HETATM   23  C27 UNL     1       8.456   3.558  18.906  1.00  0.00     0.015 A 
ENDBRANCH  15  16
ENDBRANCH  12  15
ENDBRANCH   1  11
BRANCH  10  24
HETATM   24  C19 UNL     1       6.880   7.278  25.109  1.00  0.00     0.168 C 
BRANCH  24  25
HETATM   25  C20 UNL     1       8.230   7.869  25.239  1.00  0.00    -0.039 A 
HETATM   26  C21 UNL     1       8.592   8.972  24.505  1.00  0.00     0.009 A 
HETATM   27  C22 UNL     1       9.861   9.558  24.630  1.00  0.00     0.002 A 
HETATM   28  C23 UNL     1      10.773   9.041  25.495  1.00  0.00     0.015 A 
HETATM   29  C24 UNL     1      10.456   7.934  26.256  1.00  0.00     0.005 A 
HETATM   30  C26 UNL     1       9.192   7.374  26.111  1.00  0.00     0.023 A 
BRANCH  29  31
HETATM   31  C25 UNL     1      11.459   7.413  27.167  1.00  0.00     0.120 C 
HETATM   32  N3  UNL     1      12.855   7.615  26.846  1.00  0.00    -0.082 NA
HETATM   33  N4  UNL     1      11.145   6.792  28.229  1.00  0.00    -0.387 N 
ATOM     34  H42 UNL     1      10.161   6.649  28.456  1.00  0.00     0.157 HD
ATOM     35  H41 UNL     1      11.849   6.425  28.869  1.00  0.00     0.157 HD
ENDBRANCH  29  31
ENDBRANCH  24  25
ENDBRANCH  10  24
TORSDOF 6
ENDMDL
