MODEL 3
REMARK VINA RESULT: -6.252630376      2.786      4.331
REMARK  2 active torsions:
REMARK  status: ('A' for Active; 'I' for Inactive)
REMARK    1  A    between atoms: C1_2  and  C2_4 
REMARK    2  A    between atoms: C2_4  and  C3_5 
ROOT
HETATM    1  C3  UNL     1       8.297  58.181  64.237  1.00  0.00    -0.037 A 
HETATM    2  C4  UNL     1       7.555  58.788  63.252  1.00  0.00     0.008 A 
HETATM    3  C5  UNL     1       7.890  58.753  61.929  1.00  0.00     0.001 A 
HETATM    4  C6  UNL     1       9.032  58.077  61.548  1.00  0.00     0.012 A 
HETATM    5  C7  UNL     1       9.797  57.460  62.512  1.00  0.00    -0.025 A 
HETATM    6  C8  UNL     1      10.938  56.810  62.104  1.00  0.00     0.012 A 
HETATM    7  C9  UNL     1      11.718  56.207  63.075  1.00  0.00     0.001 A 
HETATM    8  C10 UNL     1      11.383  56.241  64.402  1.00  0.00     0.001 A 
HETATM    9  C11 UNL     1      10.217  56.906  64.796  1.00  0.00     0.013 A 
HETATM   10  C12 UNL     1       9.431  57.510  63.860  1.00  0.00    -0.019 A 
ENDROOT
BRANCH   1  11
HETATM   11  C2  UNL     1       7.864  58.213  65.615  1.00  0.00     0.152 C 
BRANCH  11  12
HETATM   12  C1  UNL     1       6.369  58.038  65.620  1.00  0.00     0.176 C 
HETATM   13  O1  UNL     1       5.792  58.299  66.718  1.00  0.00    -0.648 OA
HETATM   14  O2  UNL     1       5.636  57.638  64.548  1.00  0.00    -0.648 OA
ENDBRANCH  11  12
ENDBRANCH   1  11
TORSDOF 2
ENDMDL
