MODEL 7
REMARK VINA RESULT: -6.155938322      3.164      5.325
REMARK  2 active torsions:
REMARK  status: ('A' for Active; 'I' for Inactive)
REMARK    1  A    between atoms: C1_2  and  C2_4 
REMARK    2  A    between atoms: C2_4  and  C3_5 
ROOT
HETATM    1  C3  UNL     1       7.077  58.287  65.178  1.00  0.00    -0.037 A 
HETATM    2  C4  UNL     1       7.757  57.945  66.324  1.00  0.00     0.008 A 
HETATM    3  C5  UNL     1       9.059  57.536  66.331  1.00  0.00     0.001 A 
HETATM    4  C6  UNL     1       9.740  57.456  65.132  1.00  0.00     0.012 A 
HETATM    5  C7  UNL     1       9.085  57.791  63.967  1.00  0.00    -0.025 A 
HETATM    6  C8  UNL     1       9.784  57.684  62.788  1.00  0.00     0.012 A 
HETATM    7  C9  UNL     1       9.121  58.001  61.616  1.00  0.00     0.001 A 
HETATM    8  C10 UNL     1       7.815  58.413  61.607  1.00  0.00     0.001 A 
HETATM    9  C11 UNL     1       7.123  58.516  62.818  1.00  0.00     0.013 A 
HETATM   10  C12 UNL     1       7.752  58.208  63.988  1.00  0.00    -0.019 A 
ENDROOT
BRANCH   1  11
HETATM   11  C2  UNL     1       5.714  58.759  65.241  1.00  0.00     0.152 C 
BRANCH  11  12
HETATM   12  C1  UNL     1       5.058  58.084  66.416  1.00  0.00     0.176 C 
HETATM   13  O1  UNL     1       5.191  56.824  66.467  1.00  0.00    -0.648 OA
HETATM   14  O2  UNL     1       4.365  58.732  67.388  1.00  0.00    -0.648 OA
ENDBRANCH  11  12
ENDBRANCH   1  11
TORSDOF 2
ENDMDL
