MODEL 8
REMARK VINA RESULT: -6.128545916      2.953      4.893
REMARK  2 active torsions:
REMARK  status: ('A' for Active; 'I' for Inactive)
REMARK    1  A    between atoms: C1_2  and  C2_4 
REMARK    2  A    between atoms: C2_4  and  C3_5 
ROOT
HETATM    1  C3  UNL     1       8.196  58.168  64.587  1.00  0.00    -0.037 A 
HETATM    2  C4  UNL     1       8.720  57.770  65.794  1.00  0.00     0.008 A 
HETATM    3  C5  UNL     1       9.870  57.046  65.912  1.00  0.00     0.001 A 
HETATM    4  C6  UNL     1      10.553  56.686  64.766  1.00  0.00     0.012 A 
HETATM    5  C7  UNL     1      10.052  57.069  63.542  1.00  0.00    -0.025 A 
HETATM    6  C8  UNL     1      10.744  56.681  62.419  1.00  0.00     0.012 A 
HETATM    7  C9  UNL     1      10.230  57.049  61.187  1.00  0.00     0.001 A 
HETATM    8  C10 UNL     1       9.077  57.776  61.068  1.00  0.00     0.001 A 
HETATM    9  C11 UNL     1       8.390  58.162  62.223  1.00  0.00     0.013 A 
HETATM   10  C12 UNL     1       8.872  57.812  63.450  1.00  0.00    -0.019 A 
ENDROOT
BRANCH   1  11
HETATM   11  C2  UNL     1       7.000  58.975  64.530  1.00  0.00     0.152 C 
BRANCH  11  12
HETATM   12  C1  UNL     1       5.913  58.218  65.244  1.00  0.00     0.176 C 
HETATM   13  O1  UNL     1       5.169  57.503  64.506  1.00  0.00    -0.648 OA
HETATM   14  O2  UNL     1       5.700  58.255  66.585  1.00  0.00    -0.648 OA
ENDBRANCH  11  12
ENDBRANCH   1  11
TORSDOF 2
ENDMDL
