MODEL 1
REMARK VINA RESULT: -7.981756001      0.000      0.000
REMARK  2 active torsions:
REMARK  status: ('A' for Active; 'I' for Inactive)
REMARK    1  A    between atoms: C1_2  and  C2_4 
REMARK    2  A    between atoms: C2_4  and  C3_5 
ROOT
HETATM    1  C3  UNL     1      10.787  57.083  63.016  1.00  0.00    -0.037 A 
HETATM    2  C4  UNL     1      10.934  56.921  61.659  1.00  0.00     0.008 A 
HETATM    3  C5  UNL     1       9.972  57.264  60.753  1.00  0.00     0.001 A 
HETATM    4  C6  UNL     1       8.786  57.803  61.211  1.00  0.00     0.012 A 
HETATM    5  C7  UNL     1       8.609  57.976  62.566  1.00  0.00    -0.025 A 
HETATM    6  C8  UNL     1       7.411  58.498  62.992  1.00  0.00     0.012 A 
HETATM    7  C9  UNL     1       7.225  58.653  64.355  1.00  0.00     0.001 A 
HETATM    8  C10 UNL     1       8.189  58.310  65.264  1.00  0.00     0.001 A 
HETATM    9  C11 UNL     1       9.401  57.783  64.809  1.00  0.00     0.013 A 
HETATM   10  C12 UNL     1       9.611  57.617  63.472  1.00  0.00    -0.019 A 
ENDROOT
BRANCH   1  11
HETATM   11  C2  UNL     1      11.861  56.745  63.921  1.00  0.00     0.152 C 
BRANCH  11  12
HETATM   12  C1  UNL     1      11.868  55.248  64.070  1.00  0.00     0.176 C 
HETATM   13  O1  UNL     1      11.135  54.787  64.997  1.00  0.00    -0.648 OA
HETATM   14  O2  UNL     1      12.586  54.398  63.290  1.00  0.00    -0.648 OA
ENDBRANCH  11  12
ENDBRANCH   1  11
TORSDOF 2
ENDMDL
