MODEL 4
REMARK VINA RESULT: -7.260936011      3.310      4.916
REMARK  5 active torsions:
REMARK  status: ('A' for Active; 'I' for Inactive)
REMARK    1  A    between atoms: C2_2  and  C3_3 
REMARK    2  A    between atoms: C2_2  and  O1_18 
REMARK    3  A    between atoms: C3_3  and  N1_4 
REMARK    4  A    between atoms: O1_18  and  C9_19 
REMARK    5  A    between atoms: C9_19  and  P1_20 
ROOT
HETATM    1  N1  UNL     1      41.524  61.003 172.836  1.00  0.00    -0.325 N 
HETATM    2  C4  UNL     1      42.308  61.681 171.963  1.00  0.00     0.185 A 
HETATM    3  N2  UNL     1      43.377  60.932 171.651  1.00  0.00    -0.346 N 
ATOM      4  H2  UNL     1      44.128  61.201 171.014  1.00  0.00     0.167 HD
HETATM    5  C5  UNL     1      43.293  59.784 172.309  1.00  0.00     0.119 A 
HETATM    6  C6  UNL     1      44.133  58.684 172.329  1.00  0.00     0.149 A 
HETATM    7  N3  UNL     1      45.333  58.621 171.569  1.00  0.00    -0.080 NA
HETATM    8  N4  UNL     1      43.780  57.646 173.103  1.00  0.00    -0.317 N 
ATOM      9  H4  UNL     1      44.376  56.820 173.140  1.00  0.00     0.169 HD
HETATM   10  C7  UNL     1      42.659  57.682 173.824  1.00  0.00     0.195 A 
HETATM   11  N5  UNL     1      42.260  56.579 174.661  1.00  0.00    -0.063 NA
HETATM   12  N6  UNL     1      41.856  58.753 173.796  1.00  0.00    -0.314 N 
ATOM     13  H6  UNL     1      41.007  58.743 174.362  1.00  0.00     0.170 HD
HETATM   14  C8  UNL     1      42.120  59.831 173.059  1.00  0.00     0.141 A 
ENDROOT
BRANCH   1  15
HETATM   15  C3  UNL     1      40.278  61.486 173.415  1.00  0.00     0.163 C 
BRANCH  15  16
HETATM   16  C2  UNL     1      39.180  60.526 173.083  1.00  0.00     0.136 C 
HETATM   17  C1  UNL     1      37.894  61.322 172.917  1.00  0.00     0.041 C 
BRANCH  16  18
HETATM   18  O1  UNL     1      39.066  59.585 174.087  1.00  0.00    -0.371 OA
BRANCH  18  19
HETATM   19  C9  UNL     1      38.719  60.119 175.330  1.00  0.00     0.313 C 
BRANCH  19  20
HETATM   20  P1  UNL     1      39.406  59.340 176.698  1.00  0.00     0.283 P 
HETATM   21  O2  UNL     1      40.874  59.638 176.335  1.00  0.00    -0.638 OA
HETATM   22  O3  UNL     1      39.586  57.726 176.748  1.00  0.00    -0.638 OA
HETATM   23  O4  UNL     1      39.721  60.266 178.117  1.00  0.00    -0.638 OA
ENDBRANCH  19  20
ENDBRANCH  18  19
ENDBRANCH  16  18
ENDBRANCH  15  16
ENDBRANCH   1  15
TORSDOF 5
ENDMDL
