MODEL 5
REMARK VINA RESULT: -7.215409788      1.432      2.033
REMARK  5 active torsions:
REMARK  status: ('A' for Active; 'I' for Inactive)
REMARK    1  A    between atoms: C2_2  and  C3_3 
REMARK    2  A    between atoms: C2_2  and  O1_18 
REMARK    3  A    between atoms: C3_3  and  N1_4 
REMARK    4  A    between atoms: O1_18  and  C9_19 
REMARK    5  A    between atoms: C9_19  and  P1_20 
ROOT
HETATM    1  N1  UNL     1      41.490  61.117 172.650  1.00  0.00    -0.325 N 
HETATM    2  C4  UNL     1      40.495  60.792 173.510  1.00  0.00     0.185 A 
HETATM    3  N2  UNL     1      40.735  59.578 174.030  1.00  0.00    -0.346 N 
ATOM      4  H2  UNL     1      40.145  59.092 174.706  1.00  0.00     0.167 HD
HETATM    5  C5  UNL     1      41.868  59.117 173.518  1.00  0.00     0.119 A 
HETATM    6  C6  UNL     1      42.544  57.928 173.730  1.00  0.00     0.149 A 
HETATM    7  N3  UNL     1      42.070  56.924 174.618  1.00  0.00    -0.080 NA
HETATM    8  N4  UNL     1      43.691  57.738 173.060  1.00  0.00    -0.317 N 
ATOM      9  H4  UNL     1      44.214  56.873 173.193  1.00  0.00     0.169 HD
HETATM   10  C7  UNL     1      44.155  58.665 172.222  1.00  0.00     0.195 A 
HETATM   11  N5  UNL     1      45.384  58.482 171.493  1.00  0.00    -0.063 NA
HETATM   12  N6  UNL     1      43.490  59.811 172.026  1.00  0.00    -0.314 N 
ATOM     13  H6  UNL     1      43.877  60.495 171.376  1.00  0.00     0.170 HD
HETATM   14  C8  UNL     1      42.344  60.093 172.644  1.00  0.00     0.141 A 
ENDROOT
BRANCH   1  15
HETATM   15  C3  UNL     1      41.584  62.350 171.882  1.00  0.00     0.163 C 
BRANCH  15  16
HETATM   16  C2  UNL     1      41.855  62.016 170.449  1.00  0.00     0.136 C 
HETATM   17  C1  UNL     1      42.949  62.946 169.948  1.00  0.00     0.041 C 
BRANCH  16  18
HETATM   18  O1  UNL     1      40.695  62.156 169.712  1.00  0.00    -0.371 OA
BRANCH  18  19
HETATM   19  C9  UNL     1      40.011  60.957 169.497  1.00  0.00     0.313 C 
BRANCH  19  20
HETATM   20  P1  UNL     1      38.443  60.855 170.193  1.00  0.00     0.283 P 
HETATM   21  O2  UNL     1      37.683  61.378 168.959  1.00  0.00    -0.638 OA
HETATM   22  O3  UNL     1      37.894  62.000 171.208  1.00  0.00    -0.638 OA
HETATM   23  O4  UNL     1      37.523  59.415 169.971  1.00  0.00    -0.638 OA
ENDBRANCH  19  20
ENDBRANCH  18  19
ENDBRANCH  16  18
ENDBRANCH  15  16
ENDBRANCH   1  15
TORSDOF 5
ENDMDL
