MODEL 1
REMARK VINA RESULT: -7.723958513      0.000      0.000
REMARK  5 active torsions:
REMARK  status: ('A' for Active; 'I' for Inactive)
REMARK    1  A    between atoms: C2_2  and  C3_3 
REMARK    2  A    between atoms: C2_2  and  O1_18 
REMARK    3  A    between atoms: C3_3  and  N1_4 
REMARK    4  A    between atoms: O1_18  and  C9_19 
REMARK    5  A    between atoms: C9_19  and  P1_20 
ROOT
HETATM    1  N1  UNL     1      41.548  60.732 173.796  1.00  0.00    -0.325 N 
HETATM    2  C4  UNL     1      40.697  60.188 174.699  1.00  0.00     0.185 A 
HETATM    3  N2  UNL     1      41.029  58.905 174.908  1.00  0.00    -0.346 N 
ATOM      4  H2  UNL     1      40.552  58.261 175.540  1.00  0.00     0.167 HD
HETATM    5  C5  UNL     1      42.079  58.614 174.153  1.00  0.00     0.119 A 
HETATM    6  C6  UNL     1      42.796  57.439 174.006  1.00  0.00     0.149 A 
HETATM    7  N3  UNL     1      42.474  56.250 174.716  1.00  0.00    -0.080 NA
HETATM    8  N4  UNL     1      43.833  57.446 173.155  1.00  0.00    -0.317 N 
ATOM      9  H4  UNL     1      44.383  56.597 173.024  1.00  0.00     0.169 HD
HETATM   10  C7  UNL     1      44.155  58.550 172.478  1.00  0.00     0.195 A 
HETATM   11  N5  UNL     1      45.264  58.580 171.560  1.00  0.00    -0.063 NA
HETATM   12  N6  UNL     1      43.451  59.679 172.629  1.00  0.00    -0.314 N 
ATOM     13  H6  UNL     1      43.728  60.502 172.093  1.00  0.00     0.170 HD
HETATM   14  C8  UNL     1      42.407  59.772 173.449  1.00  0.00     0.141 A 
ENDROOT
BRANCH   1  15
HETATM   15  C3  UNL     1      41.509  62.102 173.306  1.00  0.00     0.163 C 
BRANCH  15  16
HETATM   16  C2  UNL     1      40.653  62.160 172.080  1.00  0.00     0.136 C 
HETATM   17  C1  UNL     1      39.233  62.487 172.515  1.00  0.00     0.041 C 
BRANCH  16  18
HETATM   18  O1  UNL     1      40.713  60.952 171.415  1.00  0.00    -0.371 OA
BRANCH  18  19
HETATM   19  C9  UNL     1      41.282  61.033 170.141  1.00  0.00     0.313 C 
BRANCH  19  20
HETATM   20  P1  UNL     1      40.261  61.644 168.902  1.00  0.00     0.283 P 
HETATM   21  O2  UNL     1      39.978  60.282 168.239  1.00  0.00    -0.638 OA
HETATM   22  O3  UNL     1      40.876  62.339 167.568  1.00  0.00    -0.638 OA
HETATM   23  O4  UNL     1      38.561  61.703 169.174  1.00  0.00    -0.638 OA
ENDBRANCH  19  20
ENDBRANCH  18  19
ENDBRANCH  16  18
ENDBRANCH  15  16
ENDBRANCH   1  15
TORSDOF 5
ENDMDL
