MODEL 2
REMARK VINA RESULT: -7.522159078      4.527      6.501
REMARK  5 active torsions:
REMARK  status: ('A' for Active; 'I' for Inactive)
REMARK    1  A    between atoms: C2_2  and  C3_3 
REMARK    2  A    between atoms: C2_2  and  O1_18 
REMARK    3  A    between atoms: C3_3  and  N1_4 
REMARK    4  A    between atoms: O1_18  and  C9_19 
REMARK    5  A    between atoms: C9_19  and  P1_20 
ROOT
HETATM    1  N1  UNL     1      41.927  61.371 170.586  1.00  0.00    -0.325 N 
HETATM    2  C4  UNL     1      40.799  60.989 169.940  1.00  0.00     0.185 A 
HETATM    3  N2  UNL     1      40.668  61.706 168.812  1.00  0.00    -0.346 N 
ATOM      4  H2  UNL     1      39.907  61.621 168.138  1.00  0.00     0.167 HD
HETATM    5  C5  UNL     1      41.693  62.542 168.723  1.00  0.00     0.119 A 
HETATM    6  C6  UNL     1      42.019  63.481 167.760  1.00  0.00     0.149 A 
HETATM    7  N3  UNL     1      41.217  63.710 166.609  1.00  0.00    -0.080 NA
HETATM    8  N4  UNL     1      43.143  64.192 167.941  1.00  0.00    -0.317 N 
ATOM      9  H4  UNL     1      43.413  64.891 167.250  1.00  0.00     0.169 HD
HETATM   10  C7  UNL     1      43.912  63.994 169.013  1.00  0.00     0.195 A 
HETATM   11  N5  UNL     1      45.122  64.745 169.227  1.00  0.00    -0.063 NA
HETATM   12  N6  UNL     1      43.583  63.083 169.937  1.00  0.00    -0.314 N 
ATOM     13  H6  UNL     1      44.196  62.962 170.744  1.00  0.00     0.170 HD
HETATM   14  C8  UNL     1      42.489  62.329 169.847  1.00  0.00     0.141 A 
ENDROOT
BRANCH   1  15
HETATM   15  C3  UNL     1      42.410  60.831 171.849  1.00  0.00     0.163 C 
BRANCH  15  16
HETATM   16  C2  UNL     1      41.315  60.044 172.496  1.00  0.00     0.136 C 
HETATM   17  C1  UNL     1      41.071  60.629 173.879  1.00  0.00     0.041 C 
BRANCH  16  18
HETATM   18  O1  UNL     1      41.677  58.714 172.566  1.00  0.00    -0.371 OA
BRANCH  18  19
HETATM   19  C9  UNL     1      42.844  58.481 173.298  1.00  0.00     0.313 C 
BRANCH  19  20
HETATM   20  P1  UNL     1      42.968  56.935 174.037  1.00  0.00     0.283 P 
HETATM   21  O2  UNL     1      42.287  56.154 172.897  1.00  0.00    -0.638 OA
HETATM   22  O3  UNL     1      41.923  56.465 175.190  1.00  0.00    -0.638 OA
HETATM   23  O4  UNL     1      44.342  55.953 173.695  1.00  0.00    -0.638 OA
ENDBRANCH  19  20
ENDBRANCH  18  19
ENDBRANCH  16  18
ENDBRANCH  15  16
ENDBRANCH   1  15
TORSDOF 5
ENDMDL
