MODEL 14
REMARK VINA RESULT: -5.133306639      1.894      3.992
REMARK  3 active torsions:
REMARK  status: ('A' for Active; 'I' for Inactive)
REMARK    1  A    between atoms: C1_2  and  C2_4 
REMARK    2  A    between atoms: C2_4  and  O3_5 
REMARK    3  A    between atoms: O3_5  and  P1_6 
ROOT
HETATM    1  O3  UNL     1      22.246  -2.225   8.007  1.00  0.00    -0.272 OA
ENDROOT
BRANCH   1   2
HETATM    2  C2  UNL     1      21.126  -2.933   8.309  1.00  0.00     0.295 C 
BRANCH   2   3
HETATM    3  C1  UNL     1      20.378  -2.166   9.340  1.00  0.00     0.198 C 
HETATM    4  O1  UNL     1      19.362  -2.642   9.935  1.00  0.00    -0.646 OA
HETATM    5  O2  UNL     1      20.745  -0.882   9.712  1.00  0.00    -0.646 OA
ENDBRANCH   2   3
ENDBRANCH   1   2
BRANCH   1   6
HETATM    6  P1  UNL     1      22.125  -1.730   6.419  1.00  0.00     0.422 P 
HETATM    7  O4  UNL     1      21.685  -3.127   6.005  1.00  0.00    -0.617 OA
HETATM    8  O5  UNL     1      20.794  -1.001   5.855  1.00  0.00    -0.617 OA
HETATM    9  O6  UNL     1      23.474  -1.806   5.441  1.00  0.00    -0.617 OA
ENDBRANCH   1   6
TORSDOF 3
ENDMDL
