MODEL 3
REMARK VINA RESULT: -5.413168853      1.916      4.079
REMARK  3 active torsions:
REMARK  status: ('A' for Active; 'I' for Inactive)
REMARK    1  A    between atoms: C1_2  and  C2_4 
REMARK    2  A    between atoms: C2_4  and  O3_5 
REMARK    3  A    between atoms: O3_5  and  P1_6 
ROOT
HETATM    1  O3  UNL     1      20.606  -2.704   7.951  1.00  0.00    -0.272 OA
ENDROOT
BRANCH   1   2
HETATM    2  C2  UNL     1      20.309  -1.823   8.942  1.00  0.00     0.295 C 
BRANCH   2   3
HETATM    3  C1  UNL     1      21.292  -2.037  10.038  1.00  0.00     0.198 C 
HETATM    4  O1  UNL     1      21.976  -3.101  10.138  1.00  0.00    -0.646 OA
HETATM    5  O2  UNL     1      21.518  -1.083  11.019  1.00  0.00    -0.646 OA
ENDBRANCH   2   3
ENDBRANCH   1   2
BRANCH   1   6
HETATM    6  P1  UNL     1      21.587  -1.923   6.851  1.00  0.00     0.422 P 
HETATM    7  O4  UNL     1      21.632  -3.174   5.986  1.00  0.00    -0.617 OA
HETATM    8  O5  UNL     1      20.976  -0.979   5.687  1.00  0.00    -0.617 OA
HETATM    9  O6  UNL     1      23.241  -1.954   7.075  1.00  0.00    -0.617 OA
ENDBRANCH   1   6
TORSDOF 3
ENDMDL
