MODEL 5
REMARK VINA RESULT: -5.371233637      1.940      4.210
REMARK  3 active torsions:
REMARK  status: ('A' for Active; 'I' for Inactive)
REMARK    1  A    between atoms: C1_2  and  C2_4 
REMARK    2  A    between atoms: C2_4  and  O3_5 
REMARK    3  A    between atoms: O3_5  and  P1_6 
ROOT
HETATM    1  O3  UNL     1      20.662  -2.251   6.951  1.00  0.00    -0.272 OA
ENDROOT
BRANCH   1   2
HETATM    2  C2  UNL     1      20.591  -1.812   8.235  1.00  0.00     0.295 C 
BRANCH   2   3
HETATM    3  C1  UNL     1      20.772  -2.992   9.121  1.00  0.00     0.198 C 
HETATM    4  O1  UNL     1      19.970  -3.977   9.113  1.00  0.00    -0.646 OA
HETATM    5  O2  UNL     1      21.829  -3.087  10.013  1.00  0.00    -0.646 OA
ENDBRANCH   2   3
ENDBRANCH   1   2
BRANCH   1   6
HETATM    6  P1  UNL     1      22.120  -1.747   6.318  1.00  0.00     0.422 P 
HETATM    7  O4  UNL     1      22.025  -2.803   5.228  1.00  0.00    -0.617 OA
HETATM    8  O5  UNL     1      22.214  -0.501   5.288  1.00  0.00    -0.617 OA
HETATM    9  O6  UNL     1      23.533  -2.407   6.911  1.00  0.00    -0.617 OA
ENDBRANCH   1   6
TORSDOF 3
ENDMDL
