MODEL 13
REMARK VINA RESULT: -5.144611617      1.869      3.944
REMARK  3 active torsions:
REMARK  status: ('A' for Active; 'I' for Inactive)
REMARK    1  A    between atoms: C1_2  and  C2_4 
REMARK    2  A    between atoms: C2_4  and  O3_5 
REMARK    3  A    between atoms: O3_5  and  P1_6 
ROOT
HETATM    1  O3  UNL     1      20.786  -1.280   7.454  1.00  0.00    -0.272 OA
ENDROOT
BRANCH   1   2
HETATM    2  C2  UNL     1      20.452  -2.194   8.402  1.00  0.00     0.295 C 
BRANCH   2   3
HETATM    3  C1  UNL     1      21.177  -1.829   9.649  1.00  0.00     0.198 C 
HETATM    4  O1  UNL     1      21.887  -2.664  10.290  1.00  0.00    -0.646 OA
HETATM    5  O2  UNL     1      21.119  -0.553  10.186  1.00  0.00    -0.646 OA
ENDBRANCH   2   3
ENDBRANCH   1   2
BRANCH   1   6
HETATM    6  P1  UNL     1      22.105  -1.868   6.621  1.00  0.00     0.422 P 
HETATM    7  O4  UNL     1      21.971  -0.751   5.596  1.00  0.00    -0.617 OA
HETATM    8  O5  UNL     1      23.620  -1.479   7.042  1.00  0.00    -0.617 OA
HETATM    9  O6  UNL     1      21.872  -3.039   5.455  1.00  0.00    -0.617 OA
ENDBRANCH   1   6
TORSDOF 3
ENDMDL
