MODEL 4
REMARK VINA RESULT: -5.383233818      1.951      4.089
REMARK  3 active torsions:
REMARK  status: ('A' for Active; 'I' for Inactive)
REMARK    1  A    between atoms: C1_2  and  C2_4 
REMARK    2  A    between atoms: C2_4  and  O3_5 
REMARK    3  A    between atoms: O3_5  and  P1_6 
ROOT
HETATM    1  O3  UNL     1      21.043  -1.472   7.154  1.00  0.00    -0.272 OA
ENDROOT
BRANCH   1   2
HETATM    2  C2  UNL     1      20.937  -2.540   7.989  1.00  0.00     0.295 C 
BRANCH   2   3
HETATM    3  C1  UNL     1      21.242  -2.063   9.364  1.00  0.00     0.198 C 
HETATM    4  O1  UNL     1      21.881  -2.770  10.202  1.00  0.00    -0.646 OA
HETATM    5  O2  UNL     1      20.843  -0.813   9.814  1.00  0.00    -0.646 OA
ENDBRANCH   2   3
ENDBRANCH   1   2
BRANCH   1   6
HETATM    6  P1  UNL     1      22.440  -1.659   6.262  1.00  0.00     0.422 P 
HETATM    7  O4  UNL     1      21.857  -2.890   5.585  1.00  0.00    -0.617 OA
HETATM    8  O5  UNL     1      22.680  -0.850   4.881  1.00  0.00    -0.617 OA
HETATM    9  O6  UNL     1      23.701  -2.542   6.905  1.00  0.00    -0.617 OA
ENDBRANCH   1   6
TORSDOF 3
ENDMDL
