MODEL 16
REMARK VINA RESULT: -5.056167426      2.262      3.436
REMARK  3 active torsions:
REMARK  status: ('A' for Active; 'I' for Inactive)
REMARK    1  A    between atoms: C1_2  and  C2_4 
REMARK    2  A    between atoms: C2_4  and  O3_5 
REMARK    3  A    between atoms: O3_5  and  P1_6 
ROOT
HETATM    1  O3  UNL     1      22.393  -0.824   6.032  1.00  0.00    -0.272 OA
ENDROOT
BRANCH   1   2
HETATM    2  C2  UNL     1      22.383  -1.165   4.716  1.00  0.00     0.295 C 
BRANCH   2   3
HETATM    3  C1  UNL     1      21.888   0.012   3.954  1.00  0.00     0.198 C 
HETATM    4  O1  UNL     1      21.421   1.044   4.526  1.00  0.00    -0.646 OA
HETATM    5  O2  UNL     1      21.908   0.051   2.568  1.00  0.00    -0.646 OA
ENDBRANCH   2   3
ENDBRANCH   1   2
BRANCH   1   6
HETATM    6  P1  UNL     1      21.870  -2.143   6.907  1.00  0.00     0.422 P 
HETATM    7  O4  UNL     1      20.451  -1.595   6.907  1.00  0.00    -0.617 OA
HETATM    8  O5  UNL     1      21.473  -3.538   6.186  1.00  0.00    -0.617 OA
HETATM    9  O6  UNL     1      21.948  -2.094   8.573  1.00  0.00    -0.617 OA
ENDBRANCH   1   6
TORSDOF 3
ENDMDL
