MODEL 9
REMARK VINA RESULT: -5.193871666      2.285      3.194
REMARK  3 active torsions:
REMARK  status: ('A' for Active; 'I' for Inactive)
REMARK    1  A    between atoms: C1_2  and  C2_4 
REMARK    2  A    between atoms: C2_4  and  O3_5 
REMARK    3  A    between atoms: O3_5  and  P1_6 
ROOT
HETATM    1  O3  UNL     1      21.061  -1.101   5.909  1.00  0.00    -0.272 OA
ENDROOT
BRANCH   1   2
HETATM    2  C2  UNL     1      21.981  -1.044   4.911  1.00  0.00     0.295 C 
BRANCH   2   3
HETATM    3  C1  UNL     1      21.789   0.249   4.200  1.00  0.00     0.198 C 
HETATM    4  O1  UNL     1      21.194   1.235   4.734  1.00  0.00    -0.646 OA
HETATM    5  O2  UNL     1      22.249   0.453   2.909  1.00  0.00    -0.646 OA
ENDBRANCH   2   3
ENDBRANCH   1   2
BRANCH   1   6
HETATM    6  P1  UNL     1      21.628  -2.157   7.068  1.00  0.00     0.422 P 
HETATM    7  O4  UNL     1      21.623  -3.291   6.054  1.00  0.00    -0.617 OA
HETATM    8  O5  UNL     1      23.207  -2.285   7.401  1.00  0.00    -0.617 OA
HETATM    9  O6  UNL     1      20.534  -2.952   8.045  1.00  0.00    -0.617 OA
ENDBRANCH   1   6
TORSDOF 3
ENDMDL
