MODEL 4
REMARK VINA RESULT: -8.189459990      2.304      4.736
REMARK  7 active torsions:
REMARK  status: ('A' for Active; 'I' for Inactive)
REMARK    1  A    between atoms: C4_6  and  C5_7 
REMARK    2  A    between atoms: C5_7  and  O1_8 
REMARK    3  A    between atoms: O1_8  and  P1_9 
REMARK    4  A    between atoms: C6_13  and  C7_14 
REMARK    5  A    between atoms: N2_15  and  C8_17 
REMARK    6  A    between atoms: C8_17  and  P2_18 
REMARK    7  A    between atoms: C13_26  and  O8_27 
ROOT
HETATM    1  C1  UNL     1      19.704  48.557  15.892  1.00  0.00     0.071 C 
HETATM    2  C2  UNL     1      18.682  49.643  15.838  1.00  0.00     0.039 A 
HETATM    3  N1  UNL     1      18.508  50.402  14.750  1.00  0.00    -0.367 N 
ATOM      4  H1  UNL     1      19.119  50.236  13.951  1.00  0.00     0.165 HD
HETATM    5  C3  UNL     1      17.574  51.377  14.641  1.00  0.00     0.098 A 
HETATM    6  C4  UNL     1      16.719  51.634  15.725  1.00  0.00    -0.004 A 
HETATM    7  C6  UNL     1      16.892  50.882  16.824  1.00  0.00     0.024 A 
HETATM    8  C13 UNL     1      17.867  49.868  16.923  1.00  0.00     0.100 A 
ENDROOT
BRANCH   7   9
HETATM    9  C7  UNL     1      16.061  51.136  18.029  1.00  0.00     0.099 C 
HETATM   10  N2  UNL     1      16.664  51.424  19.096  1.00  0.00    -0.377 N 
ATOM     11  H2  UNL     1      17.680  51.450  19.010  1.00  0.00     0.160 HD
BRANCH  10  12
HETATM   12  C8  UNL     1      16.172  51.723  20.409  1.00  0.00     0.144 C 
HETATM   13  C9  UNL     1      16.234  53.190  20.651  1.00  0.00     0.045 C 
HETATM   14  C10 UNL     1      16.519  53.345  22.147  1.00  0.00     0.003 C 
HETATM   15  C11 UNL     1      17.232  52.091  22.546  1.00  0.00     0.003 C 
HETATM   16  C12 UNL     1      17.285  51.201  21.358  1.00  0.00     0.045 C 
BRANCH  12  17
HETATM   17  P2  UNL     1      14.715  50.864  20.874  1.00  0.00     0.288 P 
HETATM   18  O5  UNL     1      14.130  49.622  20.025  1.00  0.00    -0.638 OA
HETATM   19  O6  UNL     1      14.065  51.218  22.401  1.00  0.00    -0.638 OA
HETATM   20  O7  UNL     1      13.749  51.862  20.295  1.00  0.00    -0.638 OA
ENDBRANCH  12  17
ENDBRANCH  10  12
ENDBRANCH   7   9
BRANCH   6  21
HETATM   21  C5  UNL     1      15.613  52.560  15.499  1.00  0.00     0.223 C 
BRANCH  21  22
HETATM   22  O1  UNL     1      14.592  52.042  14.707  1.00  0.00    -0.278 OA
BRANCH  22  23
HETATM   23  P1  UNL     1      14.259  53.226  13.592  1.00  0.00     0.422 P 
HETATM   24  O2  UNL     1      13.432  53.975  14.603  1.00  0.00    -0.617 OA
HETATM   25  O3  UNL     1      13.077  53.054  12.485  1.00  0.00    -0.617 OA
HETATM   26  O4  UNL     1      15.316  54.491  13.449  1.00  0.00    -0.617 OA
ENDBRANCH  22  23
ENDBRANCH  21  22
ENDBRANCH   6  21
BRANCH   8  27
HETATM   27  O8  UNL     1      17.984  49.136  18.052  1.00  0.00    -0.358 OA
ATOM     28  H8  UNL     1      18.828  48.993  18.463  1.00  0.00     0.217 HD
ENDBRANCH   8  27
TORSDOF 7
ENDMDL
