MODEL 6
REMARK VINA RESULT: -7.617454863      2.438      4.840
REMARK  7 active torsions:
REMARK  status: ('A' for Active; 'I' for Inactive)
REMARK    1  A    between atoms: C4_6  and  C5_7 
REMARK    2  A    between atoms: C5_7  and  O1_8 
REMARK    3  A    between atoms: O1_8  and  P1_9 
REMARK    4  A    between atoms: C6_13  and  C7_14 
REMARK    5  A    between atoms: N2_15  and  C8_17 
REMARK    6  A    between atoms: C8_17  and  P2_18 
REMARK    7  A    between atoms: C13_26  and  O8_27 
ROOT
HETATM    1  C1  UNL     1      19.842  48.297  16.276  1.00  0.00     0.071 C 
HETATM    2  C2  UNL     1      18.839  49.391  16.122  1.00  0.00     0.039 A 
HETATM    3  N1  UNL     1      18.699  50.071  14.977  1.00  0.00    -0.367 N 
ATOM      4  H1  UNL     1      19.322  49.837  14.205  1.00  0.00     0.165 HD
HETATM    5  C3  UNL     1      17.783  51.048  14.778  1.00  0.00     0.098 A 
HETATM    6  C4  UNL     1      16.912  51.398  15.823  1.00  0.00    -0.004 A 
HETATM    7  C6  UNL     1      17.050  50.727  16.976  1.00  0.00     0.024 A 
HETATM    8  C13 UNL     1      18.007  49.708  17.170  1.00  0.00     0.100 A 
ENDROOT
BRANCH   7   9
HETATM    9  C7  UNL     1      16.201  51.081  18.143  1.00  0.00     0.099 C 
HETATM   10  N2  UNL     1      16.788  51.397  19.210  1.00  0.00    -0.377 N 
ATOM     11  H2  UNL     1      17.806  51.372  19.153  1.00  0.00     0.160 HD
BRANCH  10  12
HETATM   12  C8  UNL     1      16.276  51.787  20.492  1.00  0.00     0.144 C 
HETATM   13  C9  UNL     1      16.184  53.270  20.570  1.00  0.00     0.045 C 
HETATM   14  C10 UNL     1      16.461  53.619  22.034  1.00  0.00     0.003 C 
HETATM   15  C11 UNL     1      17.305  52.498  22.555  1.00  0.00     0.003 C 
HETATM   16  C12 UNL     1      17.445  51.493  21.471  1.00  0.00     0.045 C 
BRANCH  12  17
HETATM   17  P2  UNL     1      14.922  50.837  21.075  1.00  0.00     0.288 P 
HETATM   18  O5  UNL     1      14.232  51.097  22.511  1.00  0.00    -0.638 OA
HETATM   19  O6  UNL     1      14.186  49.783  19.968  1.00  0.00    -0.638 OA
HETATM   20  O7  UNL     1      15.742  49.668  21.554  1.00  0.00    -0.638 OA
ENDBRANCH  12  17
ENDBRANCH  10  12
ENDBRANCH   7   9
BRANCH   6  21
HETATM   21  C5  UNL     1      15.825  52.321  15.507  1.00  0.00     0.223 C 
BRANCH  21  22
HETATM   22  O1  UNL     1      15.976  52.980  14.290  1.00  0.00    -0.278 OA
BRANCH  22  23
HETATM   23  P1  UNL     1      14.450  53.482  13.871  1.00  0.00     0.422 P 
HETATM   24  O2  UNL     1      13.927  52.077  14.012  1.00  0.00    -0.617 OA
HETATM   25  O3  UNL     1      14.009  53.682  12.316  1.00  0.00    -0.617 OA
HETATM   26  O4  UNL     1      13.445  54.026  15.067  1.00  0.00    -0.617 OA
ENDBRANCH  22  23
ENDBRANCH  21  22
ENDBRANCH   6  21
BRANCH   8  27
HETATM   27  O8  UNL     1      18.090  49.060  18.352  1.00  0.00    -0.358 OA
ATOM     28  H8  UNL     1      17.520  49.282  19.078  1.00  0.00     0.217 HD
ENDBRANCH   8  27
TORSDOF 7
ENDMDL
