MODEL 1
REMARK VINA RESULT: -9.896424807      0.000      0.000
REMARK  7 active torsions:
REMARK  status: ('A' for Active; 'I' for Inactive)
REMARK    1  A    between atoms: C4_6  and  C5_7 
REMARK    2  A    between atoms: C5_7  and  O1_8 
REMARK    3  A    between atoms: O1_8  and  P1_9 
REMARK    4  A    between atoms: C6_13  and  C7_14 
REMARK    5  A    between atoms: N2_15  and  C8_17 
REMARK    6  A    between atoms: C8_17  and  P2_18 
REMARK    7  A    between atoms: C13_26  and  O8_27 
ROOT
HETATM    1  C1  UNL     1      15.247  53.766  13.773  1.00  0.00     0.071 C 
HETATM    2  C2  UNL     1      16.224  52.756  14.276  1.00  0.00     0.039 A 
HETATM    3  N1  UNL     1      17.317  52.418  13.581  1.00  0.00    -0.367 N 
ATOM      4  H1  UNL     1      17.457  52.855  12.670  1.00  0.00     0.165 HD
HETATM    5  C3  UNL     1      18.248  51.532  14.009  1.00  0.00     0.098 A 
HETATM    6  C4  UNL     1      18.083  50.909  15.256  1.00  0.00    -0.004 A 
HETATM    7  C6  UNL     1      16.986  51.237  15.956  1.00  0.00     0.024 A 
HETATM    8  C13 UNL     1      16.024  52.163  15.501  1.00  0.00     0.100 A 
ENDROOT
BRANCH   7   9
HETATM    9  C7  UNL     1      16.717  50.576  17.259  1.00  0.00     0.099 C 
HETATM   10  N2  UNL     1      16.383  51.313  18.223  1.00  0.00    -0.377 N 
ATOM     11  H2  UNL     1      16.336  52.306  17.996  1.00  0.00     0.160 HD
BRANCH  10  12
HETATM   12  C8  UNL     1      16.057  51.001  19.584  1.00  0.00     0.144 C 
HETATM   13  C9  UNL     1      17.141  51.476  20.486  1.00  0.00     0.045 C 
HETATM   14  C10 UNL     1      17.182  50.471  21.640  1.00  0.00     0.003 C 
HETATM   15  C11 UNL     1      16.647  49.194  21.071  1.00  0.00     0.003 C 
HETATM   16  C12 UNL     1      16.229  49.460  19.671  1.00  0.00     0.045 C 
BRANCH  12  17
HETATM   17  P2  UNL     1      14.394  51.316  20.044  1.00  0.00     0.288 P 
HETATM   18  O5  UNL     1      13.155  50.457  19.468  1.00  0.00    -0.638 OA
HETATM   19  O6  UNL     1      14.140  52.403  21.322  1.00  0.00    -0.638 OA
HETATM   20  O7  UNL     1      14.183  52.468  19.099  1.00  0.00    -0.638 OA
ENDBRANCH  12  17
ENDBRANCH  10  12
ENDBRANCH   7   9
BRANCH   6  21
HETATM   21  C5  UNL     1      19.197  50.109  15.756  1.00  0.00     0.223 C 
BRANCH  21  22
HETATM   22  O1  UNL     1      19.110  48.755  15.442  1.00  0.00    -0.278 OA
BRANCH  22  23
HETATM   23  P1  UNL     1      20.133  47.992  16.503  1.00  0.00     0.422 P 
HETATM   24  O2  UNL     1      19.295  48.444  17.670  1.00  0.00    -0.617 OA
HETATM   25  O3  UNL     1      21.522  48.681  17.003  1.00  0.00    -0.617 OA
HETATM   26  O4  UNL     1      19.853  46.400  16.859  1.00  0.00    -0.617 OA
ENDBRANCH  22  23
ENDBRANCH  21  22
ENDBRANCH   6  21
BRANCH   8  27
HETATM   27  O8  UNL     1      14.946  52.462  16.257  1.00  0.00    -0.358 OA
ATOM     28  H8  UNL     1      14.063  52.351  15.924  1.00  0.00     0.217 HD
ENDBRANCH   8  27
TORSDOF 7
ENDMDL
