MODEL 3
REMARK VINA RESULT: -8.414167364      1.654      2.348
REMARK  7 active torsions:
REMARK  status: ('A' for Active; 'I' for Inactive)
REMARK    1  A    between atoms: C4_6  and  C5_7 
REMARK    2  A    between atoms: C5_7  and  O1_8 
REMARK    3  A    between atoms: O1_8  and  P1_9 
REMARK    4  A    between atoms: C6_13  and  C7_14 
REMARK    5  A    between atoms: N2_15  and  C8_17 
REMARK    6  A    between atoms: C8_17  and  P2_18 
REMARK    7  A    between atoms: C13_26  and  O8_27 
ROOT
HETATM    1  C1  UNL     1      15.127  53.795  13.613  1.00  0.00     0.071 C 
HETATM    2  C2  UNL     1      16.168  52.875  14.158  1.00  0.00     0.039 A 
HETATM    3  N1  UNL     1      17.328  52.660  13.525  1.00  0.00    -0.367 N 
ATOM      4  H1  UNL     1      17.477  53.128  12.631  1.00  0.00     0.165 HD
HETATM    5  C3  UNL     1      18.316  51.861  13.993  1.00  0.00     0.098 A 
HETATM    6  C4  UNL     1      18.141  51.198  15.219  1.00  0.00    -0.004 A 
HETATM    7  C6  UNL     1      16.978  51.402  15.857  1.00  0.00     0.024 A 
HETATM    8  C13 UNL     1      15.957  52.239  15.359  1.00  0.00     0.100 A 
ENDROOT
BRANCH   7   9
HETATM    9  C7  UNL     1      16.700  50.690  17.131  1.00  0.00     0.099 C 
HETATM   10  N2  UNL     1      16.270  51.376  18.094  1.00  0.00    -0.377 N 
ATOM     11  H2  UNL     1      16.159  52.368  17.887  1.00  0.00     0.160 HD
BRANCH  10  12
HETATM   12  C8  UNL     1      15.907  51.006  19.432  1.00  0.00     0.144 C 
HETATM   13  C9  UNL     1      14.426  50.913  19.547  1.00  0.00     0.045 C 
HETATM   14  C10 UNL     1      14.100  51.348  20.977  1.00  0.00     0.003 C 
HETATM   15  C11 UNL     1      15.222  52.253  21.381  1.00  0.00     0.003 C 
HETATM   16  C12 UNL     1      16.208  52.278  20.270  1.00  0.00     0.045 C 
BRANCH  12  17
HETATM   17  P2  UNL     1      16.879  49.732  20.143  1.00  0.00     0.288 P 
HETATM   18  O5  UNL     1      18.316  49.299  19.548  1.00  0.00    -0.638 OA
HETATM   19  O6  UNL     1      16.375  49.125  21.645  1.00  0.00    -0.638 OA
HETATM   20  O7  UNL     1      16.141  48.589  19.499  1.00  0.00    -0.638 OA
ENDBRANCH  12  17
ENDBRANCH  10  12
ENDBRANCH   7   9
BRANCH   6  21
HETATM   21  C5  UNL     1      19.298  50.500  15.773  1.00  0.00     0.223 C 
BRANCH  21  22
HETATM   22  O1  UNL     1      19.485  49.218  15.263  1.00  0.00    -0.278 OA
BRANCH  22  23
HETATM   23  P1  UNL     1      20.296  48.388  16.450  1.00  0.00     0.422 P 
HETATM   24  O2  UNL     1      21.310  47.903  15.448  1.00  0.00    -0.617 OA
HETATM   25  O3  UNL     1      19.816  46.913  16.947  1.00  0.00    -0.617 OA
HETATM   26  O4  UNL     1      21.461  49.187  17.312  1.00  0.00    -0.617 OA
ENDBRANCH  22  23
ENDBRANCH  21  22
ENDBRANCH   6  21
BRANCH   8  27
HETATM   27  O8  UNL     1      14.813  52.414  16.054  1.00  0.00    -0.358 OA
ATOM     28  H8  UNL     1      14.307  51.674  16.367  1.00  0.00     0.217 HD
ENDBRANCH   8  27
TORSDOF 7
ENDMDL
