MODEL 7
REMARK VINA RESULT: -7.559926136      4.840      8.302
REMARK  7 active torsions:
REMARK  status: ('A' for Active; 'I' for Inactive)
REMARK    1  A    between atoms: C4_6  and  C5_7 
REMARK    2  A    between atoms: C5_7  and  O1_8 
REMARK    3  A    between atoms: O1_8  and  P1_9 
REMARK    4  A    between atoms: C6_13  and  C7_14 
REMARK    5  A    between atoms: N2_15  and  C8_17 
REMARK    6  A    between atoms: C8_17  and  P2_18 
REMARK    7  A    between atoms: C13_26  and  O8_27 
ROOT
HETATM    1  C1  UNL     1      16.293  57.621  22.919  1.00  0.00     0.071 C 
HETATM    2  C2  UNL     1      16.353  56.325  23.655  1.00  0.00     0.039 A 
HETATM    3  N1  UNL     1      16.254  56.260  24.988  1.00  0.00    -0.367 N 
ATOM      4  H1  UNL     1      16.160  57.136  25.503  1.00  0.00     0.165 HD
HETATM    5  C3  UNL     1      16.271  55.108  25.699  1.00  0.00     0.098 A 
HETATM    6  C4  UNL     1      16.403  53.884  25.023  1.00  0.00    -0.004 A 
HETATM    7  C6  UNL     1      16.511  53.940  23.686  1.00  0.00     0.024 A 
HETATM    8  C13 UNL     1      16.490  55.148  22.957  1.00  0.00     0.100 A 
ENDROOT
BRANCH   7   9
HETATM    9  C7  UNL     1      16.710  52.690  22.909  1.00  0.00     0.099 C 
HETATM   10  N2  UNL     1      15.944  52.489  21.931  1.00  0.00    -0.377 N 
ATOM     11  H2  UNL     1      15.253  53.224  21.781  1.00  0.00     0.160 HD
BRANCH  10  12
HETATM   12  C8  UNL     1      15.871  51.407  20.992  1.00  0.00     0.144 C 
HETATM   13  C9  UNL     1      15.893  50.107  21.715  1.00  0.00     0.045 C 
HETATM   14  C10 UNL     1      16.623  49.135  20.785  1.00  0.00     0.003 C 
HETATM   15  C11 UNL     1      17.520  49.991  19.945  1.00  0.00     0.003 C 
HETATM   16  C12 UNL     1      17.263  51.409  20.305  1.00  0.00     0.045 C 
BRANCH  12  17
HETATM   17  P2  UNL     1      14.706  51.621  19.698  1.00  0.00     0.288 P 
HETATM   18  O5  UNL     1      14.893  52.723  18.534  1.00  0.00    -0.638 OA
HETATM   19  O6  UNL     1      13.484  50.452  19.559  1.00  0.00    -0.638 OA
HETATM   20  O7  UNL     1      13.737  52.457  20.491  1.00  0.00    -0.638 OA
ENDBRANCH  12  17
ENDBRANCH  10  12
ENDBRANCH   7   9
BRANCH   6  21
HETATM   21  C5  UNL     1      16.230  52.664  25.806  1.00  0.00     0.223 C 
BRANCH  21  22
HETATM   22  O1  UNL     1      15.129  52.687  26.657  1.00  0.00    -0.278 OA
BRANCH  22  23
HETATM   23  P1  UNL     1      13.834  52.260  25.710  1.00  0.00     0.422 P 
HETATM   24  O2  UNL     1      12.888  52.506  26.855  1.00  0.00    -0.617 OA
HETATM   25  O3  UNL     1      13.424  50.702  25.470  1.00  0.00    -0.617 OA
HETATM   26  O4  UNL     1      13.108  53.432  24.795  1.00  0.00    -0.617 OA
ENDBRANCH  22  23
ENDBRANCH  21  22
ENDBRANCH   6  21
BRANCH   8  27
HETATM   27  O8  UNL     1      16.590  55.139  21.610  1.00  0.00    -0.358 OA
ATOM     28  H8  UNL     1      17.351  54.774  21.174  1.00  0.00     0.217 HD
ENDBRANCH   8  27
TORSDOF 7
ENDMDL
