MODEL 15
REMARK VINA RESULT: -6.334972483      1.370      1.831
REMARK  7 active torsions:
REMARK  status: ('A' for Active; 'I' for Inactive)
REMARK    1  A    between atoms: C4_6  and  C5_7 
REMARK    2  A    between atoms: C5_7  and  O1_8 
REMARK    3  A    between atoms: O1_8  and  P1_9 
REMARK    4  A    between atoms: C6_13  and  C7_14 
REMARK    5  A    between atoms: N2_15  and  C8_17 
REMARK    6  A    between atoms: C8_17  and  P2_18 
REMARK    7  A    between atoms: C13_26  and  O8_27 
ROOT
HETATM    1  C1  UNL     1      13.204  54.057  13.616  1.00  0.00     0.071 C 
HETATM    2  C2  UNL     1      14.431  53.374  14.122  1.00  0.00     0.039 A 
HETATM    3  N1  UNL     1      15.324  52.814  13.297  1.00  0.00    -0.367 N 
ATOM      4  H1  UNL     1      15.131  52.843  12.296  1.00  0.00     0.165 HD
HETATM    5  C3  UNL     1      16.466  52.212  13.705  1.00  0.00     0.098 A 
HETATM    6  C4  UNL     1      16.759  52.151  15.077  1.00  0.00    -0.004 A 
HETATM    7  C6  UNL     1      15.866  52.703  15.912  1.00  0.00     0.024 A 
HETATM    8  C13 UNL     1      14.680  53.330  15.474  1.00  0.00     0.100 A 
ENDROOT
BRANCH   7   9
HETATM    9  C7  UNL     1      16.082  52.626  17.380  1.00  0.00     0.099 C 
HETATM   10  N2  UNL     1      15.635  51.613  17.978  1.00  0.00    -0.377 N 
ATOM     11  H2  UNL     1      15.160  50.944  17.372  1.00  0.00     0.160 HD
BRANCH  10  12
HETATM   12  C8  UNL     1      15.676  51.236  19.361  1.00  0.00     0.144 C 
HETATM   13  C9  UNL     1      16.643  52.097  20.092  1.00  0.00     0.045 C 
HETATM   14  C10 UNL     1      17.239  51.206  21.184  1.00  0.00     0.003 C 
HETATM   15  C11 UNL     1      17.123  49.808  20.661  1.00  0.00     0.003 C 
HETATM   16  C12 UNL     1      16.412  49.868  19.358  1.00  0.00     0.045 C 
BRANCH  12  17
HETATM   17  P2  UNL     1      14.113  50.928  20.096  1.00  0.00     0.288 P 
HETATM   18  O5  UNL     1      12.925  50.157  19.323  1.00  0.00    -0.638 OA
HETATM   19  O6  UNL     1      13.966  51.248  21.756  1.00  0.00    -0.638 OA
HETATM   20  O7  UNL     1      13.544  52.298  19.841  1.00  0.00    -0.638 OA
ENDBRANCH  12  17
ENDBRANCH  10  12
ENDBRANCH   7   9
BRANCH   6  21
HETATM   21  C5  UNL     1      18.082  51.661  15.456  1.00  0.00     0.223 C 
BRANCH  21  22
HETATM   22  O1  UNL     1      18.540  50.602  14.678  1.00  0.00    -0.278 OA
BRANCH  22  23
HETATM   23  P1  UNL     1      18.721  49.331  15.729  1.00  0.00     0.422 P 
HETATM   24  O2  UNL     1      20.209  49.325  15.500  1.00  0.00    -0.617 OA
HETATM   25  O3  UNL     1      18.462  47.791  15.266  1.00  0.00    -0.617 OA
HETATM   26  O4  UNL     1      18.923  49.663  17.338  1.00  0.00    -0.617 OA
ENDBRANCH  22  23
ENDBRANCH  21  22
ENDBRANCH   6  21
BRANCH   8  27
HETATM   27  O8  UNL     1      13.825  53.878  16.363  1.00  0.00    -0.358 OA
ATOM     28  H8  UNL     1      13.082  53.392  16.699  1.00  0.00     0.217 HD
ENDBRANCH   8  27
TORSDOF 7
ENDMDL
