MODEL 2
REMARK VINA RESULT: -8.865448612      1.209      1.691
REMARK  7 active torsions:
REMARK  status: ('A' for Active; 'I' for Inactive)
REMARK    1  A    between atoms: C4_6  and  C5_7 
REMARK    2  A    between atoms: C5_7  and  O1_8 
REMARK    3  A    between atoms: O1_8  and  P1_9 
REMARK    4  A    between atoms: C6_13  and  C7_14 
REMARK    5  A    between atoms: N2_15  and  C8_17 
REMARK    6  A    between atoms: C8_17  and  P2_18 
REMARK    7  A    between atoms: C13_26  and  O8_27 
ROOT
HETATM    1  C1  UNL     1      15.762  53.008  13.953  1.00  0.00     0.071 C 
HETATM    2  C2  UNL     1      16.592  52.070  14.765  1.00  0.00     0.039 A 
HETATM    3  N1  UNL     1      17.669  51.456  14.260  1.00  0.00    -0.367 N 
ATOM      4  H1  UNL     1      17.900  51.626  13.281  1.00  0.00     0.165 HD
HETATM    5  C3  UNL     1      18.472  50.622  14.964  1.00  0.00     0.098 A 
HETATM    6  C4  UNL     1      18.179  50.363  16.313  1.00  0.00    -0.004 A 
HETATM    7  C6  UNL     1      17.097  50.968  16.825  1.00  0.00     0.024 A 
HETATM    8  C13 UNL     1      16.270  51.836  16.081  1.00  0.00     0.100 A 
ENDROOT
BRANCH   7   9
HETATM    9  C7  UNL     1      16.695  50.696  18.229  1.00  0.00     0.099 C 
HETATM   10  N2  UNL     1      16.531  51.688  18.985  1.00  0.00    -0.377 N 
ATOM     11  H2  UNL     1      16.700  52.589  18.539  1.00  0.00     0.160 HD
BRANCH  10  12
HETATM   12  C8  UNL     1      16.149  51.774  20.365  1.00  0.00     0.144 C 
HETATM   13  C9  UNL     1      16.309  53.172  20.849  1.00  0.00     0.045 C 
HETATM   14  C10 UNL     1      16.705  53.051  22.322  1.00  0.00     0.003 C 
HETATM   15  C11 UNL     1      17.373  51.716  22.444  1.00  0.00     0.003 C 
HETATM   16  C12 UNL     1      17.295  51.046  21.121  1.00  0.00     0.045 C 
BRANCH  12  17
HETATM   17  P2  UNL     1      14.683  50.909  20.788  1.00  0.00     0.288 P 
HETATM   18  O5  UNL     1      14.118  49.675  19.914  1.00  0.00    -0.638 OA
HETATM   19  O6  UNL     1      13.997  51.248  22.303  1.00  0.00    -0.638 OA
HETATM   20  O7  UNL     1      13.729  51.912  20.196  1.00  0.00    -0.638 OA
ENDBRANCH  12  17
ENDBRANCH  10  12
ENDBRANCH   7   9
BRANCH   6  21
HETATM   21  C5  UNL     1      19.170  49.611  17.078  1.00  0.00     0.223 C 
BRANCH  21  22
HETATM   22  O1  UNL     1      18.835  48.275  17.283  1.00  0.00    -0.278 OA
BRANCH  22  23
HETATM   23  P1  UNL     1      20.053  47.404  16.567  1.00  0.00     0.422 P 
HETATM   24  O2  UNL     1      19.123  46.968  15.466  1.00  0.00    -0.617 OA
HETATM   25  O3  UNL     1      20.448  45.906  17.071  1.00  0.00    -0.617 OA
HETATM   26  O4  UNL     1      21.044  48.176  15.489  1.00  0.00    -0.617 OA
ENDBRANCH  22  23
ENDBRANCH  21  22
ENDBRANCH   6  21
BRANCH   8  27
HETATM   27  O8  UNL     1      15.200  52.426  16.657  1.00  0.00    -0.358 OA
ATOM     28  H8  UNL     1      14.315  52.141  16.463  1.00  0.00     0.217 HD
ENDBRANCH   8  27
TORSDOF 7
ENDMDL
