MODEL 3
REMARK VINA RESULT: -9.378060879      0.738      1.199
REMARK  8 active torsions:
REMARK  status: ('A' for Active; 'I' for Inactive)
REMARK    1  A    between atoms: C2_2  and  C3_3 
REMARK    2  A    between atoms: C3_3  and  N1_5 
REMARK    3  A    between atoms: C3_3  and  P2_24 
REMARK    4  A    between atoms: C5_7  and  C6_8 
REMARK    5  A    between atoms: C7_9  and  C8_10 
REMARK    6  A    between atoms: C8_10  and  O1_11 
REMARK    7  A    between atoms: O1_11  and  P1_12 
REMARK    8  A    between atoms: C12_21  and  O5_22 
ROOT
HETATM    1  C6  UNL     1      17.085  52.075  16.865  1.00  0.00     0.024 A 
HETATM    2  C7  UNL     1      18.069  51.463  16.071  1.00  0.00    -0.004 A 
HETATM    3  C9  UNL     1      18.203  51.748  14.752  1.00  0.00     0.098 A 
HETATM    4  N2  UNL     1      17.375  52.651  14.158  1.00  0.00    -0.367 N 
ATOM      5  H2  UNL     1      17.475  52.868  13.166  1.00  0.00     0.165 HD
HETATM    6  C10 UNL     1      16.430  53.249  14.888  1.00  0.00     0.039 A 
HETATM    7  C11 UNL     1      15.536  54.232  14.219  1.00  0.00     0.071 C 
HETATM    8  C12 UNL     1      16.256  52.979  16.262  1.00  0.00     0.100 A 
ENDROOT
BRANCH   1   9
HETATM    9  C5  UNL     1      17.003  51.705  18.256  1.00  0.00     0.099 C 
HETATM   10  N1  UNL     1      16.569  52.496  19.121  1.00  0.00    -0.378 N 
ATOM     11  H1  UNL     1      16.287  53.406  18.756  1.00  0.00     0.160 HD
BRANCH  10  12
HETATM   12  C3  UNL     1      16.399  52.348  20.542  1.00  0.00     0.140 C 
HETATM   13  C4  UNL     1      17.739  51.678  20.943  1.00  0.00     0.054 C 
BRANCH  12  14
HETATM   14  C2  UNL     1      16.434  53.674  21.260  1.00  0.00     0.041 C 
HETATM   15  C1  UNL     1      17.023  53.573  22.647  1.00  0.00     0.008 C 
ENDBRANCH  12  14
BRANCH  12  16
HETATM   16  P2  UNL     1      14.969  51.496  21.037  1.00  0.00     0.288 P 
HETATM   17  O6  UNL     1      14.405  50.239  20.141  1.00  0.00    -0.638 OA
HETATM   18  O7  UNL     1      13.940  52.450  20.431  1.00  0.00    -0.638 OA
HETATM   19  O8  UNL     1      14.272  51.815  22.557  1.00  0.00    -0.638 OA
ENDBRANCH  12  16
ENDBRANCH  10  12
ENDBRANCH   1   9
BRANCH   2  20
HETATM   20  C8  UNL     1      18.902  50.464  16.727  1.00  0.00     0.223 C 
BRANCH  20  21
HETATM   21  O1  UNL     1      19.940  49.990  16.011  1.00  0.00    -0.278 OA
BRANCH  21  22
HETATM   22  P1  UNL     1      20.497  48.556  16.457  1.00  0.00     0.422 P 
HETATM   23  O2  UNL     1      19.726  48.512  17.788  1.00  0.00    -0.617 OA
HETATM   24  O3  UNL     1      21.934  48.345  17.246  1.00  0.00    -0.617 OA
HETATM   25  O4  UNL     1      19.659  47.154  15.970  1.00  0.00    -0.617 OA
ENDBRANCH  21  22
ENDBRANCH  20  21
ENDBRANCH   2  20
BRANCH   8  26
HETATM   26  O5  UNL     1      15.263  53.649  16.888  1.00  0.00    -0.358 OA
ATOM     27  H5  UNL     1      14.651  53.260  17.502  1.00  0.00     0.217 HD
ENDBRANCH   8  26
TORSDOF 8
ENDMDL
