MODEL 7
REMARK VINA RESULT: -8.317650833      2.472      4.797
REMARK  8 active torsions:
REMARK  status: ('A' for Active; 'I' for Inactive)
REMARK    1  A    between atoms: C2_2  and  C3_3 
REMARK    2  A    between atoms: C3_3  and  N1_5 
REMARK    3  A    between atoms: C3_3  and  P2_24 
REMARK    4  A    between atoms: C5_7  and  C6_8 
REMARK    5  A    between atoms: C7_9  and  C8_10 
REMARK    6  A    between atoms: C8_10  and  O1_11 
REMARK    7  A    between atoms: O1_11  and  P1_12 
REMARK    8  A    between atoms: C12_21  and  O5_22 
ROOT
HETATM    1  C6  UNL     1      17.621  51.236  17.345  1.00  0.00     0.024 A 
HETATM    2  C7  UNL     1      17.565  51.762  16.044  1.00  0.00    -0.004 A 
HETATM    3  C9  UNL     1      18.364  51.301  15.051  1.00  0.00     0.098 A 
HETATM    4  N2  UNL     1      19.252  50.298  15.295  1.00  0.00    -0.367 N 
ATOM      5  H2  UNL     1      19.854  49.948  14.549  1.00  0.00     0.165 HD
HETATM    6  C10 UNL     1      19.328  49.778  16.523  1.00  0.00     0.039 A 
HETATM    7  C11 UNL     1      20.305  48.683  16.769  1.00  0.00     0.071 C 
HETATM    8  C12 UNL     1      18.516  50.231  17.584  1.00  0.00     0.100 A 
ENDROOT
BRANCH   1   9
HETATM    9  C5  UNL     1      16.745  51.794  18.346  1.00  0.00     0.099 C 
HETATM   10  N1  UNL     1      17.086  51.873  19.546  1.00  0.00    -0.378 N 
ATOM     11  H1  UNL     1      18.019  51.514  19.743  1.00  0.00     0.160 HD
BRANCH  10  12
HETATM   12  C3  UNL     1      16.390  52.381  20.698  1.00  0.00     0.140 C 
HETATM   13  C4  UNL     1      17.527  52.417  21.752  1.00  0.00     0.054 C 
BRANCH  12  14
HETATM   14  C2  UNL     1      16.007  53.831  20.536  1.00  0.00     0.041 C 
HETATM   15  C1  UNL     1      16.245  54.641  21.788  1.00  0.00     0.008 C 
ENDBRANCH  12  14
BRANCH  12  16
HETATM   16  P2  UNL     1      14.975  51.490  21.167  1.00  0.00     0.288 P 
HETATM   17  O6  UNL     1      14.498  50.179  20.298  1.00  0.00    -0.638 OA
HETATM   18  O7  UNL     1      13.935  52.379  20.484  1.00  0.00    -0.638 OA
HETATM   19  O8  UNL     1      14.203  51.836  22.645  1.00  0.00    -0.638 OA
ENDBRANCH  12  16
ENDBRANCH  10  12
ENDBRANCH   1   9
BRANCH   2  20
HETATM   20  C8  UNL     1      16.642  52.869  15.832  1.00  0.00     0.223 C 
BRANCH  20  21
HETATM   21  O1  UNL     1      16.037  52.919  14.629  1.00  0.00    -0.278 OA
BRANCH  21  22
HETATM   22  P1  UNL     1      14.795  53.924  14.515  1.00  0.00     0.422 P 
HETATM   23  O2  UNL     1      15.626  55.120  14.020  1.00  0.00    -0.617 OA
HETATM   24  O3  UNL     1      14.223  54.808  15.789  1.00  0.00    -0.617 OA
HETATM   25  O4  UNL     1      13.911  53.985  13.060  1.00  0.00    -0.617 OA
ENDBRANCH  21  22
ENDBRANCH  20  21
ENDBRANCH   2  20
BRANCH   8  26
HETATM   26  O5  UNL     1      18.689  49.623  18.779  1.00  0.00    -0.358 OA
ATOM     27  H5  UNL     1      18.312  49.924  19.598  1.00  0.00     0.217 HD
ENDBRANCH   8  26
TORSDOF 8
ENDMDL
