MODEL 1
REMARK VINA RESULT: -9.629613194      0.000      0.000
REMARK  8 active torsions:
REMARK  status: ('A' for Active; 'I' for Inactive)
REMARK    1  A    between atoms: C2_2  and  C3_3 
REMARK    2  A    between atoms: C3_3  and  N1_5 
REMARK    3  A    between atoms: C3_3  and  P2_24 
REMARK    4  A    between atoms: C5_7  and  C6_8 
REMARK    5  A    between atoms: C7_9  and  C8_10 
REMARK    6  A    between atoms: C8_10  and  O1_11 
REMARK    7  A    between atoms: O1_11  and  P1_12 
REMARK    8  A    between atoms: C12_21  and  O5_22 
ROOT
HETATM    1  C6  UNL     1      17.568  51.741  16.812  1.00  0.00     0.024 A 
HETATM    2  C7  UNL     1      18.720  51.383  16.092  1.00  0.00    -0.004 A 
HETATM    3  C9  UNL     1      18.937  51.818  14.827  1.00  0.00     0.098 A 
HETATM    4  N2  UNL     1      18.029  52.628  14.215  1.00  0.00    -0.367 N 
ATOM      5  H2  UNL     1      18.191  52.958  13.263  1.00  0.00     0.165 HD
HETATM    6  C10 UNL     1      16.925  52.986  14.875  1.00  0.00     0.039 A 
HETATM    7  C11 UNL     1      15.946  53.872  14.188  1.00  0.00     0.071 C 
HETATM    8  C12 UNL     1      16.660  52.554  16.191  1.00  0.00     0.100 A 
ENDROOT
BRANCH   1   9
HETATM    9  C5  UNL     1      17.409  51.224  18.148  1.00  0.00     0.099 C 
HETATM   10  N1  UNL     1      16.711  51.813  19.002  1.00  0.00    -0.378 N 
ATOM     11  H1  UNL     1      16.277  52.674  18.669  1.00  0.00     0.160 HD
BRANCH  10  12
HETATM   12  C3  UNL     1      16.414  51.490  20.372  1.00  0.00     0.140 C 
HETATM   13  C4  UNL     1      16.659  49.958  20.385  1.00  0.00     0.054 C 
BRANCH  12  14
HETATM   14  C2  UNL     1      17.456  52.027  21.321  1.00  0.00     0.041 C 
HETATM   15  C1  UNL     1      17.024  53.304  22.001  1.00  0.00     0.008 C 
ENDBRANCH  12  14
BRANCH  12  16
HETATM   16  P2  UNL     1      14.851  51.994  20.934  1.00  0.00     0.288 P 
HETATM   17  O6  UNL     1      14.418  51.753  22.501  1.00  0.00    -0.638 OA
HETATM   18  O7  UNL     1      14.062  50.765  20.480  1.00  0.00    -0.638 OA
HETATM   19  O8  UNL     1      13.846  52.929  19.926  1.00  0.00    -0.638 OA
ENDBRANCH  12  16
ENDBRANCH  10  12
ENDBRANCH   1   9
BRANCH   2  20
HETATM   20  C8  UNL     1      19.642  50.473  16.758  1.00  0.00     0.223 C 
BRANCH  20  21
HETATM   21  O1  UNL     1      20.442  49.743  15.956  1.00  0.00    -0.278 OA
BRANCH  21  22
HETATM   22  P1  UNL     1      20.648  48.213  16.383  1.00  0.00     0.422 P 
HETATM   23  O2  UNL     1      19.865  48.327  17.702  1.00  0.00    -0.617 OA
HETATM   24  O3  UNL     1      21.985  47.667  17.187  1.00  0.00    -0.617 OA
HETATM   25  O4  UNL     1      19.520  47.048  15.859  1.00  0.00    -0.617 OA
ENDBRANCH  21  22
ENDBRANCH  20  21
ENDBRANCH   2  20
BRANCH   8  26
HETATM   26  O5  UNL     1      15.507  52.985  16.749  1.00  0.00    -0.358 OA
ATOM     27  H5  UNL     1      14.654  52.596  16.596  1.00  0.00     0.217 HD
ENDBRANCH   8  26
TORSDOF 8
ENDMDL
