MODEL 5
REMARK VINA RESULT: -8.772376675      1.105      1.481
REMARK  8 active torsions:
REMARK  status: ('A' for Active; 'I' for Inactive)
REMARK    1  A    between atoms: C2_2  and  C3_3 
REMARK    2  A    between atoms: C3_3  and  N1_5 
REMARK    3  A    between atoms: C3_3  and  P2_24 
REMARK    4  A    between atoms: C5_7  and  C6_8 
REMARK    5  A    between atoms: C7_9  and  C8_10 
REMARK    6  A    between atoms: C8_10  and  O1_11 
REMARK    7  A    between atoms: O1_11  and  P1_12 
REMARK    8  A    between atoms: C12_21  and  O5_22 
ROOT
HETATM    1  C6  UNL     1      17.174  52.141  16.727  1.00  0.00     0.024 A 
HETATM    2  C7  UNL     1      18.319  51.762  16.005  1.00  0.00    -0.004 A 
HETATM    3  C9  UNL     1      18.525  52.166  14.728  1.00  0.00     0.098 A 
HETATM    4  N2  UNL     1      17.613  52.963  14.105  1.00  0.00    -0.367 N 
ATOM      5  H2  UNL     1      17.767  53.269  13.144  1.00  0.00     0.165 HD
HETATM    6  C10 UNL     1      16.515  53.340  14.766  1.00  0.00     0.039 A 
HETATM    7  C11 UNL     1      15.532  54.211  14.066  1.00  0.00     0.071 C 
HETATM    8  C12 UNL     1      16.262  52.940  16.095  1.00  0.00     0.100 A 
ENDROOT
BRANCH   1   9
HETATM    9  C5  UNL     1      17.026  51.657  18.077  1.00  0.00     0.099 C 
HETATM   10  N1  UNL     1      16.316  52.254  18.914  1.00  0.00    -0.378 N 
ATOM     11  H1  UNL     1      15.863  53.096  18.558  1.00  0.00     0.160 HD
BRANCH  10  12
HETATM   12  C3  UNL     1      16.026  51.962  20.293  1.00  0.00     0.140 C 
HETATM   13  C4  UNL     1      14.792  51.033  20.157  1.00  0.00     0.054 C 
BRANCH  12  14
HETATM   14  C2  UNL     1      17.074  51.076  20.918  1.00  0.00     0.041 C 
HETATM   15  C1  UNL     1      16.681  49.617  20.917  1.00  0.00     0.008 C 
ENDBRANCH  12  14
BRANCH  12  16
HETATM   16  P2  UNL     1      15.800  53.347  21.316  1.00  0.00     0.288 P 
HETATM   17  O6  UNL     1      17.007  53.844  22.314  1.00  0.00    -0.638 OA
HETATM   18  O7  UNL     1      15.079  52.640  22.464  1.00  0.00    -0.638 OA
HETATM   19  O8  UNL     1      14.415  54.321  21.134  1.00  0.00    -0.638 OA
ENDBRANCH  12  16
ENDBRANCH  10  12
ENDBRANCH   1   9
BRANCH   2  20
HETATM   20  C8  UNL     1      19.245  50.867  16.685  1.00  0.00     0.223 C 
BRANCH  20  21
HETATM   21  O1  UNL     1      20.036  50.116  15.894  1.00  0.00    -0.278 OA
BRANCH  21  22
HETATM   22  P1  UNL     1      20.489  48.704  16.499  1.00  0.00     0.422 P 
HETATM   23  O2  UNL     1      19.610  48.802  17.758  1.00  0.00    -0.617 OA
HETATM   24  O3  UNL     1      21.845  48.506  17.424  1.00  0.00    -0.617 OA
HETATM   25  O4  UNL     1      19.632  47.300  16.056  1.00  0.00    -0.617 OA
ENDBRANCH  21  22
ENDBRANCH  20  21
ENDBRANCH   2  20
BRANCH   8  26
HETATM   26  O5  UNL     1      15.115  53.388  16.653  1.00  0.00    -0.358 OA
ATOM     27  H5  UNL     1      14.356  53.684  16.164  1.00  0.00     0.217 HD
ENDBRANCH   8  26
TORSDOF 8
ENDMDL
