MODEL 4
REMARK VINA RESULT: -9.293228935      1.097      1.509
REMARK  8 active torsions:
REMARK  status: ('A' for Active; 'I' for Inactive)
REMARK    1  A    between atoms: C2_2  and  C3_3 
REMARK    2  A    between atoms: C3_3  and  N1_5 
REMARK    3  A    between atoms: C3_3  and  P2_24 
REMARK    4  A    between atoms: C5_7  and  C6_8 
REMARK    5  A    between atoms: C7_9  and  C8_10 
REMARK    6  A    between atoms: C8_10  and  O1_11 
REMARK    7  A    between atoms: O1_11  and  P1_12 
REMARK    8  A    between atoms: C12_21  and  O5_22 
ROOT
HETATM    1  C6  UNL     1      16.856  52.200  16.771  1.00  0.00     0.024 A 
HETATM    2  C7  UNL     1      17.783  51.490  15.991  1.00  0.00    -0.004 A 
HETATM    3  C9  UNL     1      17.943  51.737  14.668  1.00  0.00     0.098 A 
HETATM    4  N2  UNL     1      17.198  52.698  14.054  1.00  0.00    -0.367 N 
ATOM      5  H2  UNL     1      17.317  52.886  13.059  1.00  0.00     0.165 HD
HETATM    6  C10 UNL     1      16.308  53.390  14.771  1.00  0.00     0.039 A 
HETATM    7  C11 UNL     1      15.504  54.435  14.080  1.00  0.00     0.071 C 
HETATM    8  C12 UNL     1      16.109  53.162  16.149  1.00  0.00     0.100 A 
ENDROOT
BRANCH   1   9
HETATM    9  C5  UNL     1      16.739  51.866  18.169  1.00  0.00     0.099 C 
HETATM   10  N1  UNL     1      16.362  52.704  19.015  1.00  0.00    -0.378 N 
ATOM     11  H1  UNL     1      16.149  53.624  18.631  1.00  0.00     0.160 HD
BRANCH  10  12
HETATM   12  C3  UNL     1      16.175  52.598  20.438  1.00  0.00     0.140 C 
HETATM   13  C4  UNL     1      17.494  51.907  20.869  1.00  0.00     0.054 C 
BRANCH  12  14
HETATM   14  C2  UNL     1      16.235  53.941  21.121  1.00  0.00     0.041 C 
HETATM   15  C1  UNL     1      16.827  53.865  22.508  1.00  0.00     0.008 C 
ENDBRANCH  12  14
BRANCH  12  16
HETATM   16  P2  UNL     1      14.720  51.793  20.940  1.00  0.00     0.288 P 
HETATM   17  O6  UNL     1      14.328  51.712  22.533  1.00  0.00    -0.638 OA
HETATM   18  O7  UNL     1      15.268  50.366  20.954  1.00  0.00    -0.638 OA
HETATM   19  O8  UNL     1      13.589  51.277  19.776  1.00  0.00    -0.638 OA
ENDBRANCH  12  16
ENDBRANCH  10  12
ENDBRANCH   1   9
BRANCH   2  20
HETATM   20  C8  UNL     1      18.524  50.435  16.668  1.00  0.00     0.223 C 
BRANCH  20  21
HETATM   21  O1  UNL     1      19.810  50.277  16.298  1.00  0.00    -0.278 OA
BRANCH  21  22
HETATM   22  P1  UNL     1      20.646  49.191  17.126  1.00  0.00     0.422 P 
HETATM   23  O2  UNL     1      21.351  48.588  15.898  1.00  0.00    -0.617 OA
HETATM   24  O3  UNL     1      20.044  47.710  17.546  1.00  0.00    -0.617 OA
HETATM   25  O4  UNL     1      22.174  49.618  17.747  1.00  0.00    -0.617 OA
ENDBRANCH  21  22
ENDBRANCH  20  21
ENDBRANCH   2  20
BRANCH   8  26
HETATM   26  O5  UNL     1      15.179  53.929  16.760  1.00  0.00    -0.358 OA
ATOM     27  H5  UNL     1      14.876  54.770  16.438  1.00  0.00     0.217 HD
ENDBRANCH   8  26
TORSDOF 8
ENDMDL
