MODEL 2
REMARK VINA RESULT: -9.452576762      0.932      1.174
REMARK  8 active torsions:
REMARK  status: ('A' for Active; 'I' for Inactive)
REMARK    1  A    between atoms: C2_2  and  C3_3 
REMARK    2  A    between atoms: C3_3  and  N1_5 
REMARK    3  A    between atoms: C3_3  and  P2_24 
REMARK    4  A    between atoms: C5_7  and  C6_8 
REMARK    5  A    between atoms: C7_9  and  C8_10 
REMARK    6  A    between atoms: C8_10  and  O1_11 
REMARK    7  A    between atoms: O1_11  and  P1_12 
REMARK    8  A    between atoms: C12_21  and  O5_22 
ROOT
HETATM    1  C6  UNL     1      17.376  51.850  16.410  1.00  0.00     0.024 A 
HETATM    2  C7  UNL     1      18.336  51.344  15.518  1.00  0.00    -0.004 A 
HETATM    3  C9  UNL     1      18.415  51.771  14.234  1.00  0.00     0.098 A 
HETATM    4  N2  UNL     1      17.553  52.719  13.772  1.00  0.00    -0.367 N 
ATOM      5  H2  UNL     1      17.611  53.042  12.806  1.00  0.00     0.165 HD
HETATM    6  C10 UNL     1      16.629  53.219  14.597  1.00  0.00     0.039 A 
HETATM    7  C11 UNL     1      15.697  54.253  14.072  1.00  0.00     0.071 C 
HETATM    8  C12 UNL     1      16.512  52.800  15.939  1.00  0.00     0.100 A 
ENDROOT
BRANCH   1   9
HETATM    9  C5  UNL     1      17.353  51.332  17.755  1.00  0.00     0.099 C 
HETATM   10  N1  UNL     1      16.590  51.802  18.626  1.00  0.00    -0.378 N 
ATOM     11  H1  UNL     1      16.000  52.568  18.301  1.00  0.00     0.160 HD
BRANCH  10  12
HETATM   12  C3  UNL     1      16.398  51.451  20.009  1.00  0.00     0.140 C 
HETATM   13  C4  UNL     1      16.479  49.904  19.946  1.00  0.00     0.054 C 
BRANCH  12  14
HETATM   14  C2  UNL     1      17.580  51.837  20.862  1.00  0.00     0.041 C 
HETATM   15  C1  UNL     1      17.237  52.883  21.896  1.00  0.00     0.008 C 
ENDBRANCH  12  14
BRANCH  12  16
HETATM   16  P2  UNL     1      14.960  52.087  20.746  1.00  0.00     0.288 P 
HETATM   17  O6  UNL     1      14.440  51.496  22.188  1.00  0.00    -0.638 OA
HETATM   18  O7  UNL     1      13.944  51.239  19.980  1.00  0.00    -0.638 OA
HETATM   19  O8  UNL     1      14.206  53.465  20.089  1.00  0.00    -0.638 OA
ENDBRANCH  12  16
ENDBRANCH  10  12
ENDBRANCH   1   9
BRANCH   2  20
HETATM   20  C8  UNL     1      19.207  50.295  16.031  1.00  0.00     0.223 C 
BRANCH  20  21
HETATM   21  O1  UNL     1      20.513  50.606  16.143  1.00  0.00    -0.278 OA
BRANCH  21  22
HETATM   22  P1  UNL     1      21.295  49.905  17.352  1.00  0.00     0.422 P 
HETATM   23  O2  UNL     1      20.095  49.069  17.831  1.00  0.00    -0.617 OA
HETATM   24  O3  UNL     1      21.454  50.591  18.848  1.00  0.00    -0.617 OA
HETATM   25  O4  UNL     1      22.141  48.455  17.062  1.00  0.00    -0.617 OA
ENDBRANCH  21  22
ENDBRANCH  20  21
ENDBRANCH   2  20
BRANCH   8  26
HETATM   26  O5  UNL     1      15.537  53.382  16.671  1.00  0.00    -0.358 OA
ATOM     27  H5  UNL     1      15.339  54.312  16.667  1.00  0.00     0.217 HD
ENDBRANCH   8  26
TORSDOF 8
ENDMDL
