MODEL 10
REMARK VINA RESULT: -7.603447892      1.910      5.722
REMARK  8 active torsions:
REMARK  status: ('A' for Active; 'I' for Inactive)
REMARK    1  A    between atoms: C2_2  and  C3_3 
REMARK    2  A    between atoms: C3_3  and  N1_5 
REMARK    3  A    between atoms: C3_3  and  P2_24 
REMARK    4  A    between atoms: C5_7  and  C6_8 
REMARK    5  A    between atoms: C7_9  and  C8_10 
REMARK    6  A    between atoms: C8_10  and  O1_11 
REMARK    7  A    between atoms: O1_11  and  P1_12 
REMARK    8  A    between atoms: C12_21  and  O5_22 
ROOT
HETATM    1  C6  UNL     1      16.303  52.863  16.740  1.00  0.00     0.024 A 
HETATM    2  C7  UNL     1      15.624  53.663  17.674  1.00  0.00    -0.004 A 
HETATM    3  C9  UNL     1      14.790  54.660  17.290  1.00  0.00     0.098 A 
HETATM    4  N2  UNL     1      14.585  54.912  15.967  1.00  0.00    -0.367 N 
ATOM      5  H2  UNL     1      13.957  55.661  15.676  1.00  0.00     0.165 HD
HETATM    6  C10 UNL     1      15.217  54.167  15.056  1.00  0.00     0.039 A 
HETATM    7  C11 UNL     1      14.979  54.460  13.616  1.00  0.00     0.071 C 
HETATM    8  C12 UNL     1      16.094  53.122  15.413  1.00  0.00     0.100 A 
ENDROOT
BRANCH   1   9
HETATM    9  C5  UNL     1      17.182  51.832  17.233  1.00  0.00     0.099 C 
HETATM   10  N1  UNL     1      18.334  51.677  16.775  1.00  0.00    -0.378 N 
ATOM     11  H1  UNL     1      18.586  52.334  16.037  1.00  0.00     0.160 HD
BRANCH  10  12
HETATM   12  C3  UNL     1      19.368  50.733  17.106  1.00  0.00     0.140 C 
HETATM   13  C4  UNL     1      20.607  51.389  16.443  1.00  0.00     0.054 C 
BRANCH  12  14
HETATM   14  C2  UNL     1      19.700  50.747  18.577  1.00  0.00     0.041 C 
HETATM   15  C1  UNL     1      21.184  50.850  18.840  1.00  0.00     0.008 C 
ENDBRANCH  12  14
BRANCH  12  16
HETATM   16  P2  UNL     1      19.058  49.092  16.631  1.00  0.00     0.288 P 
HETATM   17  O6  UNL     1      19.717  47.847  17.478  1.00  0.00    -0.638 OA
HETATM   18  O7  UNL     1      20.132  48.984  15.548  1.00  0.00    -0.638 OA
HETATM   19  O8  UNL     1      17.902  48.760  15.426  1.00  0.00    -0.638 OA
ENDBRANCH  12  16
ENDBRANCH  10  12
ENDBRANCH   1   9
BRANCH   2  20
HETATM   20  C8  UNL     1      15.908  53.400  19.078  1.00  0.00     0.223 C 
BRANCH  20  21
HETATM   21  O1  UNL     1      14.840  53.212  19.878  1.00  0.00    -0.278 OA
BRANCH  21  22
HETATM   22  P1  UNL     1      14.859  51.880  20.767  1.00  0.00     0.422 P 
HETATM   23  O2  UNL     1      13.399  51.494  20.475  1.00  0.00    -0.617 OA
HETATM   24  O3  UNL     1      14.570  51.871  22.394  1.00  0.00    -0.617 OA
HETATM   25  O4  UNL     1      15.350  50.414  20.051  1.00  0.00    -0.617 OA
ENDBRANCH  21  22
ENDBRANCH  20  21
ENDBRANCH   2  20
BRANCH   8  26
HETATM   26  O5  UNL     1      16.672  52.444  14.397  1.00  0.00    -0.358 OA
ATOM     27  H5  UNL     1      16.839  52.803  13.533  1.00  0.00     0.217 HD
ENDBRANCH   8  26
TORSDOF 8
ENDMDL
