MODEL 8
REMARK VINA RESULT: -7.720408158      2.530      4.635
REMARK  8 active torsions:
REMARK  status: ('A' for Active; 'I' for Inactive)
REMARK    1  A    between atoms: C2_2  and  C3_3 
REMARK    2  A    between atoms: C3_3  and  N1_5 
REMARK    3  A    between atoms: C3_3  and  P2_24 
REMARK    4  A    between atoms: C5_7  and  C6_8 
REMARK    5  A    between atoms: C7_9  and  C8_10 
REMARK    6  A    between atoms: C8_10  and  O1_11 
REMARK    7  A    between atoms: O1_11  and  P1_12 
REMARK    8  A    between atoms: C12_21  and  O5_22 
ROOT
HETATM    1  C6  UNL     1      18.130  51.263  17.578  1.00  0.00     0.024 A 
HETATM    2  C7  UNL     1      17.982  51.826  16.300  1.00  0.00    -0.004 A 
HETATM    3  C9  UNL     1      18.959  51.744  15.364  1.00  0.00     0.098 A 
HETATM    4  N2  UNL     1      20.127  51.101  15.646  1.00  0.00    -0.367 N 
ATOM      5  H2  UNL     1      20.863  51.037  14.943  1.00  0.00     0.165 HD
HETATM    6  C10 UNL     1      20.297  50.556  16.854  1.00  0.00     0.039 A 
HETATM    7  C11 UNL     1      21.580  49.859  17.141  1.00  0.00     0.071 C 
HETATM    8  C12 UNL     1      19.305  50.621  17.856  1.00  0.00     0.100 A 
ENDROOT
BRANCH   1   9
HETATM    9  C5  UNL     1      17.047  51.407  18.518  1.00  0.00     0.099 C 
HETATM   10  N1  UNL     1      17.227  51.883  19.660  1.00  0.00    -0.378 N 
ATOM     11  H1  UNL     1      18.190  52.154  19.856  1.00  0.00     0.160 HD
BRANCH  10  12
HETATM   12  C3  UNL     1      16.311  52.117  20.746  1.00  0.00     0.140 C 
HETATM   13  C4  UNL     1      15.686  50.709  20.927  1.00  0.00     0.054 C 
BRANCH  12  14
HETATM   14  C2  UNL     1      17.028  52.360  22.050  1.00  0.00     0.041 C 
HETATM   15  C1  UNL     1      16.998  53.810  22.471  1.00  0.00     0.008 C 
ENDBRANCH  12  14
BRANCH  12  16
HETATM   16  P2  UNL     1      15.174  53.405  20.497  1.00  0.00     0.288 P 
HETATM   17  O6  UNL     1      14.383  54.067  21.776  1.00  0.00    -0.638 OA
HETATM   18  O7  UNL     1      13.964  52.544  20.134  1.00  0.00    -0.638 OA
HETATM   19  O8  UNL     1      15.034  54.131  18.963  1.00  0.00    -0.638 OA
ENDBRANCH  12  16
ENDBRANCH  10  12
ENDBRANCH   1   9
BRANCH   2  20
HETATM   20  C8  UNL     1      16.743  52.550  16.051  1.00  0.00     0.223 C 
BRANCH  20  21
HETATM   21  O1  UNL     1      16.730  53.356  14.972  1.00  0.00    -0.278 OA
BRANCH  21  22
HETATM   22  P1  UNL     1      15.340  54.091  14.667  1.00  0.00     0.422 P 
HETATM   23  O2  UNL     1      14.486  52.813  14.738  1.00  0.00    -0.617 OA
HETATM   24  O3  UNL     1      14.796  54.407  13.139  1.00  0.00    -0.617 OA
HETATM   25  O4  UNL     1      14.435  54.722  15.966  1.00  0.00    -0.617 OA
ENDBRANCH  21  22
ENDBRANCH  20  21
ENDBRANCH   2  20
BRANCH   8  26
HETATM   26  O5  UNL     1      19.599  50.031  19.035  1.00  0.00    -0.358 OA
ATOM     27  H5  UNL     1      19.452  50.424  19.888  1.00  0.00     0.217 HD
ENDBRANCH   8  26
TORSDOF 8
ENDMDL
