MODEL 4
REMARK VINA RESULT: -8.504257477      1.034      1.325
REMARK  7 active torsions:
REMARK  status: ('A' for Active; 'I' for Inactive)
REMARK    1  A    between atoms: C4_6  and  C5_7 
REMARK    2  A    between atoms: C5_7  and  O1_8 
REMARK    3  A    between atoms: O1_8  and  P1_9 
REMARK    4  A    between atoms: C6_13  and  C7_14 
REMARK    5  A    between atoms: N2_15  and  C8_17 
REMARK    6  A    between atoms: C8_17  and  P2_19 
REMARK    7  A    between atoms: C10_23  and  O8_24 
ROOT
HETATM    1  C1  UNL     1      16.574  52.579  13.894  1.00  0.00     0.071 C 
HETATM    2  C2  UNL     1      17.352  51.698  14.791  1.00  0.00     0.039 A 
HETATM    3  N1  UNL     1      18.540  51.238  14.452  1.00  0.00    -0.367 N 
ATOM      4  H1  UNL     1      18.949  51.485  13.551  1.00  0.00     0.165 HD
HETATM    5  C3  UNL     1      19.197  50.453  15.287  1.00  0.00     0.098 A 
HETATM    6  C4  UNL     1      18.731  50.062  16.520  1.00  0.00    -0.004 A 
HETATM    7  C6  UNL     1      17.463  50.538  16.911  1.00  0.00     0.024 A 
HETATM    8  C10 UNL     1      16.797  51.350  16.033  1.00  0.00     0.100 A 
ENDROOT
BRANCH   7   9
HETATM    9  C7  UNL     1      16.954  50.140  18.201  1.00  0.00     0.098 C 
HETATM   10  N2  UNL     1      16.617  50.929  19.127  1.00  0.00    -0.382 N 
ATOM     11  H2  UNL     1      16.710  51.929  18.952  1.00  0.00     0.160 HD
BRANCH  10  12
HETATM   12  C8  UNL     1      16.107  50.516  20.421  1.00  0.00     0.208 C 
HETATM   13  C9  UNL     1      16.302  48.989  20.425  1.00  0.00     0.047 C 
BRANCH  12  14
HETATM   14  P2  UNL     1      14.538  51.069  20.902  1.00  0.00     0.282 P 
HETATM   15  O5  UNL     1      14.409  52.414  21.951  1.00  0.00    -0.638 OA
HETATM   16  O6  UNL     1      13.177  50.217  20.594  1.00  0.00    -0.638 OA
HETATM   17  O7  UNL     1      14.290  52.037  19.752  1.00  0.00    -0.638 OA
ENDBRANCH  12  14
ENDBRANCH  10  12
ENDBRANCH   7   9
BRANCH   6  18
HETATM   18  C5  UNL     1      19.451  49.197  17.444  1.00  0.00     0.223 C 
BRANCH  18  19
HETATM   19  O1  UNL     1      20.455  48.579  16.662  1.00  0.00    -0.278 OA
BRANCH  19  20
HETATM   20  P1  UNL     1      20.562  47.064  16.880  1.00  0.00     0.422 P 
HETATM   21  O2  UNL     1      20.409  45.560  17.183  1.00  0.00    -0.617 OA
HETATM   22  O3  UNL     1      22.155  47.035  16.574  1.00  0.00    -0.617 OA
HETATM   23  O4  UNL     1      19.524  46.858  15.594  1.00  0.00    -0.617 OA
ENDBRANCH  19  20
ENDBRANCH  18  19
ENDBRANCH   6  18
BRANCH   8  24
HETATM   24  O8  UNL     1      15.562  51.867  16.309  1.00  0.00    -0.358 OA
ATOM     25  H8  UNL     1      14.817  51.328  16.071  1.00  0.00     0.217 HD
ENDBRANCH   8  24
TORSDOF 7
ENDMDL
