MODEL 7
REMARK VINA RESULT: -8.042225780      2.185      4.919
REMARK  7 active torsions:
REMARK  status: ('A' for Active; 'I' for Inactive)
REMARK    1  A    between atoms: C4_6  and  C5_7 
REMARK    2  A    between atoms: C5_7  and  O1_8 
REMARK    3  A    between atoms: O1_8  and  P1_9 
REMARK    4  A    between atoms: C6_13  and  C7_14 
REMARK    5  A    between atoms: N2_15  and  C8_17 
REMARK    6  A    between atoms: C8_17  and  P2_19 
REMARK    7  A    between atoms: C10_23  and  O8_24 
ROOT
HETATM    1  C1  UNL     1      15.415  51.469  21.657  1.00  0.00     0.071 C 
HETATM    2  C2  UNL     1      16.158  50.925  20.501  1.00  0.00     0.039 A 
HETATM    3  N1  UNL     1      17.233  50.177  20.656  1.00  0.00    -0.367 N 
ATOM      4  H1  UNL     1      17.576  49.958  21.591  1.00  0.00     0.165 HD
HETATM    5  C3  UNL     1      17.864  49.713  19.592  1.00  0.00     0.098 A 
HETATM    6  C4  UNL     1      17.482  49.954  18.293  1.00  0.00    -0.004 A 
HETATM    7  C6  UNL     1      16.336  50.750  18.094  1.00  0.00     0.024 A 
HETATM    8  C10 UNL     1      15.696  51.222  19.209  1.00  0.00     0.100 A 
ENDROOT
BRANCH   7   9
HETATM    9  C7  UNL     1      15.917  51.016  16.739  1.00  0.00     0.098 C 
HETATM   10  N2  UNL     1      16.542  51.733  15.911  1.00  0.00    -0.382 N 
ATOM     11  H2  UNL     1      17.414  52.162  16.220  1.00  0.00     0.160 HD
BRANCH  10  12
HETATM   12  C8  UNL     1      16.110  51.994  14.550  1.00  0.00     0.208 C 
HETATM   13  C9  UNL     1      17.381  52.510  13.851  1.00  0.00     0.047 C 
BRANCH  12  14
HETATM   14  P2  UNL     1      14.686  52.947  14.306  1.00  0.00     0.282 P 
HETATM   15  O5  UNL     1      14.062  53.870  15.605  1.00  0.00    -0.638 OA
HETATM   16  O6  UNL     1      13.768  52.822  12.959  1.00  0.00    -0.638 OA
HETATM   17  O7  UNL     1      15.364  54.224  13.823  1.00  0.00    -0.638 OA
ENDBRANCH  12  14
ENDBRANCH  10  12
ENDBRANCH   7   9
BRANCH   6  18
HETATM   18  C5  UNL     1      18.174  49.446  17.116  1.00  0.00     0.223 C 
BRANCH  18  19
HETATM   19  O1  UNL     1      19.072  48.470  17.611  1.00  0.00    -0.278 OA
BRANCH  19  20
HETATM   20  P1  UNL     1      20.204  48.123  16.636  1.00  0.00     0.422 P 
HETATM   21  O2  UNL     1      21.322  47.522  15.762  1.00  0.00    -0.617 OA
HETATM   22  O3  UNL     1      20.420  49.666  16.185  1.00  0.00    -0.617 OA
HETATM   23  O4  UNL     1      19.109  47.211  15.772  1.00  0.00    -0.617 OA
ENDBRANCH  19  20
ENDBRANCH  18  19
ENDBRANCH   6  18
BRANCH   8  24
HETATM   24  O8  UNL     1      14.576  52.002  19.132  1.00  0.00    -0.358 OA
ATOM     25  H8  UNL     1      14.428  52.446  18.305  1.00  0.00     0.217 HD
ENDBRANCH   8  24
TORSDOF 7
ENDMDL
