MODEL 9
REMARK VINA RESULT: -7.492590975      1.344      1.556
REMARK  7 active torsions:
REMARK  status: ('A' for Active; 'I' for Inactive)
REMARK    1  A    between atoms: C4_6  and  C5_7 
REMARK    2  A    between atoms: C5_7  and  O1_8 
REMARK    3  A    between atoms: O1_8  and  P1_9 
REMARK    4  A    between atoms: C6_13  and  C7_14 
REMARK    5  A    between atoms: N2_15  and  C8_17 
REMARK    6  A    between atoms: C8_17  and  P2_19 
REMARK    7  A    between atoms: C10_23  and  O8_24 
ROOT
HETATM    1  C1  UNL     1      15.185  53.301  14.591  1.00  0.00     0.071 C 
HETATM    2  C2  UNL     1      16.012  52.199  15.127  1.00  0.00     0.039 A 
HETATM    3  N1  UNL     1      16.866  51.539  14.369  1.00  0.00    -0.367 N 
ATOM      4  H1  UNL     1      16.971  51.780  13.384  1.00  0.00     0.165 HD
HETATM    5  C3  UNL     1      17.583  50.562  14.894  1.00  0.00     0.098 A 
HETATM    6  C4  UNL     1      17.512  50.160  16.207  1.00  0.00    -0.004 A 
HETATM    7  C6  UNL     1      16.609  50.847  17.043  1.00  0.00     0.024 A 
HETATM    8  C10 UNL     1      15.873  51.856  16.482  1.00  0.00     0.100 A 
ENDROOT
BRANCH   7   9
HETATM    9  C7  UNL     1      16.517  50.442  18.425  1.00  0.00     0.098 C 
HETATM   10  N2  UNL     1      16.384  51.224  19.406  1.00  0.00    -0.382 N 
ATOM     11  H2  UNL     1      16.335  52.224  19.210  1.00  0.00     0.160 HD
BRANCH  10  12
HETATM   12  C8  UNL     1      16.294  50.805  20.792  1.00  0.00     0.208 C 
HETATM   13  C9  UNL     1      16.062  49.286  20.705  1.00  0.00     0.047 C 
BRANCH  12  14
HETATM   14  P2  UNL     1      15.220  51.664  21.845  1.00  0.00     0.282 P 
HETATM   15  O5  UNL     1      15.499  53.323  22.154  1.00  0.00    -0.638 OA
HETATM   16  O6  UNL     1      14.089  50.906  22.749  1.00  0.00    -0.638 OA
HETATM   17  O7  UNL     1      14.205  52.107  20.799  1.00  0.00    -0.638 OA
ENDBRANCH  12  14
ENDBRANCH  10  12
ENDBRANCH   7   9
BRANCH   6  18
HETATM   18  C5  UNL     1      18.300  49.083  16.790  1.00  0.00     0.223 C 
BRANCH  18  19
HETATM   19  O1  UNL     1      19.562  49.660  17.068  1.00  0.00    -0.278 OA
BRANCH  19  20
HETATM   20  P1  UNL     1      20.696  48.635  17.190  1.00  0.00     0.422 P 
HETATM   21  O2  UNL     1      21.636  47.417  17.293  1.00  0.00    -0.617 OA
HETATM   22  O3  UNL     1      21.818  49.767  17.495  1.00  0.00    -0.617 OA
HETATM   23  O4  UNL     1      20.425  48.225  15.598  1.00  0.00    -0.617 OA
ENDBRANCH  19  20
ENDBRANCH  18  19
ENDBRANCH   6  18
BRANCH   8  24
HETATM   24  O8  UNL     1      14.969  52.587  17.201  1.00  0.00    -0.358 OA
ATOM     25  H8  UNL     1      15.003  53.530  17.085  1.00  0.00     0.217 HD
ENDBRANCH   8  24
TORSDOF 7
ENDMDL
