MODEL 5
REMARK VINA RESULT: -8.371664313      1.769      5.964
REMARK  7 active torsions:
REMARK  status: ('A' for Active; 'I' for Inactive)
REMARK    1  A    between atoms: C4_6  and  C5_7 
REMARK    2  A    between atoms: C5_7  and  O1_8 
REMARK    3  A    between atoms: O1_8  and  P1_9 
REMARK    4  A    between atoms: C6_13  and  C7_14 
REMARK    5  A    between atoms: N2_15  and  C8_17 
REMARK    6  A    between atoms: C8_17  and  P2_19 
REMARK    7  A    between atoms: C10_23  and  O8_24 
ROOT
HETATM    1  C1  UNL     1      16.548  52.847  13.808  1.00  0.00     0.071 C 
HETATM    2  C2  UNL     1      16.415  52.262  15.159  1.00  0.00     0.039 A 
HETATM    3  N1  UNL     1      15.471  52.651  15.994  1.00  0.00    -0.367 N 
ATOM      4  H1  UNL     1      14.807  53.374  15.718  1.00  0.00     0.165 HD
HETATM    5  C3  UNL     1      15.392  52.099  17.191  1.00  0.00     0.098 A 
HETATM    6  C4  UNL     1      16.240  51.121  17.657  1.00  0.00    -0.004 A 
HETATM    7  C6  UNL     1      17.260  50.684  16.787  1.00  0.00     0.024 A 
HETATM    8  C10 UNL     1      17.326  51.268  15.551  1.00  0.00     0.100 A 
ENDROOT
BRANCH   7   9
HETATM    9  C7  UNL     1      18.161  49.659  17.255  1.00  0.00     0.098 C 
HETATM   10  N2  UNL     1      19.407  49.640  17.060  1.00  0.00    -0.382 N 
ATOM     11  H2  UNL     1      19.814  50.410  16.529  1.00  0.00     0.160 HD
BRANCH  10  12
HETATM   12  C8  UNL     1      20.303  48.602  17.534  1.00  0.00     0.208 C 
HETATM   13  C9  UNL     1      21.654  49.323  17.689  1.00  0.00     0.047 C 
BRANCH  12  14
HETATM   14  P2  UNL     1      20.354  47.101  16.674  1.00  0.00     0.282 P 
HETATM   15  O5  UNL     1      19.185  46.787  15.466  1.00  0.00    -0.638 OA
HETATM   16  O6  UNL     1      21.323  45.864  17.128  1.00  0.00    -0.638 OA
HETATM   17  O7  UNL     1      21.290  47.529  15.551  1.00  0.00    -0.638 OA
ENDBRANCH  12  14
ENDBRANCH  10  12
ENDBRANCH   7   9
BRANCH   6  18
HETATM   18  C5  UNL     1      16.157  50.510  18.976  1.00  0.00     0.223 C 
BRANCH  18  19
HETATM   19  O1  UNL     1      16.033  51.594  19.877  1.00  0.00    -0.278 OA
BRANCH  19  20
HETATM   20  P1  UNL     1      15.164  51.282  21.102  1.00  0.00     0.422 P 
HETATM   21  O2  UNL     1      14.254  51.239  22.346  1.00  0.00    -0.617 OA
HETATM   22  O3  UNL     1      15.573  49.712  21.112  1.00  0.00    -0.617 OA
HETATM   23  O4  UNL     1      13.832  51.728  20.206  1.00  0.00    -0.617 OA
ENDBRANCH  19  20
ENDBRANCH  18  19
ENDBRANCH   6  18
BRANCH   8  24
HETATM   24  O8  UNL     1      18.274  50.920  14.629  1.00  0.00    -0.358 OA
ATOM     25  H8  UNL     1      18.289  51.430  13.828  1.00  0.00     0.217 HD
ENDBRANCH   8  24
TORSDOF 7
ENDMDL
