MODEL 6
REMARK VINA RESULT: -8.096681346      2.946      5.854
REMARK  7 active torsions:
REMARK  status: ('A' for Active; 'I' for Inactive)
REMARK    1  A    between atoms: C4_6  and  C5_7 
REMARK    2  A    between atoms: C5_7  and  O1_8 
REMARK    3  A    between atoms: O1_8  and  P1_9 
REMARK    4  A    between atoms: C6_13  and  C7_14 
REMARK    5  A    between atoms: N2_15  and  C8_17 
REMARK    6  A    between atoms: C8_17  and  P2_19 
REMARK    7  A    between atoms: C10_23  and  O8_24 
ROOT
HETATM    1  C1  UNL     1      15.389  51.625  21.663  1.00  0.00     0.071 C 
HETATM    2  C2  UNL     1      15.728  51.340  20.253  1.00  0.00     0.039 A 
HETATM    3  N1  UNL     1      15.074  51.902  19.254  1.00  0.00    -0.367 N 
ATOM      4  H1  UNL     1      14.311  52.551  19.441  1.00  0.00     0.165 HD
HETATM    5  C3  UNL     1      15.415  51.617  18.010  1.00  0.00     0.098 A 
HETATM    6  C4  UNL     1      16.426  50.754  17.657  1.00  0.00    -0.004 A 
HETATM    7  C6  UNL     1      17.143  50.138  18.701  1.00  0.00     0.024 A 
HETATM    8  C10 UNL     1      16.777  50.446  19.984  1.00  0.00     0.100 A 
ENDROOT
BRANCH   7   9
HETATM    9  C7  UNL     1      18.209  49.229  18.353  1.00  0.00     0.098 C 
HETATM   10  N2  UNL     1      19.375  49.570  18.014  1.00  0.00    -0.382 N 
ATOM     11  H2  UNL     1      19.586  50.567  17.983  1.00  0.00     0.160 HD
BRANCH  10  12
HETATM   12  C8  UNL     1      20.438  48.647  17.664  1.00  0.00     0.208 C 
HETATM   13  C9  UNL     1      21.558  49.557  17.130  1.00  0.00     0.047 C 
BRANCH  12  14
HETATM   14  P2  UNL     1      20.051  47.282  16.672  1.00  0.00     0.282 P 
HETATM   15  O5  UNL     1      18.948  47.472  15.378  1.00  0.00    -0.638 OA
HETATM   16  O6  UNL     1      20.505  45.760  17.060  1.00  0.00    -0.638 OA
HETATM   17  O7  UNL     1      21.166  47.440  15.646  1.00  0.00    -0.638 OA
ENDBRANCH  12  14
ENDBRANCH  10  12
ENDBRANCH   7   9
BRANCH   6  18
HETATM   18  C5  UNL     1      16.804  50.436  16.286  1.00  0.00     0.223 C 
BRANCH  18  19
HETATM   19  O1  UNL     1      17.718  51.450  15.913  1.00  0.00    -0.278 OA
BRANCH  19  20
HETATM   20  P1  UNL     1      17.936  51.557  14.399  1.00  0.00     0.422 P 
HETATM   21  O2  UNL     1      18.379  51.513  12.922  1.00  0.00    -0.617 OA
HETATM   22  O3  UNL     1      16.717  52.609  14.199  1.00  0.00    -0.617 OA
HETATM   23  O4  UNL     1      17.581  49.933  14.286  1.00  0.00    -0.617 OA
ENDBRANCH  19  20
ENDBRANCH  18  19
ENDBRANCH   6  18
BRANCH   8  24
HETATM   24  O8  UNL     1      17.405  49.906  21.072  1.00  0.00    -0.358 OA
ATOM     25  H8  UNL     1      17.160  49.017  21.301  1.00  0.00     0.217 HD
ENDBRANCH   8  24
TORSDOF 7
ENDMDL
