MODEL 2
REMARK VINA RESULT: -8.949244938      0.521      1.302
REMARK  7 active torsions:
REMARK  status: ('A' for Active; 'I' for Inactive)
REMARK    1  A    between atoms: C4_6  and  C5_7 
REMARK    2  A    between atoms: C5_7  and  O1_8 
REMARK    3  A    between atoms: O1_8  and  P1_9 
REMARK    4  A    between atoms: C6_13  and  C7_14 
REMARK    5  A    between atoms: N2_15  and  C8_17 
REMARK    6  A    between atoms: C8_17  and  P2_19 
REMARK    7  A    between atoms: C10_23  and  O8_24 
ROOT
HETATM    1  C1  UNL     1      15.284  53.194  13.588  1.00  0.00     0.071 C 
HETATM    2  C2  UNL     1      16.326  52.345  14.206  1.00  0.00     0.039 A 
HETATM    3  N1  UNL     1      17.417  51.998  13.551  1.00  0.00    -0.367 N 
ATOM      4  H1  UNL     1      17.563  52.313  12.592  1.00  0.00     0.165 HD
HETATM    5  C3  UNL     1      18.320  51.239  14.146  1.00  0.00     0.098 A 
HETATM    6  C4  UNL     1      18.213  50.763  15.432  1.00  0.00    -0.004 A 
HETATM    7  C6  UNL     1      17.058  51.117  16.157  1.00  0.00     0.024 A 
HETATM    8  C10 UNL     1      16.134  51.904  15.525  1.00  0.00     0.100 A 
ENDROOT
BRANCH   7   9
HETATM    9  C7  UNL     1      16.926  50.628  17.509  1.00  0.00     0.098 C 
HETATM   10  N2  UNL     1      16.327  51.227  18.444  1.00  0.00    -0.382 N 
ATOM     11  H2  UNL     1      15.900  52.128  18.232  1.00  0.00     0.160 HD
BRANCH  10  12
HETATM   12  C8  UNL     1      16.202  50.725  19.800  1.00  0.00     0.208 C 
HETATM   13  C9  UNL     1      16.605  49.244  19.686  1.00  0.00     0.047 C 
BRANCH  12  14
HETATM   14  P2  UNL     1      14.730  51.033  20.659  1.00  0.00     0.282 P 
HETATM   15  O5  UNL     1      13.440  51.819  19.857  1.00  0.00    -0.638 OA
HETATM   16  O6  UNL     1      14.600  50.823  22.275  1.00  0.00    -0.638 OA
HETATM   17  O7  UNL     1      14.024  49.719  20.349  1.00  0.00    -0.638 OA
ENDBRANCH  12  14
ENDBRANCH  10  12
ENDBRANCH   7   9
BRANCH   6  18
HETATM   18  C5  UNL     1      19.205  49.925  16.092  1.00  0.00     0.223 C 
BRANCH  18  19
HETATM   19  O1  UNL     1      19.175  48.697  15.389  1.00  0.00    -0.278 OA
BRANCH  19  20
HETATM   20  P1  UNL     1      19.907  47.557  16.107  1.00  0.00     0.422 P 
HETATM   21  O2  UNL     1      20.803  46.610  16.931  1.00  0.00    -0.617 OA
HETATM   22  O3  UNL     1      19.071  46.402  15.334  1.00  0.00    -0.617 OA
HETATM   23  O4  UNL     1      19.286  48.132  17.542  1.00  0.00    -0.617 OA
ENDBRANCH  19  20
ENDBRANCH  18  19
ENDBRANCH   6  18
BRANCH   8  24
HETATM   24  O8  UNL     1      14.978  52.307  16.135  1.00  0.00    -0.358 OA
ATOM     25  H8  UNL     1      15.078  52.803  16.938  1.00  0.00     0.217 HD
ENDBRANCH   8  24
TORSDOF 7
ENDMDL
