MODEL 1
REMARK VINA RESULT: -9.467543879      0.000      0.000
REMARK  7 active torsions:
REMARK  status: ('A' for Active; 'I' for Inactive)
REMARK    1  A    between atoms: C4_6  and  C5_7 
REMARK    2  A    between atoms: C5_7  and  O1_8 
REMARK    3  A    between atoms: O1_8  and  P1_9 
REMARK    4  A    between atoms: C6_13  and  C7_14 
REMARK    5  A    between atoms: N2_15  and  C8_17 
REMARK    6  A    between atoms: C8_17  and  P2_19 
REMARK    7  A    between atoms: C10_23  and  O8_24 
ROOT
HETATM    1  C1  UNL     1      15.293  53.232  13.743  1.00  0.00     0.071 C 
HETATM    2  C2  UNL     1      16.339  52.388  14.359  1.00  0.00     0.039 A 
HETATM    3  N1  UNL     1      17.429  52.042  13.702  1.00  0.00    -0.367 N 
ATOM      4  H1  UNL     1      17.571  52.355  12.742  1.00  0.00     0.165 HD
HETATM    5  C3  UNL     1      18.335  51.287  14.296  1.00  0.00     0.098 A 
HETATM    6  C4  UNL     1      18.234  50.813  15.583  1.00  0.00    -0.004 A 
HETATM    7  C6  UNL     1      17.080  51.166  16.312  1.00  0.00     0.024 A 
HETATM    8  C10 UNL     1      16.152  51.949  15.680  1.00  0.00     0.100 A 
ENDROOT
BRANCH   7   9
HETATM    9  C7  UNL     1      16.954  50.680  17.664  1.00  0.00     0.098 C 
HETATM   10  N2  UNL     1      16.224  51.192  18.557  1.00  0.00    -0.382 N 
ATOM     11  H2  UNL     1      15.678  52.016  18.306  1.00  0.00     0.160 HD
BRANCH  10  12
HETATM   12  C8  UNL     1      16.106  50.695  19.915  1.00  0.00     0.208 C 
HETATM   13  C9  UNL     1      16.899  49.376  19.896  1.00  0.00     0.047 C 
BRANCH  12  14
HETATM   14  P2  UNL     1      14.530  50.607  20.625  1.00  0.00     0.282 P 
HETATM   15  O5  UNL     1      14.269  51.287  22.174  1.00  0.00    -0.638 OA
HETATM   16  O6  UNL     1      13.333  49.691  19.991  1.00  0.00    -0.638 OA
HETATM   17  O7  UNL     1      13.961  51.896  20.046  1.00  0.00    -0.638 OA
ENDBRANCH  12  14
ENDBRANCH  10  12
ENDBRANCH   7   9
BRANCH   6  18
HETATM   18  C5  UNL     1      19.230  49.980  16.241  1.00  0.00     0.223 C 
BRANCH  18  19
HETATM   19  O1  UNL     1      19.327  48.818  15.438  1.00  0.00    -0.278 OA
BRANCH  19  20
HETATM   20  P1  UNL     1      19.654  47.546  16.229  1.00  0.00     0.422 P 
HETATM   21  O2  UNL     1      20.004  46.149  16.778  1.00  0.00    -0.617 OA
HETATM   22  O3  UNL     1      19.324  48.235  17.660  1.00  0.00    -0.617 OA
HETATM   23  O4  UNL     1      21.216  47.657  15.660  1.00  0.00    -0.617 OA
ENDBRANCH  19  20
ENDBRANCH  18  19
ENDBRANCH   6  18
BRANCH   8  24
HETATM   24  O8  UNL     1      14.997  52.351  16.293  1.00  0.00    -0.358 OA
ATOM     25  H8  UNL     1      14.313  51.696  16.371  1.00  0.00     0.217 HD
ENDBRANCH   8  24
TORSDOF 7
ENDMDL
