MODEL 3
REMARK VINA RESULT: -8.914210322      0.828      1.235
REMARK  7 active torsions:
REMARK  status: ('A' for Active; 'I' for Inactive)
REMARK    1  A    between atoms: C4_6  and  C5_7 
REMARK    2  A    between atoms: C5_7  and  O1_8 
REMARK    3  A    between atoms: O1_8  and  P1_9 
REMARK    4  A    between atoms: C6_13  and  C7_14 
REMARK    5  A    between atoms: N2_15  and  C8_17 
REMARK    6  A    between atoms: C8_17  and  P2_19 
REMARK    7  A    between atoms: C10_23  and  O8_24 
ROOT
HETATM    1  C1  UNL     1      15.309  53.753  13.930  1.00  0.00     0.071 C 
HETATM    2  C2  UNL     1      16.159  52.639  14.402  1.00  0.00     0.039 A 
HETATM    3  N1  UNL     1      17.090  52.103  13.637  1.00  0.00    -0.367 N 
ATOM      4  H1  UNL     1      17.241  52.452  12.691  1.00  0.00     0.165 HD
HETATM    5  C3  UNL     1      17.824  51.109  14.104  1.00  0.00     0.098 A 
HETATM    6  C4  UNL     1      17.695  50.568  15.361  1.00  0.00    -0.004 A 
HETATM    7  C6  UNL     1      16.708  51.120  16.203  1.00  0.00     0.024 A 
HETATM    8  C10 UNL     1      15.957  52.149  15.702  1.00  0.00     0.100 A 
ENDROOT
BRANCH   7   9
HETATM    9  C7  UNL     1      16.556  50.567  17.527  1.00  0.00     0.098 C 
HETATM   10  N2  UNL     1      16.258  51.225  18.562  1.00  0.00    -0.382 N 
ATOM     11  H2  UNL     1      16.112  52.229  18.457  1.00  0.00     0.160 HD
BRANCH  10  12
HETATM   12  C8  UNL     1      16.108  50.658  19.888  1.00  0.00     0.208 C 
HETATM   13  C9  UNL     1      16.793  49.284  19.783  1.00  0.00     0.047 C 
BRANCH  12  14
HETATM   14  P2  UNL     1      14.533  50.652  20.609  1.00  0.00     0.282 P 
HETATM   15  O5  UNL     1      14.310  51.379  22.141  1.00  0.00    -0.638 OA
HETATM   16  O6  UNL     1      13.296  49.772  20.002  1.00  0.00    -0.638 OA
HETATM   17  O7  UNL     1      14.015  51.950  20.001  1.00  0.00    -0.638 OA
ENDBRANCH  12  14
ENDBRANCH  10  12
ENDBRANCH   7   9
BRANCH   6  18
HETATM   18  C5  UNL     1      18.502  49.472  15.880  1.00  0.00     0.223 C 
BRANCH  18  19
HETATM   19  O1  UNL     1      19.838  49.931  15.803  1.00  0.00    -0.278 OA
BRANCH  19  20
HETATM   20  P1  UNL     1      20.826  49.095  16.627  1.00  0.00     0.422 P 
HETATM   21  O2  UNL     1      21.875  48.491  17.581  1.00  0.00    -0.617 OA
HETATM   22  O3  UNL     1      20.609  47.768  15.719  1.00  0.00    -0.617 OA
HETATM   23  O4  UNL     1      19.825  49.304  17.942  1.00  0.00    -0.617 OA
ENDBRANCH  19  20
ENDBRANCH  18  19
ENDBRANCH   6  18
BRANCH   8  24
HETATM   24  O8  UNL     1      14.974  52.758  16.432  1.00  0.00    -0.358 OA
ATOM     25  H8  UNL     1      14.172  52.263  16.553  1.00  0.00     0.217 HD
ENDBRANCH   8  24
TORSDOF 7
ENDMDL
