MODEL 3
REMARK VINA RESULT: -6.488366615      0.117      1.462
REMARK  3 active torsions:
REMARK  status: ('A' for Active; 'I' for Inactive)
REMARK    1  A    between atoms: C1_2  and  C2_4 
REMARK    2  A    between atoms: C2_4  and  C3_6 
REMARK    3  A    between atoms: C3_6  and  S1_7 
ROOT
HETATM    1  C2  UNL     1      28.728  69.052  72.981  1.00  0.00     0.241 C 
HETATM    2  O3  UNL     1      28.003  69.964  72.553  1.00  0.00    -0.285 OA
ENDROOT
BRANCH   1   3
HETATM    3  C1  UNL     1      30.110  68.951  72.591  1.00  0.00     0.247 C 
HETATM    4  O1  UNL     1      30.559  68.047  71.864  1.00  0.00    -0.642 OA
HETATM    5  O2  UNL     1      31.020  69.909  73.038  1.00  0.00    -0.642 OA
ENDBRANCH   1   3
BRANCH   1   6
HETATM    6  C3  UNL     1      28.107  68.073  73.913  1.00  0.00     0.255 C 
BRANCH   6   7
HETATM    7  S1  UNL     1      28.609  68.249  75.541  1.00  0.00     0.109 S 
HETATM    8  O4  UNL     1      27.293  67.587  76.440  1.00  0.00    -0.595 OA
HETATM    9  O5  UNL     1      29.872  67.329  75.777  1.00  0.00    -0.595 OA
HETATM   10  O6  UNL     1      28.755  69.735  76.000  1.00  0.00    -0.595 OA
ENDBRANCH   6   7
ENDBRANCH   1   6
TORSDOF 3
ENDMDL
