MODEL 4
REMARK VINA RESULT: -6.368521262      0.981      1.193
REMARK  3 active torsions:
REMARK  status: ('A' for Active; 'I' for Inactive)
REMARK    1  A    between atoms: C1_2  and  C2_4 
REMARK    2  A    between atoms: C2_4  and  C3_6 
REMARK    3  A    between atoms: C3_6  and  S1_7 
ROOT
HETATM    1  C2  UNL     1      28.686  68.937  72.959  1.00  0.00     0.241 C 
HETATM    2  O3  UNL     1      28.086  70.018  73.075  1.00  0.00    -0.285 OA
ENDROOT
BRANCH   1   3
HETATM    3  C1  UNL     1      30.076  68.892  72.587  1.00  0.00     0.247 C 
HETATM    4  O1  UNL     1      30.568  68.014  71.856  1.00  0.00    -0.642 OA
HETATM    5  O2  UNL     1      30.944  69.879  73.057  1.00  0.00    -0.642 OA
ENDBRANCH   1   3
BRANCH   1   6
HETATM    6  C3  UNL     1      27.907  67.698  73.221  1.00  0.00     0.255 C 
BRANCH   6   7
HETATM    7  S1  UNL     1      28.148  67.044  74.785  1.00  0.00     0.109 S 
HETATM    8  O4  UNL     1      27.215  68.081  75.800  1.00  0.00    -0.595 OA
HETATM    9  O5  UNL     1      27.498  65.604  74.831  1.00  0.00    -0.595 OA
HETATM   10  O6  UNL     1      29.623  67.141  75.289  1.00  0.00    -0.595 OA
ENDBRANCH   6   7
ENDBRANCH   1   6
TORSDOF 3
ENDMDL
