MODEL 7
REMARK VINA RESULT: -6.244068986      1.282      1.903
REMARK  3 active torsions:
REMARK  status: ('A' for Active; 'I' for Inactive)
REMARK    1  A    between atoms: C1_2  and  C2_4 
REMARK    2  A    between atoms: C2_4  and  C3_6 
REMARK    3  A    between atoms: C3_6  and  S1_7 
ROOT
HETATM    1  C2  UNL     1      28.735  68.865  73.028  1.00  0.00     0.241 C 
HETATM    2  O3  UNL     1      28.125  69.908  73.312  1.00  0.00    -0.285 OA
ENDROOT
BRANCH   1   3
HETATM    3  C1  UNL     1      30.107  68.897  72.594  1.00  0.00     0.247 C 
HETATM    4  O1  UNL     1      30.594  68.094  71.779  1.00  0.00    -0.642 OA
HETATM    5  O2  UNL     1      30.963  69.876  73.101  1.00  0.00    -0.642 OA
ENDBRANCH   1   3
BRANCH   1   6
HETATM    6  C3  UNL     1      27.986  67.586  73.156  1.00  0.00     0.255 C 
BRANCH   6   7
HETATM    7  S1  UNL     1      28.403  66.675  74.546  1.00  0.00     0.109 S 
HETATM    8  O4  UNL     1      29.811  65.810  74.049  1.00  0.00    -0.595 OA
HETATM    9  O5  UNL     1      28.825  67.676  75.693  1.00  0.00    -0.595 OA
HETATM   10  O6  UNL     1      27.338  65.601  74.937  1.00  0.00    -0.595 OA
ENDBRANCH   6   7
ENDBRANCH   1   6
TORSDOF 3
ENDMDL
