MODEL 1
REMARK VINA RESULT: -6.630611561      0.000      0.000
REMARK  3 active torsions:
REMARK  status: ('A' for Active; 'I' for Inactive)
REMARK    1  A    between atoms: C1_2  and  C2_4 
REMARK    2  A    between atoms: C2_4  and  C3_6 
REMARK    3  A    between atoms: C3_6  and  S1_7 
ROOT
HETATM    1  C2  UNL     1      28.731  69.026  73.000  1.00  0.00     0.241 C 
HETATM    2  O3  UNL     1      28.034  69.984  72.628  1.00  0.00    -0.285 OA
ENDROOT
BRANCH   1   3
HETATM    3  C1  UNL     1      30.116  68.919  72.623  1.00  0.00     0.247 C 
HETATM    4  O1  UNL     1      30.572  67.998  71.922  1.00  0.00    -0.642 OA
HETATM    5  O2  UNL     1      31.020  69.890  73.054  1.00  0.00    -0.642 OA
ENDBRANCH   1   3
BRANCH   1   6
HETATM    6  C3  UNL     1      28.071  67.999  73.850  1.00  0.00     0.255 C 
BRANCH   6   7
HETATM    7  S1  UNL     1      28.565  68.033  75.490  1.00  0.00     0.109 S 
HETATM    8  O4  UNL     1      28.822  69.712  75.795  1.00  0.00    -0.595 OA
HETATM    9  O5  UNL     1      27.354  67.556  76.387  1.00  0.00    -0.595 OA
HETATM   10  O6  UNL     1      29.929  67.321  75.753  1.00  0.00    -0.595 OA
ENDBRANCH   6   7
ENDBRANCH   1   6
TORSDOF 3
ENDMDL
