MODEL 2
REMARK VINA RESULT: -6.504746472      0.081      1.458
REMARK  3 active torsions:
REMARK  status: ('A' for Active; 'I' for Inactive)
REMARK    1  A    between atoms: C1_2  and  C2_4 
REMARK    2  A    between atoms: C2_4  and  C3_6 
REMARK    3  A    between atoms: C3_6  and  S1_7 
ROOT
HETATM    1  C2  UNL     1      28.740  69.030  73.008  1.00  0.00     0.241 C 
HETATM    2  O3  UNL     1      28.027  69.973  72.628  1.00  0.00    -0.285 OA
ENDROOT
BRANCH   1   3
HETATM    3  C1  UNL     1      30.121  68.933  72.613  1.00  0.00     0.247 C 
HETATM    4  O1  UNL     1      30.571  68.024  71.893  1.00  0.00    -0.642 OA
HETATM    5  O2  UNL     1      31.028  69.900  73.047  1.00  0.00    -0.642 OA
ENDBRANCH   1   3
BRANCH   1   6
HETATM    6  C3  UNL     1      28.105  68.012  73.887  1.00  0.00     0.255 C 
BRANCH   6   7
HETATM    7  S1  UNL     1      28.470  68.205  75.549  1.00  0.00     0.109 S 
HETATM    8  O4  UNL     1      29.919  67.292  75.750  1.00  0.00    -0.595 OA
HETATM    9  O5  UNL     1      28.812  69.725  75.813  1.00  0.00    -0.595 OA
HETATM   10  O6  UNL     1      27.410  67.570  76.505  1.00  0.00    -0.595 OA
ENDBRANCH   6   7
ENDBRANCH   1   6
TORSDOF 3
ENDMDL
