MODEL 6
REMARK VINA RESULT: -9.648261439      2.441      5.344
REMARK  3 active torsions:
REMARK  status: ('A' for Active; 'I' for Inactive)
REMARK    1  A    between atoms: C3_4  and  O2_5 
REMARK    2  A    between atoms: C10_14  and  N1_15 
REMARK    3  A    between atoms: C13_20  and  O6_21 
ROOT
HETATM    1  O1  UNL     1      21.477   9.571  18.560  1.00  0.00    -0.286 OA
HETATM    2  C1  UNL     1      22.085   8.486  18.758  1.00  0.00     0.199 A 
HETATM    3  C2  UNL     1      22.007   7.776  20.033  1.00  0.00     0.062 A 
HETATM    4  C3  UNL     1      21.262   8.251  21.101  1.00  0.00     0.080 A 
HETATM    5  C4  UNL     1      21.223   7.521  22.311  1.00  0.00     0.037 A 
HETATM    6  C5  UNL     1      21.902   6.350  22.469  1.00  0.00     0.004 A 
HETATM    7  C6  UNL     1      22.638   5.885  21.407  1.00  0.00     0.017 A 
HETATM    8  C7  UNL     1      22.688   6.590  20.209  1.00  0.00     0.032 A 
HETATM    9  C8  UNL     1      23.495   6.047  19.096  1.00  0.00     0.197 A 
HETATM   10  O3  UNL     1      24.079   4.961  19.336  1.00  0.00    -0.286 OA
HETATM   11  C9  UNL     1      23.593   6.733  17.814  1.00  0.00     0.065 A 
HETATM   12  C10 UNL     1      24.323   6.222  16.786  1.00  0.00     0.118 A 
HETATM   13  C11 UNL     1      24.367   6.908  15.562  1.00  0.00     0.040 A 
HETATM   14  C12 UNL     1      23.686   8.079  15.403  1.00  0.00     0.040 A 
HETATM   15  C13 UNL     1      22.954   8.581  16.457  1.00  0.00     0.081 A 
HETATM   16  C14 UNL     1      22.899   7.916  17.669  1.00  0.00     0.065 A 
ENDROOT
BRANCH  12  17
HETATM   17  N1  UNL     1      25.057   5.030  16.844  1.00  0.00    -0.115 N 
HETATM   18  O4  UNL     1      26.258   4.946  16.980  1.00  0.00    -0.532 OA
HETATM   19  O5  UNL     1      24.347   3.836  16.653  1.00  0.00    -0.532 OA
ENDBRANCH  12  17
BRANCH  15  20
HETATM   20  O6  UNL     1      22.255   9.765  16.322  1.00  0.00    -0.360 OA
ATOM     21  H6  UNL     1      21.437   9.895  16.786  1.00  0.00     0.217 HD
ENDBRANCH  15  20
BRANCH   4  22
HETATM   22  O2  UNL     1      20.561   9.411  21.015  1.00  0.00    -0.360 OA
ATOM     23  H2  UNL     1      20.521  10.020  21.742  1.00  0.00     0.217 HD
ENDBRANCH   4  22
TORSDOF 3
ENDMDL
