MODEL 5
REMARK VINA RESULT: -9.686123551      1.294      4.641
REMARK  3 active torsions:
REMARK  status: ('A' for Active; 'I' for Inactive)
REMARK    1  A    between atoms: C3_4  and  O2_5 
REMARK    2  A    between atoms: C10_14  and  N1_15 
REMARK    3  A    between atoms: C13_20  and  O6_21 
ROOT
HETATM    1  O1  UNL     1      25.160   5.274  15.540  1.00  0.00    -0.286 OA
HETATM    2  C1  UNL     1      24.594   5.567  16.626  1.00  0.00     0.199 A 
HETATM    3  C2  UNL     1      24.732   4.736  17.821  1.00  0.00     0.062 A 
HETATM    4  C3  UNL     1      25.493   3.577  17.833  1.00  0.00     0.080 A 
HETATM    5  C4  UNL     1      25.592   2.813  19.018  1.00  0.00     0.037 A 
HETATM    6  C5  UNL     1      24.957   3.178  20.166  1.00  0.00     0.004 A 
HETATM    7  C6  UNL     1      24.204   4.327  20.147  1.00  0.00     0.017 A 
HETATM    8  C7  UNL     1      24.096   5.092  18.991  1.00  0.00     0.032 A 
HETATM    9  C8  UNL     1      23.274   6.320  19.023  1.00  0.00     0.197 A 
HETATM   10  O3  UNL     1      22.733   6.575  20.127  1.00  0.00    -0.286 OA
HETATM   11  C9  UNL     1      23.116   7.167  17.848  1.00  0.00     0.065 A 
HETATM   12  C10 UNL     1      22.372   8.306  17.885  1.00  0.00     0.118 A 
HETATM   13  C11 UNL     1      22.269   9.102  16.733  1.00  0.00     0.040 A 
HETATM   14  C12 UNL     1      22.908   8.738  15.584  1.00  0.00     0.040 A 
HETATM   15  C13 UNL     1      23.654   7.580  15.567  1.00  0.00     0.081 A 
HETATM   16  C14 UNL     1      23.766   6.786  16.693  1.00  0.00     0.065 A 
ENDROOT
BRANCH  12  17
HETATM   17  N1  UNL     1      21.680   8.770  19.011  1.00  0.00    -0.115 N 
HETATM   18  O4  UNL     1      22.172   9.350  19.954  1.00  0.00    -0.532 OA
HETATM   19  O5  UNL     1      20.312   8.470  19.084  1.00  0.00    -0.532 OA
ENDBRANCH  12  17
BRANCH  15  20
HETATM   20  O6  UNL     1      24.310   7.188  14.416  1.00  0.00    -0.360 OA
ATOM     21  H6  UNL     1      23.883   6.615  13.790  1.00  0.00     0.217 HD
ENDBRANCH  15  20
BRANCH   4  22
HETATM   22  O2  UNL     1      26.154   3.153  16.724  1.00  0.00    -0.360 OA
ATOM     23  H2  UNL     1      25.990   3.540  15.872  1.00  0.00     0.217 HD
ENDBRANCH   4  22
TORSDOF 3
ENDMDL
