MODEL 7
REMARK VINA RESULT: -9.544004193      1.541      4.607
REMARK  3 active torsions:
REMARK  status: ('A' for Active; 'I' for Inactive)
REMARK    1  A    between atoms: C3_4  and  O2_5 
REMARK    2  A    between atoms: C10_14  and  N1_15 
REMARK    3  A    between atoms: C13_20  and  O6_21 
ROOT
HETATM    1  O1  UNL     1      24.319   6.716  15.433  1.00  0.00    -0.286 OA
HETATM    2  C1  UNL     1      23.928   6.645  16.628  1.00  0.00     0.199 A 
HETATM    3  C2  UNL     1      24.339   5.558  17.515  1.00  0.00     0.062 A 
HETATM    4  C3  UNL     1      25.184   4.541  17.097  1.00  0.00     0.080 A 
HETATM    5  C4  UNL     1      25.550   3.516  17.999  1.00  0.00     0.037 A 
HETATM    6  C5  UNL     1      25.095   3.489  19.283  1.00  0.00     0.004 A 
HETATM    7  C6  UNL     1      24.258   4.500  19.690  1.00  0.00     0.017 A 
HETATM    8  C7  UNL     1      23.888   5.516  18.817  1.00  0.00     0.032 A 
HETATM    9  C8  UNL     1      22.986   6.581  19.304  1.00  0.00     0.197 A 
HETATM   10  O3  UNL     1      22.624   6.472  20.502  1.00  0.00    -0.286 OA
HETATM   11  C9  UNL     1      22.557   7.675  18.443  1.00  0.00     0.065 A 
HETATM   12  C10 UNL     1      21.739   8.662  18.899  1.00  0.00     0.118 A 
HETATM   13  C11 UNL     1      21.372   9.709  18.038  1.00  0.00     0.040 A 
HETATM   14  C12 UNL     1      21.830   9.737  16.754  1.00  0.00     0.040 A 
HETATM   15  C13 UNL     1      22.655   8.727  16.311  1.00  0.00     0.081 A 
HETATM   16  C14 UNL     1      23.026   7.690  17.147  1.00  0.00     0.065 A 
ENDROOT
BRANCH  12  17
HETATM   17  N1  UNL     1      21.216   8.729  20.197  1.00  0.00    -0.115 N 
HETATM   18  O4  UNL     1      20.080   8.448  20.516  1.00  0.00    -0.532 OA
HETATM   19  O5  UNL     1      22.058   9.234  21.197  1.00  0.00    -0.532 OA
ENDBRANCH  12  17
BRANCH  15  20
HETATM   20  O6  UNL     1      23.132   8.732  15.014  1.00  0.00    -0.360 OA
ATOM     21  H6  UNL     1      23.952   9.163  14.805  1.00  0.00     0.217 HD
ENDBRANCH  15  20
BRANCH   4  22
HETATM   22  O2  UNL     1      25.676   4.504  15.831  1.00  0.00    -0.360 OA
ATOM     23  H2  UNL     1      25.611   3.721  15.298  1.00  0.00     0.217 HD
ENDBRANCH   4  22
TORSDOF 3
ENDMDL
