MODEL 1
REMARK VINA RESULT: -10.095981105      0.000      0.000
REMARK  3 active torsions:
REMARK  status: ('A' for Active; 'I' for Inactive)
REMARK    1  A    between atoms: C3_4  and  O2_5 
REMARK    2  A    between atoms: C10_14  and  N1_15 
REMARK    3  A    between atoms: C13_20  and  O6_21 
ROOT
HETATM    1  O1  UNL     1      25.116   5.265  15.533  1.00  0.00    -0.286 OA
HETATM    2  C1  UNL     1      24.482   5.764  16.500  1.00  0.00     0.199 A 
HETATM    3  C2  UNL     1      23.707   6.996  16.366  1.00  0.00     0.062 A 
HETATM    4  C3  UNL     1      23.624   7.692  15.169  1.00  0.00     0.080 A 
HETATM    5  C4  UNL     1      22.859   8.878  15.098  1.00  0.00     0.037 A 
HETATM    6  C5  UNL     1      22.192   9.373  16.178  1.00  0.00     0.004 A 
HETATM    7  C6  UNL     1      22.279   8.679  17.361  1.00  0.00     0.017 A 
HETATM    8  C7  UNL     1      23.026   7.509  17.450  1.00  0.00     0.032 A 
HETATM    9  C8  UNL     1      23.089   6.800  18.745  1.00  0.00     0.197 A 
HETATM   10  O3  UNL     1      22.437   7.330  19.679  1.00  0.00    -0.286 OA
HETATM   11  C9  UNL     1      23.853   5.571  18.909  1.00  0.00     0.065 A 
HETATM   12  C10 UNL     1      23.895   4.912  20.099  1.00  0.00     0.118 A 
HETATM   13  C11 UNL     1      24.626   3.717  20.202  1.00  0.00     0.040 A 
HETATM   14  C12 UNL     1      25.292   3.221  19.119  1.00  0.00     0.040 A 
HETATM   15  C13 UNL     1      25.239   3.905  17.925  1.00  0.00     0.081 A 
HETATM   16  C14 UNL     1      24.522   5.082  17.807  1.00  0.00     0.065 A 
ENDROOT
BRANCH  12  17
HETATM   17  N1  UNL     1      23.248   5.333  21.268  1.00  0.00    -0.115 N 
HETATM   18  O4  UNL     1      23.714   6.074  22.105  1.00  0.00    -0.532 OA
HETATM   19  O5  UNL     1      21.981   4.789  21.525  1.00  0.00    -0.532 OA
ENDBRANCH  12  17
BRANCH  15  20
HETATM   20  O6  UNL     1      25.904   3.425  16.814  1.00  0.00    -0.360 OA
ATOM     21  H6  UNL     1      25.608   2.633  16.381  1.00  0.00     0.217 HD
ENDBRANCH  15  20
BRANCH   4  22
HETATM   22  O2  UNL     1      24.263   7.258  14.052  1.00  0.00    -0.360 OA
ATOM     23  H2  UNL     1      23.780   6.948  13.295  1.00  0.00     0.217 HD
ENDBRANCH   4  22
TORSDOF 3
ENDMDL
