MODEL 5
REMARK VINA RESULT: -9.234375357      1.457      4.634
REMARK  3 active torsions:
REMARK  status: ('A' for Active; 'I' for Inactive)
REMARK    1  A    between atoms: C3_4  and  O2_5 
REMARK    2  A    between atoms: C9_13  and  N1_14 
REMARK    3  A    between atoms: C12_19  and  O6_20 
ROOT
HETATM    1  O1  UNL     1      26.281   5.045  13.815  1.00  0.00    -0.286 OA
HETATM    2  C1  UNL     1      25.781   5.644  14.795  1.00  0.00     0.203 A 
HETATM    3  C2  UNL     1      25.894   5.081  16.068  1.00  0.00     0.082 A 
HETATM    4  C3  UNL     1      26.551   3.868  16.254  1.00  0.00     0.082 A 
HETATM    5  C4  UNL     1      26.673   3.296  17.498  1.00  0.00     0.037 A 
HETATM    6  C5  UNL     1      26.132   3.938  18.580  1.00  0.00     0.006 A 
HETATM    7  C6  UNL     1      25.471   5.141  18.448  1.00  0.00     0.038 A 
HETATM    8  C7  UNL     1      25.365   5.691  17.185  1.00  0.00     0.093 A 
HETATM    9  O3  UNL     1      24.745   6.832  17.013  1.00  0.00    -0.306 OA
HETATM   10  C8  UNL     1      24.605   7.416  15.842  1.00  0.00     0.126 A 
HETATM   11  C9  UNL     1      23.935   8.618  15.777  1.00  0.00     0.137 A 
HETATM   12  C10 UNL     1      23.798   9.212  14.547  1.00  0.00     0.042 A 
HETATM   13  C11 UNL     1      24.296   8.666  13.394  1.00  0.00     0.040 A 
HETATM   14  C12 UNL     1      24.985   7.440  13.439  1.00  0.00     0.082 A 
HETATM   15  C13 UNL     1      25.121   6.843  14.673  1.00  0.00     0.085 A 
ENDROOT
BRANCH  11  16
HETATM   16  N1  UNL     1      23.402   9.225  16.932  1.00  0.00    -0.113 N 
HETATM   17  O4  UNL     1      23.603   8.838  18.100  1.00  0.00    -0.532 OA
HETATM   18  O5  UNL     1      22.598  10.330  16.782  1.00  0.00    -0.532 OA
ENDBRANCH  11  16
BRANCH  14  19
HETATM   19  O6  UNL     1      25.449   6.958  12.261  1.00  0.00    -0.360 OA
ATOM     20  H6  UNL     1      25.601   6.022  12.211  1.00  0.00     0.217 HD
ENDBRANCH  14  19
BRANCH   4  21
HETATM   21  O2  UNL     1      27.071   3.281  15.104  1.00  0.00    -0.360 OA
ATOM     22  H2  UNL     1      26.450   3.131  14.401  1.00  0.00     0.217 HD
ENDBRANCH   4  21
TORSDOF 3
ENDMDL
