MODEL 2
REMARK VINA RESULT: -9.568364180      1.583      3.594
REMARK  3 active torsions:
REMARK  status: ('A' for Active; 'I' for Inactive)
REMARK    1  A    between atoms: C3_4  and  O2_5 
REMARK    2  A    between atoms: C9_13  and  N1_14 
REMARK    3  A    between atoms: C12_19  and  O6_20 
ROOT
HETATM    1  O1  UNL     1      23.771   8.365  17.722  1.00  0.00    -0.286 OA
HETATM    2  C1  UNL     1      24.318   7.505  16.993  1.00  0.00     0.203 A 
HETATM    3  C2  UNL     1      24.356   7.709  15.612  1.00  0.00     0.082 A 
HETATM    4  C3  UNL     1      23.795   8.849  15.044  1.00  0.00     0.082 A 
HETATM    5  C4  UNL     1      23.822   9.069  13.687  1.00  0.00     0.037 A 
HETATM    6  C5  UNL     1      24.416   8.138  12.876  1.00  0.00     0.006 A 
HETATM    7  C6  UNL     1      24.986   6.993  13.390  1.00  0.00     0.038 A 
HETATM    8  C7  UNL     1      24.944   6.801  14.757  1.00  0.00     0.093 A 
HETATM    9  O3  UNL     1      25.472   5.727  15.289  1.00  0.00    -0.306 OA
HETATM   10  C8  UNL     1      25.470   5.475  16.580  1.00  0.00     0.126 A 
HETATM   11  C9  UNL     1      26.057   4.313  17.030  1.00  0.00     0.137 A 
HETATM   12  C10 UNL     1      26.044   4.068  18.380  1.00  0.00     0.042 A 
HETATM   13  C11 UNL     1      25.481   4.923  19.290  1.00  0.00     0.040 A 
HETATM   14  C12 UNL     1      24.877   6.116  18.851  1.00  0.00     0.082 A 
HETATM   15  C13 UNL     1      24.889   6.360  17.495  1.00  0.00     0.085 A 
ENDROOT
BRANCH  11  16
HETATM   16  N1  UNL     1      26.652   3.398  16.139  1.00  0.00    -0.113 N 
HETATM   17  O4  UNL     1      27.786   3.525  15.637  1.00  0.00    -0.532 OA
HETATM   18  O5  UNL     1      25.947   2.273  15.784  1.00  0.00    -0.532 OA
ENDBRANCH  11  16
BRANCH  14  19
HETATM   19  O6  UNL     1      24.339   6.913  19.805  1.00  0.00    -0.360 OA
ATOM     20  H6  UNL     1      24.917   7.193  20.505  1.00  0.00     0.217 HD
ENDBRANCH  14  19
BRANCH   4  21
HETATM   21  O2  UNL     1      23.211   9.743  15.937  1.00  0.00    -0.360 OA
ATOM     22  H2  UNL     1      22.445  10.205  15.615  1.00  0.00     0.217 HD
ENDBRANCH   4  21
TORSDOF 3
ENDMDL
