MODEL 3
REMARK VINA RESULT: -9.364967160      1.095      1.428
REMARK  3 active torsions:
REMARK  status: ('A' for Active; 'I' for Inactive)
REMARK    1  A    between atoms: C3_4  and  O2_5 
REMARK    2  A    between atoms: C9_13  and  N1_14 
REMARK    3  A    between atoms: C12_19  and  O6_20 
ROOT
HETATM    1  O1  UNL     1      26.078   5.023  14.885  1.00  0.00    -0.286 OA
HETATM    2  C1  UNL     1      25.498   5.796  15.683  1.00  0.00     0.203 A 
HETATM    3  C2  UNL     1      24.880   6.947  15.190  1.00  0.00     0.082 A 
HETATM    4  C3  UNL     1      24.904   7.241  13.829  1.00  0.00     0.082 A 
HETATM    5  C4  UNL     1      24.302   8.368  13.323  1.00  0.00     0.037 A 
HETATM    6  C5  UNL     1      23.664   9.223  14.183  1.00  0.00     0.006 A 
HETATM    7  C6  UNL     1      23.613   8.976  15.539  1.00  0.00     0.038 A 
HETATM    8  C7  UNL     1      24.227   7.835  16.017  1.00  0.00     0.093 A 
HETATM    9  O3  UNL     1      24.203   7.561  17.298  1.00  0.00    -0.306 OA
HETATM   10  C8  UNL     1      24.765   6.495  17.826  1.00  0.00     0.126 A 
HETATM   11  C9  UNL     1      24.677   6.306  19.188  1.00  0.00     0.137 A 
HETATM   12  C10 UNL     1      25.269   5.188  19.720  1.00  0.00     0.042 A 
HETATM   13  C11 UNL     1      25.935   4.262  18.962  1.00  0.00     0.040 A 
HETATM   14  C12 UNL     1      26.035   4.436  17.570  1.00  0.00     0.082 A 
HETATM   15  C13 UNL     1      25.441   5.559  17.036  1.00  0.00     0.085 A 
ENDROOT
BRANCH  11  16
HETATM   16  N1  UNL     1      24.003   7.226  20.016  1.00  0.00    -0.113 N 
HETATM   17  O4  UNL     1      23.018   6.956  20.730  1.00  0.00    -0.532 OA
HETATM   18  O5  UNL     1      24.451   8.525  20.054  1.00  0.00    -0.532 OA
ENDBRANCH  11  16
BRANCH  14  19
HETATM   19  O6  UNL     1      26.708   3.482  16.883  1.00  0.00    -0.360 OA
ATOM     20  H6  UNL     1      27.616   3.665  16.676  1.00  0.00     0.217 HD
ENDBRANCH  14  19
BRANCH   4  21
HETATM   21  O2  UNL     1      25.573   6.322  13.025  1.00  0.00    -0.360 OA
ATOM     22  H2  UNL     1      25.576   6.516  12.095  1.00  0.00     0.217 HD
ENDBRANCH   4  21
TORSDOF 3
ENDMDL
