MODEL 8
REMARK VINA RESULT: -8.670550718      2.038      4.845
REMARK  3 active torsions:
REMARK  status: ('A' for Active; 'I' for Inactive)
REMARK    1  A    between atoms: C3_4  and  O2_5 
REMARK    2  A    between atoms: C9_13  and  N1_14 
REMARK    3  A    between atoms: C12_19  and  O6_20 
ROOT
HETATM    1  O1  UNL     1      26.106   4.867  15.103  1.00  0.00    -0.286 OA
HETATM    2  C1  UNL     1      25.490   5.774  15.711  1.00  0.00     0.203 A 
HETATM    3  C2  UNL     1      25.334   5.681  17.095  1.00  0.00     0.082 A 
HETATM    4  C3  UNL     1      25.851   4.597  17.800  1.00  0.00     0.082 A 
HETATM    5  C4  UNL     1      25.708   4.487  19.162  1.00  0.00     0.037 A 
HETATM    6  C5  UNL     1      25.038   5.470  19.841  1.00  0.00     0.006 A 
HETATM    7  C6  UNL     1      24.506   6.563  19.189  1.00  0.00     0.038 A 
HETATM    8  C7  UNL     1      24.667   6.646  17.820  1.00  0.00     0.093 A 
HETATM    9  O3  UNL     1      24.179   7.666  17.160  1.00  0.00    -0.306 OA
HETATM   10  C8  UNL     1      24.292   7.814  15.857  1.00  0.00     0.126 A 
HETATM   11  C9  UNL     1      23.739   8.929  15.266  1.00  0.00     0.137 A 
HETATM   12  C10 UNL     1      23.867   9.065  13.906  1.00  0.00     0.042 A 
HETATM   13  C11 UNL     1      24.515   8.149  13.121  1.00  0.00     0.040 A 
HETATM   14  C12 UNL     1      25.087   7.004  13.705  1.00  0.00     0.082 A 
HETATM   15  C13 UNL     1      24.957   6.867  15.070  1.00  0.00     0.085 A 
ENDROOT
BRANCH  11  16
HETATM   16  N1  UNL     1      23.062   9.904  16.026  1.00  0.00    -0.113 N 
HETATM   17  O4  UNL     1      22.729   9.774  17.220  1.00  0.00    -0.532 OA
HETATM   18  O5  UNL     1      22.735  11.095  15.424  1.00  0.00    -0.532 OA
ENDBRANCH  11  16
BRANCH  14  19
HETATM   19  O6  UNL     1      25.712   6.140  12.869  1.00  0.00    -0.360 OA
ATOM     20  H6  UNL     1      26.647   6.258  12.753  1.00  0.00     0.217 HD
ENDBRANCH  14  19
BRANCH   4  21
HETATM   21  O2  UNL     1      26.517   3.644  17.035  1.00  0.00    -0.360 OA
ATOM     22  H2  UNL     1      26.487   2.754  17.369  1.00  0.00     0.217 HD
ENDBRANCH   4  21
TORSDOF 3
ENDMDL
