MODEL 1
REMARK VINA RESULT: -9.715927641      0.000      0.000
REMARK  3 active torsions:
REMARK  status: ('A' for Active; 'I' for Inactive)
REMARK    1  A    between atoms: C3_4  and  O2_5 
REMARK    2  A    between atoms: C9_13  and  N1_14 
REMARK    3  A    between atoms: C12_19  and  O6_20 
ROOT
HETATM    1  O1  UNL     1      26.197   5.328  13.739  1.00  0.00    -0.286 OA
HETATM    2  C1  UNL     1      25.670   5.798  14.775  1.00  0.00     0.203 A 
HETATM    3  C2  UNL     1      24.939   6.984  14.689  1.00  0.00     0.082 A 
HETATM    4  C3  UNL     1      24.793   7.645  13.473  1.00  0.00     0.082 A 
HETATM    5  C4  UNL     1      24.078   8.815  13.367  1.00  0.00     0.037 A 
HETATM    6  C5  UNL     1      23.496   9.341  14.490  1.00  0.00     0.006 A 
HETATM    7  C6  UNL     1      23.612   8.724  15.718  1.00  0.00     0.038 A 
HETATM    8  C7  UNL     1      24.336   7.550  15.792  1.00  0.00     0.093 A 
HETATM    9  O3  UNL     1      24.471   6.931  16.938  1.00  0.00    -0.306 OA
HETATM   10  C8  UNL     1      25.146   5.810  17.086  1.00  0.00     0.126 A 
HETATM   11  C9  UNL     1      25.223   5.244  18.340  1.00  0.00     0.137 A 
HETATM   12  C10 UNL     1      25.931   4.076  18.475  1.00  0.00     0.042 A 
HETATM   13  C11 UNL     1      26.556   3.456  17.426  1.00  0.00     0.040 A 
HETATM   14  C12 UNL     1      26.488   4.017  16.137  1.00  0.00     0.082 A 
HETATM   15  C13 UNL     1      25.779   5.190  16.003  1.00  0.00     0.085 A 
ENDROOT
BRANCH  11  16
HETATM   16  N1  UNL     1      24.598   5.839  19.455  1.00  0.00    -0.113 N 
HETATM   17  O4  UNL     1      24.848   6.981  19.888  1.00  0.00    -0.532 OA
HETATM   18  O5  UNL     1      23.638   5.124  20.129  1.00  0.00    -0.532 OA
ENDBRANCH  11  16
BRANCH  14  19
HETATM   19  O6  UNL     1      27.131   3.351  15.148  1.00  0.00    -0.360 OA
ATOM     20  H6  UNL     1      26.901   2.437  15.029  1.00  0.00     0.217 HD
ENDBRANCH  14  19
BRANCH   4  21
HETATM   21  O2  UNL     1      25.416   7.046  12.382  1.00  0.00    -0.360 OA
ATOM     22  H2  UNL     1      25.550   7.605  11.626  1.00  0.00     0.217 HD
ENDBRANCH   4  21
TORSDOF 3
ENDMDL
