MODEL 7
REMARK VINA RESULT: -9.220488960      1.106      3.731
REMARK  2 active torsions:
REMARK  status: ('A' for Active; 'I' for Inactive)
REMARK    1  A    between atoms: C9_12  and  O2_13 
REMARK    2  A    between atoms: C12_17  and  O3_18 
ROOT
HETATM    1  N1  UNL     1      22.007  10.126  16.003  1.00  0.00    -0.101 NA
HETATM    2  C1  UNL     1      22.812   9.045  15.577  1.00  0.00     0.061 A 
HETATM    3  C2  UNL     1      23.245   8.902  14.271  1.00  0.00     0.029 A 
HETATM    4  C3  UNL     1      24.027   7.826  13.917  1.00  0.00     0.029 A 
HETATM    5  C4  UNL     1      24.390   6.880  14.848  1.00  0.00     0.061 A 
HETATM    6  N2  UNL     1      25.195   5.752  14.531  1.00  0.00    -0.101 NA
HETATM    7  C5  UNL     1      23.961   7.007  16.169  1.00  0.00     0.055 A 
HETATM    8  C6  UNL     1      23.181   8.088  16.504  1.00  0.00     0.055 A 
HETATM    9  C7  UNL     1      22.712   8.259  17.878  1.00  0.00     0.199 A 
HETATM   10  O1  UNL     1      21.993   9.265  18.162  1.00  0.00    -0.286 OA
HETATM   11  C8  UNL     1      23.068   7.286  18.896  1.00  0.00     0.065 A 
HETATM   12  C9  UNL     1      22.601   7.492  20.172  1.00  0.00     0.081 A 
HETATM   13  C10 UNL     1      22.965   6.530  21.132  1.00  0.00     0.040 A 
HETATM   14  C11 UNL     1      23.734   5.463  20.807  1.00  0.00     0.040 A 
HETATM   15  C12 UNL     1      24.210   5.256  19.499  1.00  0.00     0.081 A 
HETATM   16  C13 UNL     1      23.866   6.185  18.540  1.00  0.00     0.065 A 
HETATM   17  C14 UNL     1      24.337   6.010  17.173  1.00  0.00     0.199 A 
HETATM   18  O4  UNL     1      25.053   5.048  16.792  1.00  0.00    -0.286 OA
ENDROOT
BRANCH  12  19
HETATM   19  O2  UNL     1      21.836   8.532  20.552  1.00  0.00    -0.360 OA
ATOM     20  H2  UNL     1      22.156   9.307  20.998  1.00  0.00     0.217 HD
ENDBRANCH  12  19
BRANCH  15  21
HETATM   21  O3  UNL     1      24.976   4.163  19.249  1.00  0.00    -0.360 OA
ATOM     22  H3  UNL     1      24.923   3.756  18.392  1.00  0.00     0.217 HD
ENDBRANCH  15  21
TORSDOF 2
ENDMDL
