MODEL 1
REMARK VINA RESULT: -9.933621265      0.000      0.000
REMARK  2 active torsions:
REMARK  status: ('A' for Active; 'I' for Inactive)
REMARK    1  A    between atoms: C9_12  and  O2_13 
REMARK    2  A    between atoms: C12_17  and  O3_18 
ROOT
HETATM    1  N1  UNL     1      24.733   6.819  15.473  1.00  0.00    -0.101 NA
HETATM    2  C1  UNL     1      23.772   7.802  15.802  1.00  0.00     0.061 A 
HETATM    3  C2  UNL     1      23.340   8.757  14.900  1.00  0.00     0.029 A 
HETATM    4  C3  UNL     1      22.401   9.690  15.280  1.00  0.00     0.029 A 
HETATM    5  C4  UNL     1      21.880   9.689  16.553  1.00  0.00     0.061 A 
HETATM    6  N2  UNL     1      20.910  10.631  16.993  1.00  0.00    -0.101 NA
HETATM    7  C5  UNL     1      22.306   8.734  17.476  1.00  0.00     0.055 A 
HETATM    8  C6  UNL     1      23.243   7.811  17.079  1.00  0.00     0.055 A 
HETATM    9  C7  UNL     1      23.715   6.792  18.015  1.00  0.00     0.199 A 
HETATM   10  O1  UNL     1      24.581   5.951  17.624  1.00  0.00    -0.286 OA
HETATM   11  C8  UNL     1      23.195   6.751  19.371  1.00  0.00     0.065 A 
HETATM   12  C9  UNL     1      23.671   5.775  20.212  1.00  0.00     0.081 A 
HETATM   13  C10 UNL     1      23.146   5.764  21.517  1.00  0.00     0.040 A 
HETATM   14  C11 UNL     1      22.221   6.672  21.913  1.00  0.00     0.040 A 
HETATM   15  C12 UNL     1      21.736   7.670  21.048  1.00  0.00     0.081 A 
HETATM   16  C13 UNL     1      22.236   7.701  19.764  1.00  0.00     0.065 A 
HETATM   17  C14 UNL     1      21.762   8.718  18.836  1.00  0.00     0.199 A 
HETATM   18  O4  UNL     1      20.907   9.595  19.127  1.00  0.00    -0.286 OA
ENDROOT
BRANCH  12  19
HETATM   19  O2  UNL     1      24.587   4.848  19.873  1.00  0.00    -0.360 OA
ATOM     20  H2  UNL     1      24.485   4.215  19.172  1.00  0.00     0.217 HD
ENDBRANCH  12  19
BRANCH  15  21
HETATM   21  O3  UNL     1      20.810   8.546  21.518  1.00  0.00    -0.360 OA
ATOM     22  H3  UNL     1      20.988   9.476  21.453  1.00  0.00     0.217 HD
ENDBRANCH  15  21
TORSDOF 2
ENDMDL
