MODEL 4
REMARK VINA RESULT: -9.766803082      1.724      5.801
REMARK  2 active torsions:
REMARK  status: ('A' for Active; 'I' for Inactive)
REMARK    1  A    between atoms: C9_12  and  O2_13 
REMARK    2  A    between atoms: C12_17  and  O3_18 
ROOT
HETATM    1  N1  UNL     1      21.031   8.404  21.529  1.00  0.00    -0.101 NA
HETATM    2  C1  UNL     1      21.965   7.450  21.063  1.00  0.00     0.061 A 
HETATM    3  C2  UNL     1      22.459   6.434  21.861  1.00  0.00     0.029 A 
HETATM    4  C3  UNL     1      23.367   5.535  21.350  1.00  0.00     0.029 A 
HETATM    5  C4  UNL     1      23.798   5.630  20.047  1.00  0.00     0.061 A 
HETATM    6  N2  UNL     1      24.735   4.727  19.474  1.00  0.00    -0.101 NA
HETATM    7  C5  UNL     1      23.311   6.649  19.228  1.00  0.00     0.055 A 
HETATM    8  C6  UNL     1      22.405   7.537  19.756  1.00  0.00     0.055 A 
HETATM    9  C7  UNL     1      21.870   8.619  18.931  1.00  0.00     0.199 A 
HETATM   10  O1  UNL     1      21.034   9.426  19.442  1.00  0.00    -0.286 OA
HETATM   11  C8  UNL     1      22.294   8.761  17.549  1.00  0.00     0.065 A 
HETATM   12  C9  UNL     1      21.762   9.794  16.816  1.00  0.00     0.081 A 
HETATM   13  C10 UNL     1      22.196   9.902  15.482  1.00  0.00     0.040 A 
HETATM   14  C11 UNL     1      23.089   9.028  14.958  1.00  0.00     0.040 A 
HETATM   15  C12 UNL     1      23.631   7.971  15.711  1.00  0.00     0.081 A 
HETATM   16  C13 UNL     1      23.222   7.846  17.022  1.00  0.00     0.065 A 
HETATM   17  C14 UNL     1      23.758   6.766  17.838  1.00  0.00     0.199 A 
HETATM   18  O4  UNL     1      24.590   5.916  17.426  1.00  0.00    -0.286 OA
ENDROOT
BRANCH  12  19
HETATM   19  O2  UNL     1      20.872  10.690  17.285  1.00  0.00    -0.360 OA
ATOM     20  H2  UNL     1      20.968  11.177  18.094  1.00  0.00     0.217 HD
ENDBRANCH  12  19
BRANCH  15  21
HETATM   21  O3  UNL     1      24.522   7.136  15.117  1.00  0.00    -0.360 OA
ATOM     22  H3  UNL     1      25.265   6.827  15.622  1.00  0.00     0.217 HD
ENDBRANCH  15  21
TORSDOF 2
ENDMDL
