MODEL 6
REMARK VINA RESULT: -9.486085428      0.899      1.031
REMARK  2 active torsions:
REMARK  status: ('A' for Active; 'I' for Inactive)
REMARK    1  A    between atoms: C9_12  and  O2_13 
REMARK    2  A    between atoms: C12_17  and  O3_18 
ROOT
HETATM    1  N1  UNL     1      25.263   5.580  15.813  1.00  0.00    -0.101 NA
HETATM    2  C1  UNL     1      24.469   6.749  15.786  1.00  0.00     0.061 A 
HETATM    3  C2  UNL     1      24.341   7.541  14.659  1.00  0.00     0.029 A 
HETATM    4  C3  UNL     1      23.552   8.669  14.695  1.00  0.00     0.029 A 
HETATM    5  C4  UNL     1      22.883   9.026  15.842  1.00  0.00     0.061 A 
HETATM    6  N2  UNL     1      22.057  10.181  15.928  1.00  0.00    -0.101 NA
HETATM    7  C5  UNL     1      23.001   8.239  16.988  1.00  0.00     0.055 A 
HETATM    8  C6  UNL     1      23.792   7.117  16.933  1.00  0.00     0.055 A 
HETATM    9  C7  UNL     1      23.942   6.266  18.112  1.00  0.00     0.199 A 
HETATM   10  O1  UNL     1      24.679   5.235  18.036  1.00  0.00    -0.286 OA
HETATM   11  C8  UNL     1      23.255   6.602  19.347  1.00  0.00     0.065 A 
HETATM   12  C9  UNL     1      23.430   5.770  20.426  1.00  0.00     0.081 A 
HETATM   13  C10 UNL     1      22.750   6.126  21.605  1.00  0.00     0.040 A 
HETATM   14  C11 UNL     1      21.968   7.231  21.663  1.00  0.00     0.040 A 
HETATM   15  C12 UNL     1      21.792   8.081  20.556  1.00  0.00     0.081 A 
HETATM   16  C13 UNL     1      22.449   7.753  19.389  1.00  0.00     0.065 A 
HETATM   17  C14 UNL     1      22.295   8.605  18.218  1.00  0.00     0.199 A 
HETATM   18  O4  UNL     1      21.589   9.646  18.192  1.00  0.00    -0.286 OA
ENDROOT
BRANCH  12  19
HETATM   19  O2  UNL     1      24.192   4.660  20.425  1.00  0.00    -0.360 OA
ATOM     20  H2  UNL     1      24.055   3.907  20.988  1.00  0.00     0.217 HD
ENDBRANCH  12  19
BRANCH  15  21
HETATM   21  O3  UNL     1      20.994   9.171  20.691  1.00  0.00    -0.360 OA
ATOM     22  H3  UNL     1      20.460   9.439  19.952  1.00  0.00     0.217 HD
ENDBRANCH  15  21
TORSDOF 2
ENDMDL
