MODEL 5
REMARK VINA RESULT: -9.577014923      0.948      3.577
REMARK  2 active torsions:
REMARK  status: ('A' for Active; 'I' for Inactive)
REMARK    1  A    between atoms: C9_12  and  O2_13 
REMARK    2  A    between atoms: C12_17  and  O3_18 
ROOT
HETATM    1  N1  UNL     1      22.025  10.152  15.815  1.00  0.00    -0.101 NA
HETATM    2  C1  UNL     1      22.866   9.016  15.760  1.00  0.00     0.061 A 
HETATM    3  C2  UNL     1      23.552   8.648  14.617  1.00  0.00     0.029 A 
HETATM    4  C3  UNL     1      24.356   7.530  14.625  1.00  0.00     0.029 A 
HETATM    5  C4  UNL     1      24.491   6.766  15.761  1.00  0.00     0.061 A 
HETATM    6  N2  UNL     1      25.308   5.604  15.818  1.00  0.00    -0.101 NA
HETATM    7  C5  UNL     1      23.806   7.123  16.923  1.00  0.00     0.055 A 
HETATM    8  C6  UNL     1      23.008   8.241  16.895  1.00  0.00     0.055 A 
HETATM    9  C7  UNL     1      22.273   8.649  18.092  1.00  0.00     0.199 A 
HETATM   10  O1  UNL     1      21.543   9.686  18.041  1.00  0.00    -0.286 OA
HETATM   11  C8  UNL     1      22.383   7.874  19.315  1.00  0.00     0.065 A 
HETATM   12  C9  UNL     1      21.673   8.300  20.411  1.00  0.00     0.081 A 
HETATM   13  C10 UNL     1      21.803   7.525  21.579  1.00  0.00     0.040 A 
HETATM   14  C11 UNL     1      22.589   6.422  21.610  1.00  0.00     0.040 A 
HETATM   15  C12 UNL     1      23.315   5.990  20.485  1.00  0.00     0.081 A 
HETATM   16  C13 UNL     1      23.203   6.732  19.329  1.00  0.00     0.065 A 
HETATM   17  C14 UNL     1      23.937   6.321  18.141  1.00  0.00     0.199 A 
HETATM   18  O4  UNL     1      24.686   5.310  18.089  1.00  0.00    -0.286 OA
ENDROOT
BRANCH  12  19
HETATM   19  O2  UNL     1      20.879   9.387  20.437  1.00  0.00    -0.360 OA
ATOM     20  H2  UNL     1      20.107   9.482  20.983  1.00  0.00     0.217 HD
ENDBRANCH  12  19
BRANCH  15  21
HETATM   21  O3  UNL     1      24.081   4.873  20.593  1.00  0.00    -0.360 OA
ATOM     22  H3  UNL     1      24.594   4.599  19.843  1.00  0.00     0.217 HD
ENDBRANCH  15  21
TORSDOF 2
ENDMDL
