MODEL 8
REMARK VINA RESULT: -9.216883478      1.996      5.961
REMARK  2 active torsions:
REMARK  status: ('A' for Active; 'I' for Inactive)
REMARK    1  A    between atoms: C9_12  and  O2_13 
REMARK    2  A    between atoms: C12_17  and  O3_18 
ROOT
HETATM    1  N1  UNL     1      21.967   8.379  20.559  1.00  0.00    -0.101 NA
HETATM    2  C1  UNL     1      22.748   7.249  20.223  1.00  0.00     0.061 A 
HETATM    3  C2  UNL     1      23.099   6.281  21.147  1.00  0.00     0.029 A 
HETATM    4  C3  UNL     1      23.862   5.203  20.760  1.00  0.00     0.029 A 
HETATM    5  C4  UNL     1      24.286   5.069  19.458  1.00  0.00     0.061 A 
HETATM    6  N2  UNL     1      25.076   3.975  19.011  1.00  0.00    -0.101 NA
HETATM    7  C5  UNL     1      23.943   6.037  18.514  1.00  0.00     0.055 A 
HETATM    8  C6  UNL     1      23.180   7.106  18.919  1.00  0.00     0.055 A 
HETATM    9  C7  UNL     1      22.798   8.141  17.960  1.00  0.00     0.199 A 
HETATM   10  O1  UNL     1      22.094   9.119  18.359  1.00  0.00    -0.286 OA
HETATM   11  C8  UNL     1      23.223   8.044  16.574  1.00  0.00     0.065 A 
HETATM   12  C9  UNL     1      22.837   9.043  15.713  1.00  0.00     0.081 A 
HETATM   13  C10 UNL     1      23.266   8.917  14.379  1.00  0.00     0.040 A 
HETATM   14  C11 UNL     1      24.018   7.865  13.976  1.00  0.00     0.040 A 
HETATM   15  C12 UNL     1      24.410   6.844  14.861  1.00  0.00     0.081 A 
HETATM   16  C13 UNL     1      24.002   6.945  16.174  1.00  0.00     0.065 A 
HETATM   17  C14 UNL     1      24.386   5.911  17.124  1.00  0.00     0.199 A 
HETATM   18  O4  UNL     1      25.081   4.904  16.828  1.00  0.00    -0.286 OA
ENDROOT
BRANCH  12  19
HETATM   19  O2  UNL     1      22.092  10.110  16.059  1.00  0.00    -0.360 OA
ATOM     20  H2  UNL     1      22.163  10.578  16.882  1.00  0.00     0.217 HD
ENDBRANCH  12  19
BRANCH  15  21
HETATM   21  O3  UNL     1      25.164   5.820  14.382  1.00  0.00    -0.360 OA
ATOM     22  H3  UNL     1      25.945   6.026  13.881  1.00  0.00     0.217 HD
ENDBRANCH  15  21
TORSDOF 2
ENDMDL
