MODEL 3
REMARK VINA RESULT: -9.835632496      1.724      4.632
REMARK  2 active torsions:
REMARK  status: ('A' for Active; 'I' for Inactive)
REMARK    1  A    between atoms: C9_12  and  O2_13 
REMARK    2  A    between atoms: C12_17  and  O3_18 
ROOT
HETATM    1  N1  UNL     1      24.724   4.739  19.445  1.00  0.00    -0.101 NA
HETATM    2  C1  UNL     1      23.796   5.625  20.039  1.00  0.00     0.061 A 
HETATM    3  C2  UNL     1      23.380   5.502  21.353  1.00  0.00     0.029 A 
HETATM    4  C3  UNL     1      22.472   6.396  21.875  1.00  0.00     0.029 A 
HETATM    5  C4  UNL     1      21.967   7.419  21.107  1.00  0.00     0.061 A 
HETATM    6  N2  UNL     1      21.028   8.366  21.601  1.00  0.00    -0.101 NA
HETATM    7  C5  UNL     1      22.375   7.557  19.781  1.00  0.00     0.055 A 
HETATM    8  C6  UNL     1      23.281   6.656  19.276  1.00  0.00     0.055 A 
HETATM    9  C7  UNL     1      23.735   6.766  17.891  1.00  0.00     0.199 A 
HETATM   10  O1  UNL     1      24.573   5.921  17.449  1.00  0.00    -0.286 OA
HETATM   11  C8  UNL     1      23.230   7.830  17.041  1.00  0.00     0.065 A 
HETATM   12  C9  UNL     1      23.687   7.889  15.747  1.00  0.00     0.081 A 
HETATM   13  C10 UNL     1      23.177   8.932  14.951  1.00  0.00     0.040 A 
HETATM   14  C11 UNL     1      22.283   9.823  15.445  1.00  0.00     0.040 A 
HETATM   15  C12 UNL     1      21.818   9.758  16.771  1.00  0.00     0.081 A 
HETATM   16  C13 UNL     1      22.303   8.745  17.569  1.00  0.00     0.065 A 
HETATM   17  C14 UNL     1      21.847   8.641  18.948  1.00  0.00     0.199 A 
HETATM   18  O4  UNL     1      21.021   9.427  19.479  1.00  0.00    -0.286 OA
ENDROOT
BRANCH  12  19
HETATM   19  O2  UNL     1      24.574   7.033  15.205  1.00  0.00    -0.360 OA
ATOM     20  H2  UNL     1      24.464   6.090  15.168  1.00  0.00     0.217 HD
ENDBRANCH  12  19
BRANCH  15  21
HETATM   21  O3  UNL     1      20.921  10.687  17.193  1.00  0.00    -0.360 OA
ATOM     22  H3  UNL     1      20.902  11.532  16.758  1.00  0.00     0.217 HD
ENDBRANCH  15  21
TORSDOF 2
ENDMDL
