MODEL 2
REMARK VINA RESULT: -9.900323121      0.121      3.504
REMARK  2 active torsions:
REMARK  status: ('A' for Active; 'I' for Inactive)
REMARK    1  A    between atoms: C9_12  and  O2_13 
REMARK    2  A    between atoms: C12_17  and  O3_18 
ROOT
HETATM    1  N1  UNL     1      20.907  10.575  17.026  1.00  0.00    -0.101 NA
HETATM    2  C1  UNL     1      21.879   9.646  16.590  1.00  0.00     0.061 A 
HETATM    3  C2  UNL     1      22.402   9.655  15.310  1.00  0.00     0.029 A 
HETATM    4  C3  UNL     1      23.347   8.723  14.944  1.00  0.00     0.029 A 
HETATM    5  C4  UNL     1      23.785   7.773  15.838  1.00  0.00     0.061 A 
HETATM    6  N2  UNL     1      24.758   6.790  15.507  1.00  0.00    -0.101 NA
HETATM    7  C5  UNL     1      23.268   7.749  17.133  1.00  0.00     0.055 A 
HETATM    8  C6  UNL     1      22.325   8.687  17.480  1.00  0.00     0.055 A 
HETATM    9  C7  UNL     1      21.759   8.696  18.827  1.00  0.00     0.199 A 
HETATM   10  O1  UNL     1      20.890   9.573  19.123  1.00  0.00    -0.286 OA
HETATM   11  C8  UNL     1      22.189   7.713  19.806  1.00  0.00     0.065 A 
HETATM   12  C9  UNL     1      21.626   7.765  21.058  1.00  0.00     0.081 A 
HETATM   13  C10 UNL     1      22.066   6.797  21.981  1.00  0.00     0.040 A 
HETATM   14  C11 UNL     1      22.995   5.871  21.643  1.00  0.00     0.040 A 
HETATM   15  C12 UNL     1      23.570   5.822  20.360  1.00  0.00     0.081 A 
HETATM   16  C13 UNL     1      23.154   6.759  19.438  1.00  0.00     0.065 A 
HETATM   17  C14 UNL     1      23.722   6.745  18.097  1.00  0.00     0.199 A 
HETATM   18  O4  UNL     1      24.588   5.919  17.707  1.00  0.00    -0.286 OA
ENDROOT
BRANCH  12  19
HETATM   19  O2  UNL     1      20.701   8.662  21.449  1.00  0.00    -0.360 OA
ATOM     20  H2  UNL     1      20.484   8.859  22.352  1.00  0.00     0.217 HD
ENDBRANCH  12  19
BRANCH  15  21
HETATM   21  O3  UNL     1      24.495   4.863  20.095  1.00  0.00    -0.360 OA
ATOM     22  H3  UNL     1      24.197   3.976  19.931  1.00  0.00     0.217 HD
ENDBRANCH  15  21
TORSDOF 2
ENDMDL
