MODEL 1
REMARK VINA RESULT: -6.371342130      0.000      0.000
REMARK  3 active torsions:
REMARK  status: ('A' for Active; 'I' for Inactive)
REMARK    1  A    between atoms: C2_2  and  C3_3 
REMARK    2  A    between atoms: C2_2  and  C4_5 
REMARK       I    between atoms: C4_5  and  N1_7 
REMARK    3  A    between atoms: C8_11  and  C9_12 
ROOT
HETATM    1  C4  UNL     1     -22.767  39.338  10.766  1.00  0.00     0.225 C 
HETATM    2  O1  UNL     1     -21.655  39.382  10.195  1.00  0.00    -0.273 OA
HETATM    3  N1  UNL     1     -23.818  38.602  10.179  1.00  0.00    -0.337 N 
HETATM    4  C5  UNL     1     -25.143  38.492  10.747  1.00  0.00     0.127 C 
HETATM    5  C6  UNL     1     -25.496  37.056  10.449  1.00  0.00     0.022 C 
HETATM    6  C7  UNL     1     -25.129  37.023   8.955  1.00  0.00     0.038 C 
HETATM    7  C8  UNL     1     -23.827  37.838   8.952  1.00  0.00     0.188 C 
ENDROOT
BRANCH   1   8
HETATM    8  C2  UNL     1     -22.938  40.058  12.033  1.00  0.00     0.084 C 
HETATM    9  C1  UNL     1     -23.452  41.464  11.825  1.00  0.00     0.020 C 
BRANCH   8  10
HETATM   10  C3  UNL     1     -21.651  40.103  12.829  1.00  0.00     0.099 C 
HETATM   11  S1  UNL     1     -21.968  40.449  14.577  1.00  0.00    -0.097 SA
ENDBRANCH   8  10
ENDBRANCH   1   8
BRANCH   7  12
HETATM   12  C9  UNL     1     -22.672  36.955   8.778  1.00  0.00     0.196 C 
HETATM   13  O2  UNL     1     -21.924  37.117   7.784  1.00  0.00    -0.646 OA
HETATM   14  O3  UNL     1     -22.361  35.941   9.660  1.00  0.00    -0.646 OA
ENDBRANCH   7  12
TORSDOF 3
ENDMDL
