MODEL 2
REMARK VINA RESULT: -6.120027576      1.024      1.280
REMARK  3 active torsions:
REMARK  status: ('A' for Active; 'I' for Inactive)
REMARK    1  A    between atoms: C2_2  and  C3_3 
REMARK    2  A    between atoms: C2_2  and  C4_5 
REMARK       I    between atoms: C4_5  and  N1_7 
REMARK    3  A    between atoms: C8_11  and  C9_12 
ROOT
HETATM    1  C4  UNL     1     -23.069  39.428  10.963  1.00  0.00     0.225 C 
HETATM    2  O1  UNL     1     -21.821  39.402  11.052  1.00  0.00    -0.273 OA
HETATM    3  N1  UNL     1     -23.696  38.834   9.848  1.00  0.00    -0.337 N 
HETATM    4  C5  UNL     1     -25.127  38.814   9.641  1.00  0.00     0.127 C 
HETATM    5  C6  UNL     1     -25.343  37.439   9.057  1.00  0.00     0.022 C 
HETATM    6  C7  UNL     1     -24.255  37.468   7.968  1.00  0.00     0.038 C 
HETATM    7  C8  UNL     1     -23.104  38.154   8.718  1.00  0.00     0.188 C 
ENDROOT
BRANCH   1   8
HETATM    8  C2  UNL     1     -23.839  40.079  12.030  1.00  0.00     0.084 C 
HETATM    9  C1  UNL     1     -23.559  41.561  12.112  1.00  0.00     0.020 C 
BRANCH   8  10
HETATM   10  C3  UNL     1     -23.577  39.439  13.377  1.00  0.00     0.099 C 
HETATM   11  S1  UNL     1     -22.477  40.460  14.389  1.00  0.00    -0.097 SA
ENDBRANCH   8  10
ENDBRANCH   1   8
BRANCH   7  12
HETATM   12  C9  UNL     1     -22.070  37.178   9.071  1.00  0.00     0.196 C 
HETATM   13  O2  UNL     1     -22.416  36.037   9.461  1.00  0.00    -0.646 OA
HETATM   14  O3  UNL     1     -20.720  37.452   8.997  1.00  0.00    -0.646 OA
ENDBRANCH   7  12
TORSDOF 3
ENDMDL
