MODEL 3
REMARK VINA RESULT: -6.068289855      2.729      4.865
REMARK  3 active torsions:
REMARK  status: ('A' for Active; 'I' for Inactive)
REMARK    1  A    between atoms: C2_2  and  C3_3 
REMARK    2  A    between atoms: C2_2  and  C4_5 
REMARK       I    between atoms: C4_5  and  N1_7 
REMARK    3  A    between atoms: C8_11  and  C9_12 
ROOT
HETATM    1  C4  UNL     1     -22.271  38.517  10.138  1.00  0.00     0.225 C 
HETATM    2  O1  UNL     1     -21.172  38.160   9.659  1.00  0.00    -0.273 OA
HETATM    3  N1  UNL     1     -22.296  39.255  11.340  1.00  0.00    -0.337 N 
HETATM    4  C5  UNL     1     -23.508  39.710  11.984  1.00  0.00     0.127 C 
HETATM    5  C6  UNL     1     -23.104  41.074  12.488  1.00  0.00     0.022 C 
HETATM    6  C7  UNL     1     -21.781  40.694  13.177  1.00  0.00     0.038 C 
HETATM    7  C8  UNL     1     -21.194  39.701  12.164  1.00  0.00     0.188 C 
ENDROOT
BRANCH   1   8
HETATM    8  C2  UNL     1     -23.503  38.153   9.427  1.00  0.00     0.084 C 
HETATM    9  C1  UNL     1     -23.923  36.729   9.708  1.00  0.00     0.020 C 
BRANCH   8  10
HETATM   10  C3  UNL     1     -23.365  38.354   7.933  1.00  0.00     0.099 C 
HETATM   11  S1  UNL     1     -24.941  38.084   7.084  1.00  0.00    -0.097 SA
ENDBRANCH   8  10
ENDBRANCH   1   8
BRANCH   7  12
HETATM   12  C9  UNL     1     -20.093  40.318  11.422  1.00  0.00     0.196 C 
HETATM   13  O2  UNL     1     -18.934  39.857  11.555  1.00  0.00    -0.646 OA
HETATM   14  O3  UNL     1     -20.265  41.394  10.576  1.00  0.00    -0.646 OA
ENDBRANCH   7  12
TORSDOF 3
ENDMDL
