MODEL 2
REMARK VINA RESULT: -7.809931364      1.257      1.630
REMARK  9 active torsions:
REMARK  status: ('A' for Active; 'I' for Inactive)
REMARK    1  A    between atoms: O1_2  and  C2_3 
REMARK    2  A    between atoms: C2_3  and  C3_5 
REMARK    3  A    between atoms: C3_5  and  C4_6 
REMARK    4  A    between atoms: C3_5  and  N1_21 
REMARK    5  A    between atoms: C4_6  and  C5_7 
REMARK    6  A    between atoms: C8_10  and  C9_11 
REMARK    7  A    between atoms: C10_12  and  C11_13 
REMARK       I    between atoms: N1_21  and  C19_23 
REMARK    8  A    between atoms: C19_23  and  C20_25 
REMARK    9  A    between atoms: C20_25  and  C21_26 
REMARK       I    between atoms: N2_30  and  C25_31 
ROOT
HETATM    1  C3  UNL     1       1.379  18.763  -8.520  1.00  0.00     0.188 C 
ENDROOT
BRANCH   1   2
HETATM    2  C2  UNL     1       1.511  19.398  -9.858  1.00  0.00     0.281 C 
HETATM    3  O2  UNL     1       0.581  20.012 -10.438  1.00  0.00    -0.263 OA
BRANCH   2   4
HETATM    4  O1  UNL     1       2.730  19.313 -10.514  1.00  0.00    -0.325 OA
HETATM    5  C1  UNL     1       3.757  20.275 -10.373  1.00  0.00     0.213 C 
ENDBRANCH   2   4
ENDBRANCH   1   2
BRANCH   1   6
HETATM    6  C4  UNL     1       0.024  18.101  -8.468  1.00  0.00     0.074 C 
BRANCH   6   7
HETATM    7  C5  UNL     1       0.087  16.640  -8.581  1.00  0.00    -0.056 A 
HETATM    8  C6  UNL     1      -0.950  15.894  -8.059  1.00  0.00     0.009 A 
HETATM    9  C7  UNL     1      -0.974  14.514  -8.120  1.00  0.00     0.021 A 
HETATM   10  C8  UNL     1       0.057  13.820  -8.717  1.00  0.00     0.018 A 
HETATM   11  C17 UNL     1       1.099  14.573  -9.243  1.00  0.00     0.021 A 
HETATM   12  C18 UNL     1       1.113  15.950  -9.175  1.00  0.00     0.009 A 
BRANCH  10  13
HETATM   13  C9  UNL     1       0.034  12.385  -8.783  1.00  0.00    -0.061 C 
HETATM   14  C10 UNL     1      -0.003  11.180  -8.826  1.00  0.00    -0.061 C 
BRANCH  14  15
HETATM   15  C11 UNL     1      -0.066   9.737  -8.859  1.00  0.00     0.018 A 
HETATM   16  C12 UNL     1      -1.055   9.117  -9.594  1.00  0.00     0.020 A 
HETATM   17  C13 UNL     1      -1.111   7.740  -9.623  1.00  0.00     0.001 A 
HETATM   18  C14 UNL     1      -0.207   6.952  -8.939  1.00  0.00     0.000 A 
HETATM   19  C15 UNL     1       0.784   7.572  -8.205  1.00  0.00     0.001 A 
HETATM   20  C16 UNL     1       0.843   8.959  -8.175  1.00  0.00     0.020 A 
ENDBRANCH  14  15
ENDBRANCH  10  13
ENDBRANCH   6   7
ENDBRANCH   1   6
BRANCH   1  21
HETATM   21  N1  UNL     1       1.545  19.742  -7.467  1.00  0.00    -0.347 N 
HETATM   22  C19 UNL     1       2.009  19.415  -6.165  1.00  0.00     0.218 C 
HETATM   23  O3  UNL     1       2.288  18.213  -5.926  1.00  0.00    -0.274 OA
ATOM     24  H1  UNL     1       1.318  20.715  -7.670  1.00  0.00     0.163 HD
BRANCH  22  25
HETATM   25  C20 UNL     1       2.178  20.403  -5.094  1.00  0.00     0.109 C 
BRANCH  25  26
HETATM   26  C21 UNL     1       1.158  20.305  -4.010  1.00  0.00     0.012 C 
HETATM   27  C22 UNL     1      -0.064  19.536  -4.351  1.00  0.00     0.008 C 
HETATM   28  C23 UNL     1      -0.475  18.462  -3.417  1.00  0.00     0.020 C 
HETATM   29  C24 UNL     1      -0.194  18.697  -1.970  1.00  0.00     0.125 C 
HETATM   30  N2  UNL     1       0.826  19.682  -1.750  1.00  0.00    -0.355 N 
HETATM   31  C25 UNL     1       0.833  20.472  -0.579  1.00  0.00     0.183 C 
HETATM   32  C26 UNL     1       1.850  19.860  -2.740  1.00  0.00     0.130 C 
HETATM   33  N3  UNL     1      -0.384  20.886   0.064  1.00  0.00    -0.064 NA
HETATM   34  N4  UNL     1       1.937  20.854  -0.039  1.00  0.00    -0.374 N 
ATOM     35  H42 UNL     1       2.801  20.560  -0.495  1.00  0.00     0.158 HD
ATOM     36  H41 UNL     1       1.942  21.425   0.806  1.00  0.00     0.158 HD
ENDBRANCH  25  26
ENDBRANCH  22  25
ENDBRANCH   1  21
TORSDOF 9
ENDMDL
