MODEL 15
REMARK VINA RESULT: -7.287103823      7.640     12.937
REMARK  9 active torsions:
REMARK  status: ('A' for Active; 'I' for Inactive)
REMARK    1  A    between atoms: O1_2  and  C2_3 
REMARK    2  A    between atoms: C2_3  and  C3_5 
REMARK    3  A    between atoms: C3_5  and  C4_6 
REMARK    4  A    between atoms: C3_5  and  N1_21 
REMARK    5  A    between atoms: C4_6  and  C5_7 
REMARK    6  A    between atoms: C8_10  and  C9_11 
REMARK    7  A    between atoms: C10_12  and  C11_13 
REMARK       I    between atoms: N1_21  and  C19_23 
REMARK    8  A    between atoms: C19_23  and  C20_25 
REMARK    9  A    between atoms: C20_25  and  C21_26 
REMARK       I    between atoms: N2_30  and  C25_31 
ROOT
HETATM    1  C3  UNL     1      -1.689   7.260  -9.886  1.00  0.00     0.188 C 
ENDROOT
BRANCH   1   2
HETATM    2  C2  UNL     1      -1.129   6.169 -10.727  1.00  0.00     0.281 C 
HETATM    3  O2  UNL     1      -0.767   5.054 -10.278  1.00  0.00    -0.263 OA
BRANCH   2   4
HETATM    4  O1  UNL     1      -0.995   6.386 -12.089  1.00  0.00    -0.325 OA
HETATM    5  C1  UNL     1      -0.742   5.351 -13.020  1.00  0.00     0.213 C 
ENDBRANCH   2   4
ENDBRANCH   1   2
BRANCH   1   6
HETATM    6  C4  UNL     1      -0.636   7.632  -8.872  1.00  0.00     0.074 C 
BRANCH   6   7
HETATM    7  C5  UNL     1      -0.299   9.059  -8.882  1.00  0.00    -0.056 A 
HETATM    8  C6  UNL     1      -0.980   9.892  -9.745  1.00  0.00     0.009 A 
HETATM    9  C7  UNL     1      -0.729  11.248  -9.821  1.00  0.00     0.021 A 
HETATM   10  C8  UNL     1       0.232  11.829  -9.021  1.00  0.00     0.018 A 
HETATM   11  C17 UNL     1       0.918  10.989  -8.152  1.00  0.00     0.021 A 
HETATM   12  C18 UNL     1       0.658   9.637  -8.086  1.00  0.00     0.009 A 
BRANCH  10  13
HETATM   13  C9  UNL     1       0.496  13.240  -9.098  1.00  0.00    -0.061 C 
HETATM   14  C10 UNL     1       0.707  14.424  -9.181  1.00  0.00    -0.061 C 
BRANCH  14  15
HETATM   15  C11 UNL     1       0.953  15.842  -9.305  1.00  0.00     0.018 A 
HETATM   16  C12 UNL     1       1.268  16.371 -10.539  1.00  0.00     0.020 A 
HETATM   17  C13 UNL     1       1.501  17.725 -10.654  1.00  0.00     0.001 A 
HETATM   18  C14 UNL     1       1.431  18.578  -9.570  1.00  0.00     0.000 A 
HETATM   19  C15 UNL     1       1.116  18.049  -8.334  1.00  0.00     0.001 A 
HETATM   20  C16 UNL     1       0.880  16.686  -8.217  1.00  0.00     0.020 A 
ENDBRANCH  14  15
ENDBRANCH  10  13
ENDBRANCH   6   7
ENDBRANCH   1   6
BRANCH   1  21
HETATM   21  N1  UNL     1      -2.925   6.844  -9.257  1.00  0.00    -0.347 N 
HETATM   22  C19 UNL     1      -4.204   7.293  -9.678  1.00  0.00     0.218 C 
HETATM   23  O3  UNL     1      -4.256   8.092 -10.647  1.00  0.00    -0.274 OA
ATOM     24  H1  UNL     1      -2.874   6.194  -8.472  1.00  0.00     0.163 HD
BRANCH  22  25
HETATM   25  C20 UNL     1      -5.459   6.876  -9.043  1.00  0.00     0.109 C 
BRANCH  25  26
HETATM   26  C21 UNL     1      -5.279   5.940  -7.896  1.00  0.00     0.012 C 
HETATM   27  C22 UNL     1      -6.043   6.278  -6.670  1.00  0.00     0.008 C 
HETATM   28  C23 UNL     1      -6.876   5.209  -6.072  1.00  0.00     0.020 C 
HETATM   29  C24 UNL     1      -6.356   3.816  -6.194  1.00  0.00     0.125 C 
HETATM   30  N2  UNL     1      -5.397   3.665  -7.250  1.00  0.00    -0.355 N 
HETATM   31  C25 UNL     1      -4.380   2.687  -7.175  1.00  0.00     0.183 C 
HETATM   32  C26 UNL     1      -5.479   4.526  -8.396  1.00  0.00     0.130 C 
HETATM   33  N3  UNL     1      -3.783   2.309  -5.924  1.00  0.00    -0.064 NA
HETATM   34  N4  UNL     1      -3.947   2.094  -8.231  1.00  0.00    -0.374 N 
ATOM     35  H42 UNL     1      -4.370   2.362  -9.119  1.00  0.00     0.158 HD
ATOM     36  H41 UNL     1      -3.213   1.388  -8.177  1.00  0.00     0.158 HD
ENDBRANCH  25  26
ENDBRANCH  22  25
ENDBRANCH   1  21
TORSDOF 9
ENDMDL
