MODEL 18
REMARK VINA RESULT: -7.218377071      5.293      8.501
REMARK  9 active torsions:
REMARK  status: ('A' for Active; 'I' for Inactive)
REMARK    1  A    between atoms: O1_2  and  C2_3 
REMARK    2  A    between atoms: C2_3  and  C3_5 
REMARK    3  A    between atoms: C3_5  and  C4_6 
REMARK    4  A    between atoms: C3_5  and  N1_21 
REMARK    5  A    between atoms: C4_6  and  C5_7 
REMARK    6  A    between atoms: C8_10  and  C9_11 
REMARK    7  A    between atoms: C10_12  and  C11_13 
REMARK       I    between atoms: N1_21  and  C19_23 
REMARK    8  A    between atoms: C19_23  and  C20_25 
REMARK    9  A    between atoms: C20_25  and  C21_26 
REMARK       I    between atoms: N2_30  and  C25_31 
ROOT
HETATM    1  C3  UNL     1      -0.160  12.556  -9.292  1.00  0.00     0.188 C 
ENDROOT
BRANCH   1   2
HETATM    2  C2  UNL     1      -0.455  13.794  -8.524  1.00  0.00     0.281 C 
HETATM    3  O2  UNL     1      -1.418  13.912  -7.727  1.00  0.00    -0.263 OA
BRANCH   2   4
HETATM    4  O1  UNL     1       0.378  14.890  -8.691  1.00  0.00    -0.325 OA
HETATM    5  C1  UNL     1      -0.076  16.228  -8.624  1.00  0.00     0.213 C 
ENDBRANCH   2   4
ENDBRANCH   1   2
BRANCH   1   6
HETATM    6  C4  UNL     1       0.554  11.608  -8.360  1.00  0.00     0.074 C 
BRANCH   6   7
HETATM    7  C5  UNL     1       0.254  10.197  -8.626  1.00  0.00    -0.056 A 
HETATM    8  C6  UNL     1      -0.757   9.894  -9.513  1.00  0.00     0.009 A 
HETATM    9  C7  UNL     1      -1.108   8.594  -9.823  1.00  0.00     0.021 A 
HETATM   10  C8  UNL     1      -0.444   7.532  -9.244  1.00  0.00     0.018 A 
HETATM   11  C17 UNL     1       0.574   7.840  -8.351  1.00  0.00     0.021 A 
HETATM   12  C18 UNL     1       0.914   9.141  -8.050  1.00  0.00     0.009 A 
BRANCH  10  13
HETATM   13  C9  UNL     1      -0.806   6.179  -9.565  1.00  0.00    -0.061 C 
HETATM   14  C10 UNL     1      -1.111   5.048  -9.854  1.00  0.00    -0.061 C 
BRANCH  14  15
HETATM   15  C11 UNL     1      -1.480   3.702 -10.224  1.00  0.00     0.018 A 
HETATM   16  C12 UNL     1      -2.299   2.969  -9.390  1.00  0.00     0.020 A 
HETATM   17  C13 UNL     1      -2.650   1.685  -9.747  1.00  0.00     0.001 A 
HETATM   18  C14 UNL     1      -2.208   1.100 -10.918  1.00  0.00     0.000 A 
HETATM   19  C15 UNL     1      -1.389   1.833 -11.753  1.00  0.00     0.001 A 
HETATM   20  C16 UNL     1      -1.036   3.127 -11.395  1.00  0.00     0.020 A 
ENDBRANCH  14  15
ENDBRANCH  10  13
ENDBRANCH   6   7
ENDBRANCH   1   6
BRANCH   1  21
HETATM   21  N1  UNL     1       0.628  12.855 -10.469  1.00  0.00    -0.347 N 
HETATM   22  C19 UNL     1       0.078  12.934 -11.776  1.00  0.00     0.218 C 
HETATM   23  O3  UNL     1      -1.156  12.735 -11.906  1.00  0.00    -0.274 OA
ATOM     24  H1  UNL     1       1.628  13.017 -10.355  1.00  0.00     0.163 HD
BRANCH  22  25
HETATM   25  C20 UNL     1       0.871  13.236 -12.972  1.00  0.00     0.109 C 
BRANCH  25  26
HETATM   26  C21 UNL     1       0.793  14.658 -13.412  1.00  0.00     0.012 C 
HETATM   27  C22 UNL     1      -0.293  14.970 -14.375  1.00  0.00     0.008 C 
HETATM   28  C23 UNL     1      -1.190  16.102 -14.045  1.00  0.00     0.020 C 
HETATM   29  C24 UNL     1      -0.572  17.247 -13.313  1.00  0.00     0.125 C 
HETATM   30  N2  UNL     1       0.644  16.892 -12.640  1.00  0.00    -0.355 N 
HETATM   31  C25 UNL     1       1.660  17.848 -12.421  1.00  0.00     0.183 C 
HETATM   32  C26 UNL     1       0.821  15.542 -12.184  1.00  0.00     0.130 C 
HETATM   33  N3  UNL     1       1.920  18.905 -13.359  1.00  0.00    -0.064 NA
HETATM   34  N4  UNL     1       2.398  17.808 -11.367  1.00  0.00    -0.374 N 
ATOM     35  H42 UNL     1       2.214  17.057 -10.702  1.00  0.00     0.158 HD
ATOM     36  H41 UNL     1       3.132  18.498 -11.210  1.00  0.00     0.158 HD
ENDBRANCH  25  26
ENDBRANCH  22  25
ENDBRANCH   1  21
TORSDOF 9
ENDMDL
