MODEL 4
REMARK VINA RESULT: -7.759954171      1.341      1.879
REMARK  9 active torsions:
REMARK  status: ('A' for Active; 'I' for Inactive)
REMARK    1  A    between atoms: O1_2  and  C2_3 
REMARK    2  A    between atoms: C2_3  and  C3_5 
REMARK    3  A    between atoms: C3_5  and  C4_6 
REMARK    4  A    between atoms: C3_5  and  N1_21 
REMARK    5  A    between atoms: C4_6  and  C5_7 
REMARK    6  A    between atoms: C8_10  and  C9_11 
REMARK    7  A    between atoms: C10_12  and  C11_13 
REMARK       I    between atoms: N1_21  and  C19_23 
REMARK    8  A    between atoms: C19_23  and  C20_25 
REMARK    9  A    between atoms: C20_25  and  C21_26 
REMARK       I    between atoms: N2_30  and  C25_31 
ROOT
HETATM    1  C3  UNL     1       1.430  18.545  -8.485  1.00  0.00     0.188 C 
ENDROOT
BRANCH   1   2
HETATM    2  C2  UNL     1       1.671  19.086  -9.848  1.00  0.00     0.281 C 
HETATM    3  O2  UNL     1       2.762  19.586 -10.221  1.00  0.00    -0.263 OA
BRANCH   2   4
HETATM    4  O1  UNL     1       0.638  19.041 -10.771  1.00  0.00    -0.325 OA
HETATM    5  C1  UNL     1       0.780  18.508 -12.073  1.00  0.00     0.213 C 
ENDBRANCH   2   4
ENDBRANCH   1   2
BRANCH   1   6
HETATM    6  C4  UNL     1       0.067  17.897  -8.493  1.00  0.00     0.074 C 
BRANCH   6   7
HETATM    7  C5  UNL     1       0.119  16.436  -8.602  1.00  0.00    -0.056 A 
HETATM    8  C6  UNL     1      -0.931  15.699  -8.095  1.00  0.00     0.009 A 
HETATM    9  C7  UNL     1      -0.966  14.319  -8.153  1.00  0.00     0.021 A 
HETATM   10  C8  UNL     1       0.069  13.616  -8.733  1.00  0.00     0.018 A 
HETATM   11  C17 UNL     1       1.125  14.359  -9.244  1.00  0.00     0.021 A 
HETATM   12  C18 UNL     1       1.149  15.736  -9.178  1.00  0.00     0.009 A 
BRANCH  10  13
HETATM   13  C9  UNL     1       0.035  12.180  -8.796  1.00  0.00    -0.061 C 
HETATM   14  C10 UNL     1      -0.012  10.977  -8.856  1.00  0.00    -0.061 C 
BRANCH  14  15
HETATM   15  C11 UNL     1      -0.095   9.536  -8.931  1.00  0.00     0.018 A 
HETATM   16  C12 UNL     1       0.816   8.767  -8.238  1.00  0.00     0.020 A 
HETATM   17  C13 UNL     1       0.734   7.393  -8.312  1.00  0.00     0.001 A 
HETATM   18  C14 UNL     1      -0.235   6.753  -9.060  1.00  0.00     0.000 A 
HETATM   19  C15 UNL     1      -1.148   7.523  -9.753  1.00  0.00     0.001 A 
HETATM   20  C16 UNL     1      -1.067   8.907  -9.679  1.00  0.00     0.020 A 
ENDBRANCH  14  15
ENDBRANCH  10  13
ENDBRANCH   6   7
ENDBRANCH   1   6
BRANCH   1  21
HETATM   21  N1  UNL     1       1.526  19.593  -7.490  1.00  0.00    -0.347 N 
HETATM   22  C19 UNL     1       1.971  19.367  -6.161  1.00  0.00     0.218 C 
HETATM   23  O3  UNL     1       2.298  18.196  -5.843  1.00  0.00    -0.274 OA
ATOM     24  H1  UNL     1       1.260  20.540  -7.758  1.00  0.00     0.163 HD
BRANCH  22  25
HETATM   25  C20 UNL     1       2.069  20.425  -5.149  1.00  0.00     0.109 C 
BRANCH  25  26
HETATM   26  C21 UNL     1       1.071  20.307  -4.048  1.00  0.00     0.012 C 
HETATM   27  C22 UNL     1      -0.152  19.535  -4.375  1.00  0.00     0.008 C 
HETATM   28  C23 UNL     1      -0.538  18.446  -3.446  1.00  0.00     0.020 C 
HETATM   29  C24 UNL     1      -0.231  18.666  -2.002  1.00  0.00     0.125 C 
HETATM   30  N2  UNL     1       0.786  19.655  -1.789  1.00  0.00    -0.355 N 
HETATM   31  C25 UNL     1       0.811  20.431  -0.609  1.00  0.00     0.183 C 
HETATM   32  C26 UNL     1       1.790  19.852  -2.796  1.00  0.00     0.130 C 
HETATM   33  N3  UNL     1      -0.396  20.828   0.062  1.00  0.00    -0.064 NA
HETATM   34  N4  UNL     1       1.923  20.813  -0.086  1.00  0.00    -0.374 N 
ATOM     35  H42 UNL     1       2.779  20.531  -0.562  1.00  0.00     0.158 HD
ATOM     36  H41 UNL     1       1.941  21.373   0.766  1.00  0.00     0.158 HD
ENDBRANCH  25  26
ENDBRANCH  22  25
ENDBRANCH   1  21
TORSDOF 9
ENDMDL
