MODEL 1
REMARK VINA RESULT: -7.884051856      0.000      0.000
REMARK  9 active torsions:
REMARK  status: ('A' for Active; 'I' for Inactive)
REMARK    1  A    between atoms: O1_2  and  C2_3 
REMARK    2  A    between atoms: C2_3  and  C3_5 
REMARK    3  A    between atoms: C3_5  and  C4_6 
REMARK    4  A    between atoms: C3_5  and  N1_21 
REMARK    5  A    between atoms: C4_6  and  C5_7 
REMARK    6  A    between atoms: C8_10  and  C9_11 
REMARK    7  A    between atoms: C10_12  and  C11_13 
REMARK       I    between atoms: N1_21  and  C19_23 
REMARK    8  A    between atoms: C19_23  and  C20_25 
REMARK    9  A    between atoms: C20_25  and  C21_26 
REMARK       I    between atoms: N2_30  and  C25_31 
ROOT
HETATM    1  C3  UNL     1       0.716  18.862  -8.408  1.00  0.00     0.188 C 
ENDROOT
BRANCH   1   2
HETATM    2  C2  UNL     1       0.330  20.297  -8.461  1.00  0.00     0.281 C 
HETATM    3  O2  UNL     1       0.860  21.138  -9.230  1.00  0.00    -0.263 OA
BRANCH   2   4
HETATM    4  O1  UNL     1      -0.674  20.743  -7.616  1.00  0.00    -0.325 OA
HETATM    5  C1  UNL     1      -0.482  21.757  -6.648  1.00  0.00     0.213 C 
ENDBRANCH   2   4
ENDBRANCH   1   2
BRANCH   1   6
HETATM    6  C4  UNL     1      -0.244  18.105  -9.292  1.00  0.00     0.074 C 
BRANCH   6   7
HETATM    7  C5  UNL     1      -0.091  16.649  -9.202  1.00  0.00    -0.056 A 
HETATM    8  C6  UNL     1      -1.159  15.900  -8.753  1.00  0.00     0.009 A 
HETATM    9  C7  UNL     1      -1.104  14.525  -8.636  1.00  0.00     0.021 A 
HETATM   10  C8  UNL     1       0.044  13.838  -8.972  1.00  0.00     0.018 A 
HETATM   11  C17 UNL     1       1.118  14.593  -9.425  1.00  0.00     0.021 A 
HETATM   12  C18 UNL     1       1.051  15.966  -9.536  1.00  0.00     0.009 A 
BRANCH  10  13
HETATM   13  C9  UNL     1       0.103  12.407  -8.853  1.00  0.00    -0.061 C 
HETATM   14  C10 UNL     1       0.135  11.205  -8.760  1.00  0.00    -0.061 C 
BRANCH  14  15
HETATM   15  C11 UNL     1       0.147   9.764  -8.655  1.00  0.00     0.018 A 
HETATM   16  C12 UNL     1      -0.726   9.020  -9.423  1.00  0.00     0.020 A 
HETATM   17  C13 UNL     1      -0.711   7.646  -9.320  1.00  0.00     0.001 A 
HETATM   18  C14 UNL     1       0.151   6.980  -8.471  1.00  0.00     0.000 A 
HETATM   19  C15 UNL     1       1.024   7.724  -7.703  1.00  0.00     0.001 A 
HETATM   20  C16 UNL     1       1.011   9.109  -7.806  1.00  0.00     0.020 A 
ENDBRANCH  14  15
ENDBRANCH  10  13
ENDBRANCH   6   7
ENDBRANCH   1   6
BRANCH   1  21
HETATM   21  N1  UNL     1       0.698  18.374  -7.045  1.00  0.00    -0.347 N 
HETATM   22  C19 UNL     1       1.707  18.680  -6.094  1.00  0.00     0.218 C 
HETATM   23  O3  UNL     1       2.658  19.413  -6.463  1.00  0.00    -0.274 OA
ATOM     24  H1  UNL     1      -0.078  17.780  -6.754  1.00  0.00     0.163 HD
BRANCH  22  25
HETATM   25  C20 UNL     1       1.694  18.187  -4.713  1.00  0.00     0.109 C 
BRANCH  25  26
HETATM   26  C21 UNL     1       1.023  19.103  -3.746  1.00  0.00     0.012 C 
HETATM   27  C22 UNL     1      -0.454  19.182  -3.862  1.00  0.00     0.008 C 
HETATM   28  C23 UNL     1      -1.245  18.976  -2.625  1.00  0.00     0.020 C 
HETATM   29  C24 UNL     1      -0.628  19.460  -1.355  1.00  0.00     0.125 C 
HETATM   30  N2  UNL     1       0.794  19.618  -1.446  1.00  0.00    -0.355 N 
HETATM   31  C25 UNL     1       1.472  20.574  -0.657  1.00  0.00     0.183 C 
HETATM   32  C26 UNL     1       1.533  18.788  -2.356  1.00  0.00     0.130 C 
HETATM   33  N3  UNL     1       0.868  21.829  -0.303  1.00  0.00    -0.064 NA
HETATM   34  N4  UNL     1       2.663  20.356  -0.222  1.00  0.00    -0.374 N 
ATOM     35  H42 UNL     1       3.091  19.465  -0.473  1.00  0.00     0.158 HD
ATOM     36  H41 UNL     1       3.152  21.046   0.347  1.00  0.00     0.158 HD
ENDBRANCH  25  26
ENDBRANCH  22  25
ENDBRANCH   1  21
TORSDOF 9
ENDMDL
