MODEL 3
REMARK VINA RESULT: -7.807186602      1.387      2.122
REMARK  9 active torsions:
REMARK  status: ('A' for Active; 'I' for Inactive)
REMARK    1  A    between atoms: O1_2  and  C2_3 
REMARK    2  A    between atoms: C2_3  and  C3_5 
REMARK    3  A    between atoms: C3_5  and  C4_6 
REMARK    4  A    between atoms: C3_5  and  N1_21 
REMARK    5  A    between atoms: C4_6  and  C5_7 
REMARK    6  A    between atoms: C8_10  and  C9_11 
REMARK    7  A    between atoms: C10_12  and  C11_13 
REMARK       I    between atoms: N1_21  and  C19_23 
REMARK    8  A    between atoms: C19_23  and  C20_25 
REMARK    9  A    between atoms: C20_25  and  C21_26 
REMARK       I    between atoms: N2_30  and  C25_31 
ROOT
HETATM    1  C3  UNL     1       1.732  18.765  -8.417  1.00  0.00     0.188 C 
ENDROOT
BRANCH   1   2
HETATM    2  C2  UNL     1       2.175  19.313  -9.726  1.00  0.00     0.281 C 
HETATM    3  O2  UNL     1       1.524  19.191 -10.794  1.00  0.00    -0.263 OA
BRANCH   2   4
HETATM    4  O1  UNL     1       3.377  20.002  -9.782  1.00  0.00    -0.325 OA
HETATM    5  C1  UNL     1       4.197  20.041 -10.934  1.00  0.00     0.213 C 
ENDBRANCH   2   4
ENDBRANCH   1   2
BRANCH   1   6
HETATM    6  C4  UNL     1       0.303  18.307  -8.582  1.00  0.00     0.074 C 
BRANCH   6   7
HETATM    7  C5  UNL     1       0.160  16.848  -8.595  1.00  0.00    -0.056 A 
HETATM    8  C6  UNL     1       1.159  16.092  -9.173  1.00  0.00     0.009 A 
HETATM    9  C7  UNL     1       1.107  14.713  -9.230  1.00  0.00     0.021 A 
HETATM   10  C8  UNL     1       0.033  14.029  -8.699  1.00  0.00     0.018 A 
HETATM   11  C17 UNL     1      -0.971  14.791  -8.117  1.00  0.00     0.021 A 
HETATM   12  C18 UNL     1      -0.909  16.168  -8.068  1.00  0.00     0.009 A 
BRANCH  10  13
HETATM   13  C9  UNL     1      -0.022  12.594  -8.757  1.00  0.00    -0.061 C 
HETATM   14  C10 UNL     1      -0.057  11.389  -8.789  1.00  0.00    -0.061 C 
BRANCH  14  15
HETATM   15  C11 UNL     1      -0.079   9.945  -8.809  1.00  0.00     0.018 A 
HETATM   16  C12 UNL     1       0.802   9.241  -8.015  1.00  0.00     0.020 A 
HETATM   17  C13 UNL     1       0.778   7.863  -8.037  1.00  0.00     0.001 A 
HETATM   18  C14 UNL     1      -0.102   7.155  -8.832  1.00  0.00     0.000 A 
HETATM   19  C15 UNL     1      -0.984   7.859  -9.628  1.00  0.00     0.001 A 
HETATM   20  C16 UNL     1      -0.962   9.247  -9.605  1.00  0.00     0.020 A 
ENDBRANCH  14  15
ENDBRANCH  10  13
ENDBRANCH   6   7
ENDBRANCH   1   6
BRANCH   1  21
HETATM   21  N1  UNL     1       1.866  19.757  -7.371  1.00  0.00    -0.347 N 
HETATM   22  C19 UNL     1       2.163  19.432  -6.022  1.00  0.00     0.218 C 
HETATM   23  O3  UNL     1       2.317  18.219  -5.731  1.00  0.00    -0.274 OA
ATOM     24  H1  UNL     1       1.740  20.739  -7.616  1.00  0.00     0.163 HD
BRANCH  22  25
HETATM   25  C20 UNL     1       2.298  20.433  -4.958  1.00  0.00     0.109 C 
BRANCH  25  26
HETATM   26  C21 UNL     1       1.242  20.352  -3.908  1.00  0.00     0.012 C 
HETATM   27  C22 UNL     1       0.030  19.581  -4.281  1.00  0.00     0.008 C 
HETATM   28  C23 UNL     1      -0.415  18.521  -3.346  1.00  0.00     0.020 C 
HETATM   29  C24 UNL     1      -0.183  18.776  -1.894  1.00  0.00     0.125 C 
HETATM   30  N2  UNL     1       0.831  19.762  -1.652  1.00  0.00    -0.355 N 
HETATM   31  C25 UNL     1       0.800  20.568  -0.493  1.00  0.00     0.183 C 
HETATM   32  C26 UNL     1       1.889  19.924  -2.609  1.00  0.00     0.130 C 
HETATM   33  N3  UNL     1      -0.438  20.993   0.102  1.00  0.00    -0.064 NA
HETATM   34  N4  UNL     1       1.886  20.956   0.079  1.00  0.00    -0.374 N 
ATOM     35  H42 UNL     1       2.764  20.654  -0.343  1.00  0.00     0.158 HD
ATOM     36  H41 UNL     1       1.863  21.538   0.916  1.00  0.00     0.158 HD
ENDBRANCH  25  26
ENDBRANCH  22  25
ENDBRANCH   1  21
TORSDOF 9
ENDMDL
