MODEL 19
REMARK VINA RESULT: -7.208731874      5.114     10.394
REMARK  9 active torsions:
REMARK  status: ('A' for Active; 'I' for Inactive)
REMARK    1  A    between atoms: O1_2  and  C2_3 
REMARK    2  A    between atoms: C2_3  and  C3_5 
REMARK    3  A    between atoms: C3_5  and  C4_6 
REMARK    4  A    between atoms: C3_5  and  N1_21 
REMARK    5  A    between atoms: C4_6  and  C5_7 
REMARK    6  A    between atoms: C8_10  and  C9_11 
REMARK    7  A    between atoms: C10_12  and  C11_13 
REMARK       I    between atoms: N1_21  and  C19_23 
REMARK    8  A    between atoms: C19_23  and  C20_25 
REMARK    9  A    between atoms: C20_25  and  C21_26 
REMARK       I    between atoms: N2_30  and  C25_31 
ROOT
HETATM    1  C3  UNL     1      -0.569  14.185 -12.385  1.00  0.00     0.188 C 
ENDROOT
BRANCH   1   2
HETATM    2  C2  UNL     1       0.105  13.513 -13.527  1.00  0.00     0.281 C 
HETATM    3  O2  UNL     1      -0.496  13.093 -14.548  1.00  0.00    -0.263 OA
BRANCH   2   4
HETATM    4  O1  UNL     1       1.478  13.334 -13.473  1.00  0.00    -0.325 OA
HETATM    5  C1  UNL     1       2.251  12.903 -14.577  1.00  0.00     0.213 C 
ENDBRANCH   2   4
ENDBRANCH   1   2
BRANCH   1   6
HETATM    6  C4  UNL     1       0.026  15.566 -12.261  1.00  0.00     0.074 C 
BRANCH   6   7
HETATM    7  C5  UNL     1      -0.018  16.096 -10.894  1.00  0.00    -0.056 A 
HETATM    8  C6  UNL     1       1.148  16.115 -10.157  1.00  0.00     0.009 A 
HETATM    9  C7  UNL     1       1.199  16.597  -8.863  1.00  0.00     0.021 A 
HETATM   10  C8  UNL     1       0.064  17.085  -8.251  1.00  0.00     0.018 A 
HETATM   11  C17 UNL     1      -1.108  17.066  -8.995  1.00  0.00     0.021 A 
HETATM   12  C18 UNL     1      -1.148  16.581 -10.285  1.00  0.00     0.009 A 
BRANCH  10  13
HETATM   13  C9  UNL     1       0.115  17.587  -6.905  1.00  0.00    -0.061 C 
HETATM   14  C10 UNL     1       0.158  17.989  -5.769  1.00  0.00    -0.061 C 
BRANCH  14  15
HETATM   15  C11 UNL     1       0.206  18.446  -4.399  1.00  0.00     0.018 A 
HETATM   16  C12 UNL     1      -0.955  18.481  -3.655  1.00  0.00     0.020 A 
HETATM   17  C13 UNL     1      -0.906  18.918  -2.348  1.00  0.00     0.001 A 
HETATM   18  C14 UNL     1       0.272  19.325  -1.752  1.00  0.00     0.000 A 
HETATM   19  C15 UNL     1       1.434  19.289  -2.497  1.00  0.00     0.001 A 
HETATM   20  C16 UNL     1       1.386  18.849  -3.813  1.00  0.00     0.020 A 
ENDBRANCH  14  15
ENDBRANCH  10  13
ENDBRANCH   6   7
ENDBRANCH   1   6
BRANCH   1  21
HETATM   21  N1  UNL     1      -0.411  13.415 -11.169  1.00  0.00    -0.347 N 
HETATM   22  C19 UNL     1      -1.456  12.649 -10.590  1.00  0.00     0.218 C 
HETATM   23  O3  UNL     1      -2.571  12.643 -11.172  1.00  0.00    -0.274 OA
ATOM     24  H1  UNL     1       0.497  13.425 -10.704  1.00  0.00     0.163 HD
BRANCH  22  25
HETATM   25  C20 UNL     1      -1.302  11.868  -9.358  1.00  0.00     0.109 C 
BRANCH  25  26
HETATM   26  C21 UNL     1      -0.676  10.530  -9.559  1.00  0.00     0.012 C 
HETATM   27  C22 UNL     1       0.572  10.287  -8.793  1.00  0.00     0.008 C 
HETATM   28  C23 UNL     1       0.641   9.050  -7.981  1.00  0.00     0.020 C 
HETATM   29  C24 UNL     1      -0.073   7.858  -8.526  1.00  0.00     0.125 C 
HETATM   30  N2  UNL     1      -1.085   8.199  -9.484  1.00  0.00    -0.355 N 
HETATM   31  C25 UNL     1      -1.438   7.304 -10.518  1.00  0.00     0.183 C 
HETATM   32  C26 UNL     1      -1.743   9.471  -9.382  1.00  0.00     0.130 C 
HETATM   33  N3  UNL     1      -0.474   6.430 -11.126  1.00  0.00    -0.064 NA
HETATM   34  N4  UNL     1      -2.646   7.238 -10.958  1.00  0.00    -0.374 N 
ATOM     35  H42 UNL     1      -3.330   7.858 -10.527  1.00  0.00     0.158 HD
ATOM     36  H41 UNL     1      -2.901   6.592 -11.705  1.00  0.00     0.158 HD
ENDBRANCH  25  26
ENDBRANCH  22  25
ENDBRANCH   1  21
TORSDOF 9
ENDMDL
