MODEL 5
REMARK VINA RESULT: -7.664099391      1.301      1.925
REMARK  9 active torsions:
REMARK  status: ('A' for Active; 'I' for Inactive)
REMARK    1  A    between atoms: O1_2  and  C2_3 
REMARK    2  A    between atoms: C2_3  and  C3_5 
REMARK    3  A    between atoms: C3_5  and  C4_6 
REMARK    4  A    between atoms: C3_5  and  N1_21 
REMARK    5  A    between atoms: C4_6  and  C5_7 
REMARK    6  A    between atoms: C8_10  and  C9_11 
REMARK    7  A    between atoms: C10_12  and  C11_13 
REMARK       I    between atoms: N1_21  and  C19_23 
REMARK    8  A    between atoms: C19_23  and  C20_25 
REMARK    9  A    between atoms: C20_25  and  C21_26 
REMARK       I    between atoms: N2_30  and  C25_31 
ROOT
HETATM    1  C3  UNL     1       1.025  18.677  -7.641  1.00  0.00     0.188 C 
ENDROOT
BRANCH   1   2
HETATM    2  C2  UNL     1       1.484  19.992  -8.161  1.00  0.00     0.281 C 
HETATM    3  O2  UNL     1       0.778  20.752  -8.869  1.00  0.00    -0.263 OA
BRANCH   2   4
HETATM    4  O1  UNL     1       2.768  20.414  -7.850  1.00  0.00    -0.325 OA
HETATM    5  C1  UNL     1       3.044  21.606  -7.141  1.00  0.00     0.213 C 
ENDBRANCH   2   4
ENDBRANCH   1   2
BRANCH   1   6
HETATM    6  C4  UNL     1       0.079  18.096  -8.663  1.00  0.00     0.074 C 
BRANCH   6   7
HETATM    7  C5  UNL     1       0.136  16.632  -8.741  1.00  0.00    -0.056 A 
HETATM    8  C6  UNL     1      -0.899  15.902  -8.195  1.00  0.00     0.009 A 
HETATM    9  C7  UNL     1      -0.928  14.521  -8.223  1.00  0.00     0.021 A 
HETATM   10  C8  UNL     1       0.098  13.810  -8.810  1.00  0.00     0.018 A 
HETATM   11  C17 UNL     1       1.139  14.547  -9.359  1.00  0.00     0.021 A 
HETATM   12  C18 UNL     1       1.157  15.925  -9.324  1.00  0.00     0.009 A 
BRANCH  10  13
HETATM   13  C9  UNL     1       0.069  12.373  -8.841  1.00  0.00    -0.061 C 
HETATM   14  C10 UNL     1       0.033  11.168  -8.850  1.00  0.00    -0.061 C 
BRANCH  14  15
HETATM   15  C11 UNL     1      -0.022   9.724  -8.839  1.00  0.00     0.018 A 
HETATM   16  C12 UNL     1       0.860   9.017  -8.048  1.00  0.00     0.020 A 
HETATM   17  C13 UNL     1       0.804   7.640  -8.040  1.00  0.00     0.001 A 
HETATM   18  C14 UNL     1      -0.110   6.936  -8.799  1.00  0.00     0.000 A 
HETATM   19  C15 UNL     1      -0.993   7.643  -9.590  1.00  0.00     0.001 A 
HETATM   20  C16 UNL     1      -0.939   9.030  -9.599  1.00  0.00     0.020 A 
ENDBRANCH  14  15
ENDBRANCH  10  13
ENDBRANCH   6   7
ENDBRANCH   1   6
BRANCH   1  21
HETATM   21  N1  UNL     1       0.397  18.826  -6.345  1.00  0.00    -0.347 N 
HETATM   22  C19 UNL     1       1.030  18.465  -5.127  1.00  0.00     0.218 C 
HETATM   23  O3  UNL     1       2.195  17.996  -5.187  1.00  0.00    -0.274 OA
ATOM     24  H1  UNL     1      -0.547  19.209  -6.305  1.00  0.00     0.163 HD
BRANCH  22  25
HETATM   25  C20 UNL     1       0.399  18.613  -3.811  1.00  0.00     0.109 C 
BRANCH  25  26
HETATM   26  C21 UNL     1       0.932  19.747  -3.004  1.00  0.00     0.012 C 
HETATM   27  C22 UNL     1       1.687  20.773  -3.765  1.00  0.00     0.008 C 
HETATM   28  C23 UNL     1       1.283  22.188  -3.584  1.00  0.00     0.020 C 
HETATM   29  C24 UNL     1       0.784  22.567  -2.229  1.00  0.00     0.125 C 
HETATM   30  N2  UNL     1       0.334  21.442  -1.461  1.00  0.00    -0.355 N 
HETATM   31  C25 UNL     1       0.399  21.451  -0.051  1.00  0.00     0.183 C 
HETATM   32  C26 UNL     1      -0.189  20.294  -2.147  1.00  0.00     0.130 C 
HETATM   33  N3  UNL     1       1.454  22.125   0.655  1.00  0.00    -0.064 NA
HETATM   34  N4  UNL     1      -0.490  20.852   0.662  1.00  0.00    -0.374 N 
ATOM     35  H42 UNL     1      -1.239  20.374   0.161  1.00  0.00     0.158 HD
ATOM     36  H41 UNL     1      -0.443  20.859   1.680  1.00  0.00     0.158 HD
ENDBRANCH  25  26
ENDBRANCH  22  25
ENDBRANCH   1  21
TORSDOF 9
ENDMDL
