MODEL 9
REMARK VINA RESULT: -7.198858805      2.606      4.904
REMARK  7 active torsions:
REMARK  status: ('A' for Active; 'I' for Inactive)
REMARK    1  A    between atoms: C2_2  and  C3_4 
REMARK    2  A    between atoms: C3_4  and  O2_5 
REMARK    3  A    between atoms: C3_4  and  C4_7 
REMARK    4  A    between atoms: C4_7  and  O3_8 
REMARK    5  A    between atoms: C4_7  and  C5_10 
REMARK    6  A    between atoms: C5_10  and  O4_11 
REMARK    7  A    between atoms: O4_11  and  P1_12 
ROOT
HETATM    1  C4  UNL     1      31.603   3.065  35.734  1.00  0.00     0.178 C 
ENDROOT
BRANCH   1   2
HETATM    2  C3  UNL     1      30.343   2.233  35.712  1.00  0.00     0.217 C 
BRANCH   2   3
HETATM    3  C2  UNL     1      29.720   2.088  34.346  1.00  0.00     0.154 C 
HETATM    4  C1  UNL     1      29.968   0.912  33.486  1.00  0.00     0.093 C 
HETATM    5  O1  UNL     1      28.979   2.940  33.894  1.00  0.00    -0.295 OA
ENDBRANCH   2   3
BRANCH   2   6
HETATM    6  O2  UNL     1      30.855   0.858  35.959  1.00  0.00    -0.385 OA
ATOM      7  H2  UNL     1      31.506   0.768  35.273  1.00  0.00     0.210 HD
ENDBRANCH   2   6
ENDBRANCH   1   2
BRANCH   1   8
HETATM    8  O3  UNL     1      31.430   3.828  34.542  1.00  0.00    -0.390 OA
ATOM      9  H3  UNL     1      30.972   3.199  33.998  1.00  0.00     0.210 HD
ENDBRANCH   1   8
BRANCH   1  10
HETATM   10  C5  UNL     1      32.870   2.239  35.528  1.00  0.00     0.217 C 
BRANCH  10  11
HETATM   11  O4  UNL     1      33.817   3.139  34.984  1.00  0.00    -0.280 OA
BRANCH  11  12
HETATM   12  P1  UNL     1      34.942   3.576  36.099  1.00  0.00     0.422 P 
HETATM   13  O5  UNL     1      34.571   3.345  37.682  1.00  0.00    -0.617 OA
HETATM   14  O6  UNL     1      34.545   5.005  36.060  1.00  0.00    -0.617 OA
HETATM   15  O7  UNL     1      36.505   3.779  35.589  1.00  0.00    -0.617 OA
ENDBRANCH  11  12
ENDBRANCH  10  11
ENDBRANCH   1  10
TORSDOF 7
ENDMDL
