MODEL 12
REMARK VINA RESULT: -7.109898215      2.870      5.010
REMARK  7 active torsions:
REMARK  status: ('A' for Active; 'I' for Inactive)
REMARK    1  A    between atoms: C2_2  and  C3_4 
REMARK    2  A    between atoms: C3_4  and  O2_5 
REMARK    3  A    between atoms: C3_4  and  C4_7 
REMARK    4  A    between atoms: C4_7  and  O3_8 
REMARK    5  A    between atoms: C4_7  and  C5_10 
REMARK    6  A    between atoms: C5_10  and  O4_11 
REMARK    7  A    between atoms: O4_11  and  P1_12 
ROOT
HETATM    1  C4  UNL     1      31.991   2.971  35.246  1.00  0.00     0.178 C 
ENDROOT
BRANCH   1   2
HETATM    2  C3  UNL     1      31.309   1.672  34.890  1.00  0.00     0.217 C 
BRANCH   2   3
HETATM    3  C2  UNL     1      29.928   1.838  34.307  1.00  0.00     0.154 C 
HETATM    4  C1  UNL     1      29.493   1.122  33.089  1.00  0.00     0.093 C 
HETATM    5  O1  UNL     1      29.106   2.573  34.822  1.00  0.00    -0.295 OA
ENDBRANCH   2   3
BRANCH   2   6
HETATM    6  O2  UNL     1      32.082   1.208  33.708  1.00  0.00    -0.385 OA
ATOM      7  H2  UNL     1      32.088   1.987  33.163  1.00  0.00     0.210 HD
ENDBRANCH   2   6
ENDBRANCH   1   2
BRANCH   1   8
HETATM    8  O3  UNL     1      31.424   3.840  34.269  1.00  0.00    -0.390 OA
ATOM      9  H3  UNL     1      32.172   4.392  34.073  1.00  0.00     0.210 HD
ENDBRANCH   1   8
BRANCH   1  10
HETATM   10  C5  UNL     1      33.494   2.951  34.975  1.00  0.00     0.217 C 
BRANCH  10  11
HETATM   11  O4  UNL     1      33.981   4.179  35.486  1.00  0.00    -0.280 OA
BRANCH  11  12
HETATM   12  P1  UNL     1      35.486   4.011  36.122  1.00  0.00     0.422 P 
HETATM   13  O5  UNL     1      36.700   4.881  35.441  1.00  0.00    -0.617 OA
HETATM   14  O6  UNL     1      35.756   2.762  35.367  1.00  0.00    -0.617 OA
HETATM   15  O7  UNL     1      35.620   3.367  37.643  1.00  0.00    -0.617 OA
ENDBRANCH  11  12
ENDBRANCH  10  11
ENDBRANCH   1  10
TORSDOF 7
ENDMDL
