MODEL 15
REMARK VINA RESULT: -7.071571806      2.414      4.833
REMARK  7 active torsions:
REMARK  status: ('A' for Active; 'I' for Inactive)
REMARK    1  A    between atoms: C2_2  and  C3_4 
REMARK    2  A    between atoms: C3_4  and  O2_5 
REMARK    3  A    between atoms: C3_4  and  C4_7 
REMARK    4  A    between atoms: C4_7  and  O3_8 
REMARK    5  A    between atoms: C4_7  and  C5_10 
REMARK    6  A    between atoms: C5_10  and  O4_11 
REMARK    7  A    between atoms: O4_11  and  P1_12 
ROOT
HETATM    1  C4  UNL     1      30.964   2.463  36.715  1.00  0.00     0.178 C 
ENDROOT
BRANCH   1   2
HETATM    2  C3  UNL     1      29.746   1.940  35.993  1.00  0.00     0.217 C 
BRANCH   2   3
HETATM    3  C2  UNL     1      29.779   2.141  34.498  1.00  0.00     0.154 C 
HETATM    4  C1  UNL     1      29.674   1.015  33.547  1.00  0.00     0.093 C 
HETATM    5  O1  UNL     1      29.890   3.250  34.011  1.00  0.00    -0.295 OA
ENDBRANCH   2   3
BRANCH   2   6
HETATM    6  O2  UNL     1      29.908   0.466  36.103  1.00  0.00    -0.385 OA
ATOM      7  H2  UNL     1      29.013   0.183  36.251  1.00  0.00     0.210 HD
ENDBRANCH   2   6
ENDBRANCH   1   2
BRANCH   1   8
HETATM    8  O3  UNL     1      30.805   3.865  36.511  1.00  0.00    -0.390 OA
ATOM      9  H3  UNL     1      31.714   4.142  36.499  1.00  0.00     0.210 HD
ENDBRANCH   1   8
BRANCH   1  10
HETATM   10  C5  UNL     1      32.276   2.081  36.032  1.00  0.00     0.217 C 
BRANCH  10  11
HETATM   11  O4  UNL     1      33.291   2.683  36.813  1.00  0.00    -0.280 OA
BRANCH  11  12
HETATM   12  P1  UNL     1      34.429   3.400  35.869  1.00  0.00     0.422 P 
HETATM   13  O5  UNL     1      34.724   4.996  36.115  1.00  0.00    -0.617 OA
HETATM   14  O6  UNL     1      33.488   3.594  34.739  1.00  0.00    -0.617 OA
HETATM   15  O7  UNL     1      35.508   2.424  35.075  1.00  0.00    -0.617 OA
ENDBRANCH  11  12
ENDBRANCH  10  11
ENDBRANCH   1  10
TORSDOF 7
ENDMDL
