MODEL 1
REMARK VINA RESULT: -7.397444147      0.000      0.000
REMARK  7 active torsions:
REMARK  status: ('A' for Active; 'I' for Inactive)
REMARK    1  A    between atoms: C2_2  and  C3_4 
REMARK    2  A    between atoms: C3_4  and  O2_5 
REMARK    3  A    between atoms: C3_4  and  C4_7 
REMARK    4  A    between atoms: C4_7  and  O3_8 
REMARK    5  A    between atoms: C4_7  and  C5_10 
REMARK    6  A    between atoms: C5_10  and  O4_11 
REMARK    7  A    between atoms: O4_11  and  P1_12 
ROOT
HETATM    1  C4  UNL     1      32.625   1.782  35.318  1.00  0.00     0.178 C 
ENDROOT
BRANCH   1   2
HETATM    2  C3  UNL     1      33.332   3.110  35.446  1.00  0.00     0.217 C 
BRANCH   2   3
HETATM    3  C2  UNL     1      34.825   3.001  35.628  1.00  0.00     0.154 C 
HETATM    4  C1  UNL     1      35.565   3.831  36.603  1.00  0.00     0.093 C 
HETATM    5  O1  UNL     1      35.488   2.217  34.976  1.00  0.00    -0.295 OA
ENDBRANCH   2   3
BRANCH   2   6
HETATM    6  O2  UNL     1      33.235   3.667  34.071  1.00  0.00    -0.385 OA
ATOM      7  H2  UNL     1      33.473   4.576  34.213  1.00  0.00     0.210 HD
ENDBRANCH   2   6
ENDBRANCH   1   2
BRANCH   1   8
HETATM    8  O3  UNL     1      32.775   1.541  33.921  1.00  0.00    -0.390 OA
ATOM      9  H3  UNL     1      32.533   0.623  33.877  1.00  0.00     0.210 HD
ENDBRANCH   1   8
BRANCH   1  10
HETATM   10  C5  UNL     1      31.123   1.876  35.574  1.00  0.00     0.217 C 
BRANCH  10  11
HETATM   11  O4  UNL     1      30.912   1.208  36.804  1.00  0.00    -0.280 OA
BRANCH  11  12
HETATM   12  P1  UNL     1      30.329   2.231  37.951  1.00  0.00     0.422 P 
HETATM   13  O5  UNL     1      30.141   3.808  37.537  1.00  0.00    -0.617 OA
HETATM   14  O6  UNL     1      31.656   2.401  38.591  1.00  0.00    -0.617 OA
HETATM   15  O7  UNL     1      29.551   1.571  39.257  1.00  0.00    -0.617 OA
ENDBRANCH  11  12
ENDBRANCH  10  11
ENDBRANCH   1  10
TORSDOF 7
ENDMDL
