MODEL 2
REMARK VINA RESULT: -7.356316840      1.531      2.279
REMARK  7 active torsions:
REMARK  status: ('A' for Active; 'I' for Inactive)
REMARK    1  A    between atoms: C2_2  and  C3_4 
REMARK    2  A    between atoms: C3_4  and  O2_5 
REMARK    3  A    between atoms: C3_4  and  C4_7 
REMARK    4  A    between atoms: C4_7  and  O3_8 
REMARK    5  A    between atoms: C4_7  and  C5_10 
REMARK    6  A    between atoms: C5_10  and  O4_11 
REMARK    7  A    between atoms: O4_11  and  P1_12 
ROOT
HETATM    1  C4  UNL     1      31.046   2.729  35.743  1.00  0.00     0.178 C 
ENDROOT
BRANCH   1   2
HETATM    2  C3  UNL     1      32.331   1.976  35.986  1.00  0.00     0.217 C 
BRANCH   2   3
HETATM    3  C2  UNL     1      33.503   2.476  35.178  1.00  0.00     0.154 C 
HETATM    4  C1  UNL     1      34.780   2.880  35.805  1.00  0.00     0.093 C 
HETATM    5  O1  UNL     1      33.446   2.564  33.966  1.00  0.00    -0.295 OA
ENDBRANCH   2   3
BRANCH   2   6
HETATM    6  O2  UNL     1      32.708   2.402  37.360  1.00  0.00    -0.385 OA
ATOM      7  H2  UNL     1      31.861   2.440  37.789  1.00  0.00     0.210 HD
ENDBRANCH   2   6
ENDBRANCH   1   2
BRANCH   1   8
HETATM    8  O3  UNL     1      31.528   4.070  35.730  1.00  0.00    -0.390 OA
ATOM      9  H3  UNL     1      31.552   4.236  34.795  1.00  0.00     0.210 HD
ENDBRANCH   1   8
BRANCH   1  10
HETATM   10  C5  UNL     1      30.070   2.641  36.915  1.00  0.00     0.217 C 
BRANCH  10  11
HETATM   11  O4  UNL     1      30.179   3.884  37.584  1.00  0.00    -0.280 OA
BRANCH  11  12
HETATM   12  P1  UNL     1      29.742   3.758  39.163  1.00  0.00     0.422 P 
HETATM   13  O5  UNL     1      29.933   5.083  40.113  1.00  0.00    -0.617 OA
HETATM   14  O6  UNL     1      31.019   3.110  39.550  1.00  0.00    -0.617 OA
HETATM   15  O7  UNL     1      28.738   2.511  39.594  1.00  0.00    -0.617 OA
ENDBRANCH  11  12
ENDBRANCH  10  11
ENDBRANCH   1  10
TORSDOF 7
ENDMDL
