MODEL 4
REMARK VINA RESULT: -7.315870431      1.473      2.461
REMARK  7 active torsions:
REMARK  status: ('A' for Active; 'I' for Inactive)
REMARK    1  A    between atoms: C2_2  and  C3_4 
REMARK    2  A    between atoms: C3_4  and  O2_5 
REMARK    3  A    between atoms: C3_4  and  C4_7 
REMARK    4  A    between atoms: C4_7  and  O3_8 
REMARK    5  A    between atoms: C4_7  and  C5_10 
REMARK    6  A    between atoms: C5_10  and  O4_11 
REMARK    7  A    between atoms: O4_11  and  P1_12 
ROOT
HETATM    1  C4  UNL     1      31.088   2.586  35.674  1.00  0.00     0.178 C 
ENDROOT
BRANCH   1   2
HETATM    2  C3  UNL     1      32.418   1.935  35.969  1.00  0.00     0.217 C 
BRANCH   2   3
HETATM    3  C2  UNL     1      33.578   2.526  35.209  1.00  0.00     0.154 C 
HETATM    4  C1  UNL     1      34.808   2.993  35.883  1.00  0.00     0.093 C 
HETATM    5  O1  UNL     1      33.551   2.640  33.998  1.00  0.00    -0.295 OA
ENDBRANCH   2   3
BRANCH   2   6
HETATM    6  O2  UNL     1      32.703   2.387  37.357  1.00  0.00    -0.385 OA
ATOM      7  H2  UNL     1      31.944   2.061  37.826  1.00  0.00     0.210 HD
ENDBRANCH   2   6
ENDBRANCH   1   2
BRANCH   1   8
HETATM    8  O3  UNL     1      31.458   3.962  35.709  1.00  0.00    -0.390 OA
ATOM      9  H3  UNL     1      30.613   4.365  35.866  1.00  0.00     0.210 HD
ENDBRANCH   1   8
BRANCH   1  10
HETATM   10  C5  UNL     1      30.065   2.393  36.792  1.00  0.00     0.217 C 
BRANCH  10  11
HETATM   11  O4  UNL     1      29.899   3.675  37.369  1.00  0.00    -0.280 OA
BRANCH  11  12
HETATM   12  P1  UNL     1      29.784   3.587  39.005  1.00  0.00     0.422 P 
HETATM   13  O5  UNL     1      28.373   3.040  39.640  1.00  0.00    -0.617 OA
HETATM   14  O6  UNL     1      29.460   5.029  39.143  1.00  0.00    -0.617 OA
HETATM   15  O7  UNL     1      31.189   3.605  39.885  1.00  0.00    -0.617 OA
ENDBRANCH  11  12
ENDBRANCH  10  11
ENDBRANCH   1  10
TORSDOF 7
ENDMDL
