MODEL 3
REMARK VINA RESULT: -6.388634947      1.015      1.630
REMARK  7 active torsions:
REMARK  status: ('A' for Active; 'I' for Inactive)
REMARK    1  A    between atoms: P1_2  and  O4_5 
REMARK    2  A    between atoms: O4_5  and  C1_6 
REMARK    3  A    between atoms: C1_6  and  C2_7 
REMARK    4  A    between atoms: C3_9  and  O6_10 
REMARK    5  A    between atoms: C4_12  and  O7_13 
REMARK    6  A    between atoms: C5_15  and  O8_16 
REMARK    7  A    between atoms: C6_18  and  O9_19 
ROOT
HETATM    1  C2  UNL     1      41.966  41.956  18.201  1.00  0.00     0.180 C 
HETATM    2  O5  UNL     1      43.217  41.612  18.604  1.00  0.00    -0.349 OA
HETATM    3  C3  UNL     1      43.591  40.317  18.586  1.00  0.00     0.288 C 
HETATM    4  C4  UNL     1      42.667  39.292  18.076  1.00  0.00     0.204 C 
HETATM    5  C5  UNL     1      41.232  39.673  17.927  1.00  0.00     0.183 C 
HETATM    6  C6  UNL     1      40.885  40.972  18.591  1.00  0.00     0.180 C 
ENDROOT
BRANCH   1   7
HETATM    7  C1  UNL     1      41.601  43.249  18.927  1.00  0.00     0.217 C 
BRANCH   7   8
HETATM    8  O4  UNL     1      40.302  43.250  19.387  1.00  0.00    -0.280 OA
BRANCH   8   9
HETATM    9  P1  UNL     1      40.149  43.631  21.011  1.00  0.00     0.422 P 
HETATM   10  O1  UNL     1      38.728  43.739  21.477  1.00  0.00    -0.617 OA
HETATM   11  O2  UNL     1      40.937  45.117  21.259  1.00  0.00    -0.617 OA
HETATM   12  O3  UNL     1      40.909  42.490  22.017  1.00  0.00    -0.617 OA
ENDBRANCH   8   9
ENDBRANCH   7   8
ENDBRANCH   1   7
BRANCH   6  13
HETATM   13  O9  UNL     1      39.698  41.434  18.050  1.00  0.00    -0.390 OA
ATOM     14  H9  UNL     1      39.713  42.382  18.110  1.00  0.00     0.210 HD
ENDBRANCH   6  13
BRANCH   3  15
HETATM   15  O6  UNL     1      44.782  40.239  17.840  1.00  0.00    -0.369 OA
ATOM     16  H6  UNL     1      45.349  39.616  18.280  1.00  0.00     0.212 HD
ENDBRANCH   3  15
BRANCH   5  17
HETATM   17  O8  UNL     1      40.363  38.701  18.452  1.00  0.00    -0.390 OA
ATOM     18  H8  UNL     1      39.529  38.680  17.998  1.00  0.00     0.210 HD
ENDBRANCH   5  17
BRANCH   4  19
HETATM   19  O7  UNL     1      42.699  38.161  18.911  1.00  0.00    -0.388 OA
ATOM     20  H7  UNL     1      42.461  38.407  19.798  1.00  0.00     0.210 HD
ENDBRANCH   4  19
TORSDOF 7
ENDMDL
