MODEL 11
REMARK VINA RESULT: -6.113596555      2.313      5.271
REMARK  7 active torsions:
REMARK  status: ('A' for Active; 'I' for Inactive)
REMARK    1  A    between atoms: P1_2  and  O4_5 
REMARK    2  A    between atoms: O4_5  and  C1_6 
REMARK    3  A    between atoms: C1_6  and  C2_7 
REMARK    4  A    between atoms: C3_9  and  O6_10 
REMARK    5  A    between atoms: C4_12  and  O7_13 
REMARK    6  A    between atoms: C5_15  and  O8_16 
REMARK    7  A    between atoms: C6_18  and  O9_19 
ROOT
HETATM    1  C2  UNL     1      40.068  42.128  18.913  1.00  0.00     0.180 C 
HETATM    2  O5  UNL     1      39.781  42.240  20.235  1.00  0.00    -0.349 OA
HETATM    3  C3  UNL     1      39.999  43.410  20.868  1.00  0.00     0.288 C 
HETATM    4  C4  UNL     1      40.490  44.575  20.114  1.00  0.00     0.204 C 
HETATM    5  C5  UNL     1      41.059  44.324  18.757  1.00  0.00     0.183 C 
HETATM    6  C6  UNL     1      41.308  42.873  18.470  1.00  0.00     0.180 C 
ENDROOT
BRANCH   1   7
HETATM    7  C1  UNL     1      40.376  40.657  18.644  1.00  0.00     0.217 C 
BRANCH   7   8
HETATM    8  O4  UNL     1      41.711  40.356  18.808  1.00  0.00    -0.280 OA
BRANCH   8   9
HETATM    9  P1  UNL     1      42.322  39.296  17.663  1.00  0.00     0.422 P 
HETATM   10  O1  UNL     1      41.820  37.891  17.809  1.00  0.00    -0.617 OA
HETATM   11  O2  UNL     1      44.016  39.308  17.817  1.00  0.00    -0.617 OA
HETATM   12  O3  UNL     1      41.962  39.783  16.075  1.00  0.00    -0.617 OA
ENDBRANCH   8   9
ENDBRANCH   7   8
ENDBRANCH   1   7
BRANCH   6  13
HETATM   13  O9  UNL     1      41.415  42.712  17.100  1.00  0.00    -0.390 OA
ATOM     14  H9  UNL     1      41.319  43.572  16.708  1.00  0.00     0.210 HD
ENDBRANCH   6  13
BRANCH   3  15
HETATM   15  O6  UNL     1      38.793  43.776  21.495  1.00  0.00    -0.369 OA
ATOM     16  H6  UNL     1      38.918  44.643  21.862  1.00  0.00     0.212 HD
ENDBRANCH   3  15
BRANCH   5  17
HETATM   17  O8  UNL     1      42.276  44.995  18.555  1.00  0.00    -0.390 OA
ATOM     18  H8  UNL     1      43.026  44.422  18.655  1.00  0.00     0.210 HD
ENDBRANCH   5  17
BRANCH   4  19
HETATM   19  O7  UNL     1      41.486  45.238  20.851  1.00  0.00    -0.388 OA
ATOM     20  H7  UNL     1      42.145  45.587  20.263  1.00  0.00     0.210 HD
ENDBRANCH   4  19
TORSDOF 7
ENDMDL
