MODEL 1
REMARK VINA RESULT: -6.679632120      0.000      0.000
REMARK  7 active torsions:
REMARK  status: ('A' for Active; 'I' for Inactive)
REMARK    1  A    between atoms: P1_2  and  O4_5 
REMARK    2  A    between atoms: O4_5  and  C1_6 
REMARK    3  A    between atoms: C1_6  and  C2_7 
REMARK    4  A    between atoms: C3_9  and  O6_10 
REMARK    5  A    between atoms: C4_12  and  O7_13 
REMARK    6  A    between atoms: C5_15  and  O8_16 
REMARK    7  A    between atoms: C6_18  and  O9_19 
ROOT
HETATM    1  C2  UNL     1      41.698  41.662  17.976  1.00  0.00     0.180 C 
HETATM    2  O5  UNL     1      42.816  42.155  18.567  1.00  0.00    -0.349 OA
HETATM    3  C3  UNL     1      43.844  41.329  18.845  1.00  0.00     0.288 C 
HETATM    4  C4  UNL     1      43.774  39.911  18.456  1.00  0.00     0.204 C 
HETATM    5  C5  UNL     1      42.435  39.366  18.085  1.00  0.00     0.183 C 
HETATM    6  C6  UNL     1      41.298  40.278  18.438  1.00  0.00     0.180 C 
ENDROOT
BRANCH   1   7
HETATM    7  C1  UNL     1      40.537  42.564  18.388  1.00  0.00     0.217 C 
BRANCH   7   8
HETATM    8  O4  UNL     1      39.907  42.128  19.533  1.00  0.00    -0.280 OA
BRANCH   8   9
HETATM    9  P1  UNL     1      40.207  43.070  20.885  1.00  0.00     0.422 P 
HETATM   10  O1  UNL     1      40.885  42.331  22.000  1.00  0.00    -0.617 OA
HETATM   11  O2  UNL     1      38.710  43.664  21.431  1.00  0.00    -0.617 OA
HETATM   12  O3  UNL     1      41.179  44.419  20.529  1.00  0.00    -0.617 OA
ENDBRANCH   8   9
ENDBRANCH   7   8
ENDBRANCH   1   7
BRANCH   6  13
HETATM   13  O9  UNL     1      40.192  39.902  17.694  1.00  0.00    -0.390 OA
ATOM     14  H9  UNL     1      40.514  39.538  16.878  1.00  0.00     0.210 HD
ENDBRANCH   6  13
BRANCH   3  15
HETATM   15  O6  UNL     1      44.996  41.885  18.259  1.00  0.00    -0.369 OA
ATOM     16  H6  UNL     1      45.304  42.571  18.839  1.00  0.00     0.212 HD
ENDBRANCH   3  15
BRANCH   5  17
HETATM   17  O8  UNL     1      42.173  38.129  18.698  1.00  0.00    -0.390 OA
ATOM     18  H8  UNL     1      41.752  38.228  19.544  1.00  0.00     0.210 HD
ENDBRANCH   5  17
BRANCH   4  19
HETATM   19  O7  UNL     1      44.264  39.103  19.497  1.00  0.00    -0.388 OA
ATOM     20  H7  UNL     1      45.209  39.028  19.431  1.00  0.00     0.210 HD
ENDBRANCH   4  19
TORSDOF 7
ENDMDL
