MODEL 12
REMARK VINA RESULT: -6.086834530      2.278      5.277
REMARK  7 active torsions:
REMARK  status: ('A' for Active; 'I' for Inactive)
REMARK    1  A    between atoms: P1_2  and  O4_5 
REMARK    2  A    between atoms: O4_5  and  C1_6 
REMARK    3  A    between atoms: C1_6  and  C2_7 
REMARK    4  A    between atoms: C3_9  and  O6_10 
REMARK    5  A    between atoms: C4_12  and  O7_13 
REMARK    6  A    between atoms: C5_15  and  O8_16 
REMARK    7  A    between atoms: C6_18  and  O9_19 
ROOT
HETATM    1  C2  UNL     1      40.117  42.140  18.901  1.00  0.00     0.180 C 
HETATM    2  O5  UNL     1      39.835  42.237  20.225  1.00  0.00    -0.349 OA
HETATM    3  C3  UNL     1      40.011  43.412  20.861  1.00  0.00     0.288 C 
HETATM    4  C4  UNL     1      40.452  44.597  20.107  1.00  0.00     0.204 C 
HETATM    5  C5  UNL     1      41.021  44.374  18.746  1.00  0.00     0.183 C 
HETATM    6  C6  UNL     1      41.325  42.935  18.453  1.00  0.00     0.180 C 
ENDROOT
BRANCH   1   7
HETATM    7  C1  UNL     1      40.481  40.683  18.624  1.00  0.00     0.217 C 
BRANCH   7   8
HETATM    8  O4  UNL     1      41.808  40.411  18.874  1.00  0.00    -0.280 OA
BRANCH   8   9
HETATM    9  P1  UNL     1      42.532  39.418  17.737  1.00  0.00     0.422 P 
HETATM   10  O1  UNL     1      42.286  39.840  16.319  1.00  0.00    -0.617 OA
HETATM   11  O2  UNL     1      41.919  37.848  17.972  1.00  0.00    -0.617 OA
HETATM   12  O3  UNL     1      44.218  39.329  17.936  1.00  0.00    -0.617 OA
ENDBRANCH   8   9
ENDBRANCH   7   8
ENDBRANCH   1   7
BRANCH   6  13
HETATM   13  O9  UNL     1      41.429  42.782  17.081  1.00  0.00    -0.390 OA
ATOM     14  H9  UNL     1      41.161  43.604  16.687  1.00  0.00     0.210 HD
ENDBRANCH   6  13
BRANCH   3  15
HETATM   15  O6  UNL     1      38.796  43.728  21.497  1.00  0.00    -0.369 OA
ATOM     16  H6  UNL     1      38.097  43.379  20.957  1.00  0.00     0.212 HD
ENDBRANCH   3  15
BRANCH   5  17
HETATM   17  O8  UNL     1      42.210  45.093  18.539  1.00  0.00    -0.390 OA
ATOM     18  H8  UNL     1      42.984  44.575  18.731  1.00  0.00     0.210 HD
ENDBRANCH   5  17
BRANCH   4  19
HETATM   19  O7  UNL     1      41.426  45.297  20.842  1.00  0.00    -0.388 OA
ATOM     20  H7  UNL     1      41.445  46.207  20.569  1.00  0.00     0.210 HD
ENDBRANCH   4  19
TORSDOF 7
ENDMDL
