MODEL 13
REMARK VINA RESULT: -5.904752422      2.519      5.252
REMARK  7 active torsions:
REMARK  status: ('A' for Active; 'I' for Inactive)
REMARK    1  A    between atoms: P1_2  and  O4_5 
REMARK    2  A    between atoms: O4_5  and  C1_6 
REMARK    3  A    between atoms: C1_6  and  C2_7 
REMARK    4  A    between atoms: C3_9  and  O6_10 
REMARK    5  A    between atoms: C4_12  and  O7_13 
REMARK    6  A    between atoms: C5_15  and  O8_16 
REMARK    7  A    between atoms: C6_18  and  O9_19 
ROOT
HETATM    1  C2  UNL     1      42.649  43.625  19.328  1.00  0.00     0.180 C 
HETATM    2  O5  UNL     1      41.677  44.310  18.672  1.00  0.00    -0.349 OA
HETATM    3  C3  UNL     1      40.584  44.724  19.344  1.00  0.00     0.288 C 
HETATM    4  C4  UNL     1      40.477  44.486  20.792  1.00  0.00     0.204 C 
HETATM    5  C5  UNL     1      41.411  43.492  21.396  1.00  0.00     0.183 C 
HETATM    6  C6  UNL     1      42.144  42.664  20.382  1.00  0.00     0.180 C 
ENDROOT
BRANCH   1   7
HETATM    7  C1  UNL     1      43.351  42.744  18.297  1.00  0.00     0.217 C 
BRANCH   7   8
HETATM    8  O4  UNL     1      42.890  41.445  18.308  1.00  0.00    -0.280 OA
BRANCH   8   9
HETATM    9  P1  UNL     1      44.098  40.286  18.265  1.00  0.00     0.422 P 
HETATM   10  O1  UNL     1      43.687  39.007  17.599  1.00  0.00    -0.617 OA
HETATM   11  O2  UNL     1      44.549  39.965  19.873  1.00  0.00    -0.617 OA
HETATM   12  O3  UNL     1      45.490  40.834  17.456  1.00  0.00    -0.617 OA
ENDBRANCH   8   9
ENDBRANCH   7   8
ENDBRANCH   1   7
BRANCH   6  13
HETATM   13  O9  UNL     1      43.254  42.108  20.994  1.00  0.00    -0.390 OA
ATOM     14  H9  UNL     1      43.992  42.246  20.413  1.00  0.00     0.210 HD
ENDBRANCH   6  13
BRANCH   3  15
HETATM   15  O6  UNL     1      40.459  46.108  19.120  1.00  0.00    -0.369 OA
ATOM     16  H6  UNL     1      39.780  46.427  19.703  1.00  0.00     0.212 HD
ENDBRANCH   3  15
BRANCH   5  17
HETATM   17  O8  UNL     1      40.756  42.596  22.258  1.00  0.00    -0.390 OA
ATOM     18  H8  UNL     1      39.813  42.609  22.143  1.00  0.00     0.210 HD
ENDBRANCH   5  17
BRANCH   4  19
HETATM   19  O7  UNL     1      39.175  44.061  21.112  1.00  0.00    -0.388 OA
ATOM     20  H7  UNL     1      38.961  44.318  22.001  1.00  0.00     0.210 HD
ENDBRANCH   4  19
TORSDOF 7
ENDMDL
