MODEL 2
REMARK VINA RESULT: -6.407829685      1.258      1.932
REMARK  7 active torsions:
REMARK  status: ('A' for Active; 'I' for Inactive)
REMARK    1  A    between atoms: P1_2  and  O4_5 
REMARK    2  A    between atoms: O4_5  and  C1_6 
REMARK    3  A    between atoms: C1_6  and  C2_7 
REMARK    4  A    between atoms: C3_9  and  O6_10 
REMARK    5  A    between atoms: C4_12  and  O7_13 
REMARK    6  A    between atoms: C5_15  and  O8_16 
REMARK    7  A    between atoms: C6_18  and  O9_19 
ROOT
HETATM    1  C2  UNL     1      42.645  41.674  18.655  1.00  0.00     0.180 C 
HETATM    2  O5  UNL     1      43.573  40.785  19.092  1.00  0.00    -0.349 OA
HETATM    3  C3  UNL     1      43.564  39.524  18.617  1.00  0.00     0.288 C 
HETATM    4  C4  UNL     1      42.588  39.132  17.587  1.00  0.00     0.204 C 
HETATM    5  C5  UNL     1      41.425  40.040  17.362  1.00  0.00     0.183 C 
HETATM    6  C6  UNL     1      41.269  41.088  18.424  1.00  0.00     0.180 C 
ENDROOT
BRANCH   1   7
HETATM    7  C1  UNL     1      42.452  42.704  19.767  1.00  0.00     0.217 C 
BRANCH   7   8
HETATM    8  O4  UNL     1      41.274  42.522  20.459  1.00  0.00    -0.280 OA
BRANCH   8   9
HETATM    9  P1  UNL     1      40.430  43.936  20.762  1.00  0.00     0.422 P 
HETATM   10  O1  UNL     1      41.127  44.867  21.709  1.00  0.00    -0.617 OA
HETATM   11  O2  UNL     1      38.921  43.496  21.414  1.00  0.00    -0.617 OA
HETATM   12  O3  UNL     1      40.120  44.821  19.344  1.00  0.00    -0.617 OA
ENDBRANCH   8   9
ENDBRANCH   7   8
ENDBRANCH   1   7
BRANCH   6  13
HETATM   13  O9  UNL     1      40.472  42.102  17.921  1.00  0.00    -0.390 OA
ATOM     14  H9  UNL     1      40.146  41.810  17.078  1.00  0.00     0.210 HD
ENDBRANCH   6  13
BRANCH   3  15
HETATM   15  O6  UNL     1      44.853  39.257  18.118  1.00  0.00    -0.369 OA
ATOM     16  H6  UNL     1      44.812  39.342  17.173  1.00  0.00     0.212 HD
ENDBRANCH   3  15
BRANCH   5  17
HETATM   17  O8  UNL     1      40.208  39.343  17.294  1.00  0.00    -0.390 OA
ATOM     18  H8  UNL     1      39.676  39.616  16.555  1.00  0.00     0.210 HD
ENDBRANCH   5  17
BRANCH   4  19
HETATM   19  O7  UNL     1      42.057  37.865  17.887  1.00  0.00    -0.388 OA
ATOM     20  H7  UNL     1      41.369  37.648  17.269  1.00  0.00     0.210 HD
ENDBRANCH   4  19
TORSDOF 7
ENDMDL
