MODEL 6
REMARK VINA RESULT: -6.333568739      1.012      1.203
REMARK  7 active torsions:
REMARK  status: ('A' for Active; 'I' for Inactive)
REMARK    1  A    between atoms: P1_2  and  O4_5 
REMARK    2  A    between atoms: O4_5  and  C1_6 
REMARK    3  A    between atoms: C1_6  and  C2_7 
REMARK    4  A    between atoms: C3_9  and  O6_10 
REMARK    5  A    between atoms: C4_12  and  O7_13 
REMARK    6  A    between atoms: C5_15  and  O8_16 
REMARK    7  A    between atoms: C6_18  and  O9_19 
ROOT
HETATM    1  C2  UNL     1      41.965  41.943  18.163  1.00  0.00     0.180 C 
HETATM    2  O5  UNL     1      43.211  41.611  18.588  1.00  0.00    -0.349 OA
HETATM    3  C3  UNL     1      43.593  40.319  18.593  1.00  0.00     0.288 C 
HETATM    4  C4  UNL     1      42.682  39.281  18.083  1.00  0.00     0.204 C 
HETATM    5  C5  UNL     1      41.247  39.652  17.908  1.00  0.00     0.183 C 
HETATM    6  C6  UNL     1      40.883  40.959  18.550  1.00  0.00     0.180 C 
ENDROOT
BRANCH   1   7
HETATM    7  C1  UNL     1      41.582  43.244  18.865  1.00  0.00     0.217 C 
BRANCH   7   8
HETATM    8  O4  UNL     1      40.324  43.194  19.425  1.00  0.00    -0.280 OA
BRANCH   8   9
HETATM    9  P1  UNL     1      40.277  43.600  21.049  1.00  0.00     0.422 P 
HETATM   10  O1  UNL     1      40.965  42.610  21.941  1.00  0.00    -0.617 OA
HETATM   11  O2  UNL     1      38.640  43.717  21.495  1.00  0.00    -0.617 OA
HETATM   12  O3  UNL     1      40.987  45.114  21.357  1.00  0.00    -0.617 OA
ENDBRANCH   8   9
ENDBRANCH   7   8
ENDBRANCH   1   7
BRANCH   6  13
HETATM   13  O9  UNL     1      39.702  41.407  17.985  1.00  0.00    -0.390 OA
ATOM     14  H9  UNL     1      39.177  41.773  18.687  1.00  0.00     0.210 HD
ENDBRANCH   6  13
BRANCH   3  15
HETATM   15  O6  UNL     1      44.795  40.237  17.866  1.00  0.00    -0.369 OA
ATOM     16  H6  UNL     1      44.744  39.458  17.325  1.00  0.00     0.212 HD
ENDBRANCH   3  15
BRANCH   5  17
HETATM   17  O8  UNL     1      40.376  38.683  18.433  1.00  0.00    -0.390 OA
ATOM     18  H8  UNL     1      39.477  38.987  18.470  1.00  0.00     0.210 HD
ENDBRANCH   5  17
BRANCH   4  19
HETATM   19  O7  UNL     1      42.707  38.162  18.934  1.00  0.00    -0.388 OA
ATOM     20  H7  UNL     1      43.555  37.736  18.883  1.00  0.00     0.210 HD
ENDBRANCH   4  19
TORSDOF 7
ENDMDL
