MODEL 4
REMARK VINA RESULT: -6.368130108      1.057      1.713
REMARK  7 active torsions:
REMARK  status: ('A' for Active; 'I' for Inactive)
REMARK    1  A    between atoms: P1_2  and  O4_5 
REMARK    2  A    between atoms: O4_5  and  C1_6 
REMARK    3  A    between atoms: C1_6  and  C2_7 
REMARK    4  A    between atoms: C3_9  and  O6_10 
REMARK    5  A    between atoms: C4_12  and  O7_13 
REMARK    6  A    between atoms: C5_15  and  O8_16 
REMARK    7  A    between atoms: C6_18  and  O9_19 
ROOT
HETATM    1  C2  UNL     1      42.120  41.966  18.320  1.00  0.00     0.180 C 
HETATM    2  O5  UNL     1      43.333  41.546  18.763  1.00  0.00    -0.349 OA
HETATM    3  C3  UNL     1      43.656  40.239  18.687  1.00  0.00     0.288 C 
HETATM    4  C4  UNL     1      42.718  39.285  18.073  1.00  0.00     0.204 C 
HETATM    5  C5  UNL     1      41.309  39.735  17.877  1.00  0.00     0.183 C 
HETATM    6  C6  UNL     1      40.981  41.008  18.598  1.00  0.00     0.180 C 
ENDROOT
BRANCH   1   7
HETATM    7  C1  UNL     1      41.770  43.230  19.102  1.00  0.00     0.217 C 
BRANCH   7   8
HETATM    8  O4  UNL     1      40.442  43.277  19.467  1.00  0.00    -0.280 OA
BRANCH   8   9
HETATM    9  P1  UNL     1      40.185  43.644  21.081  1.00  0.00     0.422 P 
HETATM   10  O1  UNL     1      40.733  44.977  21.494  1.00  0.00    -0.617 OA
HETATM   11  O2  UNL     1      40.926  42.420  22.002  1.00  0.00    -0.617 OA
HETATM   12  O3  UNL     1      38.535  43.644  21.489  1.00  0.00    -0.617 OA
ENDBRANCH   8   9
ENDBRANCH   7   8
ENDBRANCH   1   7
BRANCH   6  13
HETATM   13  O9  UNL     1      39.843  41.551  18.028  1.00  0.00    -0.390 OA
ATOM     14  H9  UNL     1      39.843  41.303  17.111  1.00  0.00     0.210 HD
ENDBRANCH   6  13
BRANCH   3  15
HETATM   15  O6  UNL     1      44.879  40.152  17.997  1.00  0.00    -0.369 OA
ATOM     16  H6  UNL     1      44.677  40.107  17.070  1.00  0.00     0.212 HD
ENDBRANCH   3  15
BRANCH   5  17
HETATM   17  O8  UNL     1      40.377  38.774  18.300  1.00  0.00    -0.390 OA
ATOM     18  H8  UNL     1      40.766  37.913  18.404  1.00  0.00     0.210 HD
ENDBRANCH   5  17
BRANCH   4  19
HETATM   19  O7  UNL     1      42.662  38.108  18.841  1.00  0.00    -0.388 OA
ATOM     20  H7  UNL     1      42.968  37.371  18.325  1.00  0.00     0.210 HD
ENDBRANCH   4  19
TORSDOF 7
ENDMDL
