MODEL 6
REMARK VINA RESULT: -7.155253196      2.629      4.050
REMARK  13 active torsions:
REMARK  status: ('A' for Active; 'I' for Inactive)
REMARK    1  A    between atoms: O1_2  and  C2_3 
REMARK    2  A    between atoms: C3_5  and  C4_6 
REMARK    3  A    between atoms: C4_6  and  O3_7 
REMARK    4  A    between atoms: C5_9  and  O4_10 
REMARK    5  A    between atoms: C6_12  and  O5_13 
REMARK    6  A    between atoms: O5_13  and  C7_14 
REMARK    7  A    between atoms: C9_16  and  O6_17 
REMARK    8  A    between atoms: O6_17  and  C10_18 
REMARK    9  A    between atoms: C13_22  and  O8_23 
REMARK   10  A    between atoms: C14_25  and  O9_26 
REMARK   11  A    between atoms: C15_28  and  O10_29 
REMARK   12  A    between atoms: C16_31  and  O11_32 
REMARK   13  A    between atoms: C19_37  and  N1_38 
REMARK       I    between atoms: N1_38  and  C20_40 
ROOT
HETATM    1  C7  UNL     1      -8.147  22.959  32.090  1.00  0.00     0.263 C 
HETATM    2  C8  UNL     1      -8.921  24.237  32.174  1.00  0.00     0.095 C 
HETATM    3  C9  UNL     1      -8.665  24.975  33.498  1.00  0.00     0.160 C 
HETATM    4  C16 UNL     1      -7.199  25.075  33.641  1.00  0.00     0.176 C 
HETATM    5  C17 UNL     1      -6.704  23.643  33.770  1.00  0.00     0.151 C 
HETATM    6  C18 UNL     1      -5.217  23.726  34.065  1.00  0.00     0.042 C 
HETATM    7  O12 UNL     1      -6.839  23.056  32.525  1.00  0.00    -0.354 OA
ENDROOT
BRANCH   1   8
HETATM    8  O5  UNL     1      -8.734  21.916  32.787  1.00  0.00    -0.351 OA
BRANCH   8   9
HETATM    9  C6  UNL     1      -9.356  21.065  31.911  1.00  0.00     0.183 C 
HETATM   10  C5  UNL     1      -8.715  19.710  31.843  1.00  0.00     0.180 C 
HETATM   11  C3  UNL     1      -9.493  18.572  32.368  1.00  0.00     0.179 C 
HETATM   12  O2  UNL     1     -10.840  18.579  32.084  1.00  0.00    -0.349 OA
HETATM   13  C2  UNL     1     -11.261  19.696  31.385  1.00  0.00     0.284 C 
HETATM   14  C19 UNL     1     -10.839  20.895  32.212  1.00  0.00     0.171 C 
BRANCH  10  15
HETATM   15  O4  UNL     1      -8.251  19.409  30.549  1.00  0.00    -0.390 OA
ATOM     16  H4  UNL     1      -8.980  19.405  29.941  1.00  0.00     0.210 HD
ENDBRANCH  10  15
BRANCH  11  17
HETATM   17  C4  UNL     1      -9.254  18.332  33.857  1.00  0.00     0.198 C 
BRANCH  17  18
HETATM   18  O3  UNL     1      -8.223  19.190  34.304  1.00  0.00    -0.398 OA
ATOM     19  H3  UNL     1      -8.136  19.107  35.246  1.00  0.00     0.209 HD
ENDBRANCH  17  18
ENDBRANCH  11  17
BRANCH  13  20
HETATM   20  O1  UNL     1     -12.640  19.635  31.230  1.00  0.00    -0.364 OA
HETATM   21  C1  UNL     1     -13.237  18.928  32.270  1.00  0.00     0.204 C 
ENDBRANCH  13  20
BRANCH  14  22
HETATM   22  N1  UNL     1     -11.609  22.074  31.871  1.00  0.00    -0.349 N 
HETATM   23  C20 UNL     1     -12.327  22.791  32.860  1.00  0.00     0.214 C 
HETATM   24  C21 UNL     1     -13.134  24.013  32.552  1.00  0.00     0.117 C 
HETATM   25  O13 UNL     1     -12.273  22.365  34.048  1.00  0.00    -0.274 OA
ATOM     26  H1  UNL     1     -11.634  22.394  30.902  1.00  0.00     0.163 HD
ENDBRANCH  14  22
ENDBRANCH   8   9
ENDBRANCH   1   8
BRANCH   3  27
HETATM   27  O6  UNL     1      -9.421  26.058  33.522  1.00  0.00    -0.350 OA
BRANCH  27  28
HETATM   28  C10 UNL     1     -10.670  26.034  34.078  1.00  0.00     0.292 C 
HETATM   29  O7  UNL     1     -11.298  27.225  34.062  1.00  0.00    -0.351 OA
HETATM   30  C11 UNL     1     -11.368  27.982  35.176  1.00  0.00     0.152 C 
HETATM   31  C12 UNL     1     -12.685  27.923  35.910  1.00  0.00     0.042 C 
HETATM   32  C13 UNL     1     -10.189  27.749  36.058  1.00  0.00     0.178 C 
HETATM   33  C14 UNL     1     -10.234  26.319  36.534  1.00  0.00     0.183 C 
HETATM   34  C15 UNL     1     -10.564  25.358  35.425  1.00  0.00     0.204 C 
BRANCH  32  35
HETATM   35  O8  UNL     1      -9.027  27.922  35.342  1.00  0.00    -0.390 OA
ATOM     36  H8  UNL     1      -8.306  27.490  35.786  1.00  0.00     0.210 HD
ENDBRANCH  32  35
BRANCH  33  37
HETATM   37  O9  UNL     1     -11.136  26.216  37.590  1.00  0.00    -0.390 OA
ATOM     38  H9  UNL     1     -11.930  25.796  37.282  1.00  0.00     0.210 HD
ENDBRANCH  33  37
BRANCH  34  39
HETATM   39  O10 UNL     1     -11.779  24.755  35.752  1.00  0.00    -0.388 OA
ATOM     40  H10 UNL     1     -12.349  24.742  34.993  1.00  0.00     0.210 HD
ENDBRANCH  34  39
ENDBRANCH  27  28
ENDBRANCH   3  27
BRANCH   4  41
HETATM   41  O11 UNL     1      -6.766  25.744  34.774  1.00  0.00    -0.390 OA
ATOM     42  H11 UNL     1      -6.112  25.284  35.287  1.00  0.00     0.210 HD
ENDBRANCH   4  41
TORSDOF 13
ENDMDL
