MODEL 7
REMARK VINA RESULT: -7.116989939      2.797      4.444
REMARK  13 active torsions:
REMARK  status: ('A' for Active; 'I' for Inactive)
REMARK    1  A    between atoms: O1_2  and  C2_3 
REMARK    2  A    between atoms: C3_5  and  C4_6 
REMARK    3  A    between atoms: C4_6  and  O3_7 
REMARK    4  A    between atoms: C5_9  and  O4_10 
REMARK    5  A    between atoms: C6_12  and  O5_13 
REMARK    6  A    between atoms: O5_13  and  C7_14 
REMARK    7  A    between atoms: C9_16  and  O6_17 
REMARK    8  A    between atoms: O6_17  and  C10_18 
REMARK    9  A    between atoms: C13_22  and  O8_23 
REMARK   10  A    between atoms: C14_25  and  O9_26 
REMARK   11  A    between atoms: C15_28  and  O10_29 
REMARK   12  A    between atoms: C16_31  and  O11_32 
REMARK   13  A    between atoms: C19_37  and  N1_38 
REMARK       I    between atoms: N1_38  and  C20_40 
ROOT
HETATM    1  C7  UNL     1      -8.383  23.182  32.285  1.00  0.00     0.263 C 
HETATM    2  C8  UNL     1      -9.039  24.416  32.819  1.00  0.00     0.095 C 
HETATM    3  C9  UNL     1      -8.407  24.874  34.143  1.00  0.00     0.160 C 
HETATM    4  C16 UNL     1      -6.951  24.944  33.906  1.00  0.00     0.176 C 
HETATM    5  C17 UNL     1      -6.517  23.516  33.617  1.00  0.00     0.151 C 
HETATM    6  C18 UNL     1      -5.002  23.539  33.514  1.00  0.00     0.042 C 
HETATM    7  O12 UNL     1      -7.004  23.191  32.365  1.00  0.00    -0.354 OA
ENDROOT
BRANCH   1   8
HETATM    8  O5  UNL     1      -8.821  22.019  32.898  1.00  0.00    -0.351 OA
BRANCH   8   9
HETATM    9  C6  UNL     1      -9.409  21.199  31.971  1.00  0.00     0.183 C 
HETATM   10  C5  UNL     1      -8.696  19.891  31.798  1.00  0.00     0.180 C 
HETATM   11  C3  UNL     1      -9.402  18.677  32.249  1.00  0.00     0.179 C 
HETATM   12  O2  UNL     1     -10.752  18.628  31.982  1.00  0.00    -0.349 OA
HETATM   13  C2  UNL     1     -11.244  19.767  31.370  1.00  0.00     0.284 C 
HETATM   14  C19 UNL     1     -10.876  20.925  32.276  1.00  0.00     0.171 C 
BRANCH  10  15
HETATM   15  O4  UNL     1      -8.236  19.709  30.481  1.00  0.00    -0.390 OA
ATOM     16  H4  UNL     1      -8.604  20.380  29.918  1.00  0.00     0.210 HD
ENDBRANCH  10  15
BRANCH  11  17
HETATM   17  C4  UNL     1      -9.127  18.345  33.714  1.00  0.00     0.198 C 
BRANCH  17  18
HETATM   18  O3  UNL     1      -8.133  19.221  34.207  1.00  0.00    -0.398 OA
ATOM     19  H3  UNL     1      -8.345  19.459  35.102  1.00  0.00     0.209 HD
ENDBRANCH  17  18
ENDBRANCH  11  17
BRANCH  13  20
HETATM   20  O1  UNL     1     -12.620  19.640  31.227  1.00  0.00    -0.364 OA
HETATM   21  C1  UNL     1     -13.187  18.999  32.324  1.00  0.00     0.204 C 
ENDBRANCH  13  20
BRANCH  14  22
HETATM   22  N1  UNL     1     -11.714  22.081  32.029  1.00  0.00    -0.349 N 
HETATM   23  C20 UNL     1     -12.304  22.799  33.099  1.00  0.00     0.214 C 
HETATM   24  C21 UNL     1     -13.177  23.997  32.890  1.00  0.00     0.117 C 
HETATM   25  O13 UNL     1     -12.075  22.395  34.274  1.00  0.00    -0.274 OA
ATOM     26  H1  UNL     1     -11.882  22.383  31.069  1.00  0.00     0.163 HD
ENDBRANCH  14  22
ENDBRANCH   8   9
ENDBRANCH   1   8
BRANCH   3  27
HETATM   27  O6  UNL     1      -9.071  25.929  34.578  1.00  0.00    -0.350 OA
BRANCH  27  28
HETATM   28  C10 UNL     1      -9.323  26.104  35.911  1.00  0.00     0.292 C 
HETATM   29  O7  UNL     1     -10.538  25.671  36.299  1.00  0.00    -0.351 OA
HETATM   30  C11 UNL     1     -11.545  26.542  36.511  1.00  0.00     0.152 C 
HETATM   31  C12 UNL     1     -11.814  26.872  37.958  1.00  0.00     0.042 C 
HETATM   32  C13 UNL     1     -11.401  27.749  35.647  1.00  0.00     0.178 C 
HETATM   33  C14 UNL     1     -10.143  28.472  36.056  1.00  0.00     0.183 C 
HETATM   34  C15 UNL     1      -8.986  27.535  36.262  1.00  0.00     0.204 C 
BRANCH  32  35
HETATM   35  O8  UNL     1     -11.264  27.368  34.331  1.00  0.00    -0.390 OA
ATOM     36  H8  UNL     1     -10.402  27.610  34.013  1.00  0.00     0.210 HD
ENDBRANCH  32  35
BRANCH  33  37
HETATM   37  O9  UNL     1     -10.401  29.230  37.195  1.00  0.00    -0.390 OA
ATOM     38  H9  UNL     1     -10.122  28.745  37.962  1.00  0.00     0.210 HD
ENDBRANCH  33  37
BRANCH  34  39
HETATM   39  O10 UNL     1      -8.621  27.622  37.605  1.00  0.00    -0.388 OA
ATOM     40  H10 UNL     1      -9.232  28.180  38.071  1.00  0.00     0.210 HD
ENDBRANCH  34  39
ENDBRANCH  27  28
ENDBRANCH   3  27
BRANCH   4  41
HETATM   41  O11 UNL     1      -6.202  25.372  34.989  1.00  0.00    -0.390 OA
ATOM     42  H11 UNL     1      -5.845  24.678  35.530  1.00  0.00     0.210 HD
ENDBRANCH   4  41
TORSDOF 13
ENDMDL
