MODEL 4
REMARK VINA RESULT: -7.394804016      2.520      5.126
REMARK  13 active torsions:
REMARK  status: ('A' for Active; 'I' for Inactive)
REMARK    1  A    between atoms: O1_2  and  C2_3 
REMARK    2  A    between atoms: C3_5  and  C4_6 
REMARK    3  A    between atoms: C4_6  and  O3_7 
REMARK    4  A    between atoms: C5_9  and  O4_10 
REMARK    5  A    between atoms: C6_12  and  O5_13 
REMARK    6  A    between atoms: O5_13  and  C7_14 
REMARK    7  A    between atoms: C9_16  and  O6_17 
REMARK    8  A    between atoms: O6_17  and  C10_18 
REMARK    9  A    between atoms: C13_22  and  O8_23 
REMARK   10  A    between atoms: C14_25  and  O9_26 
REMARK   11  A    between atoms: C15_28  and  O10_29 
REMARK   12  A    between atoms: C16_31  and  O11_32 
REMARK   13  A    between atoms: C19_37  and  N1_38 
REMARK       I    between atoms: N1_38  and  C20_40 
ROOT
HETATM    1  C7  UNL     1     -10.387  22.527  32.825  1.00  0.00     0.263 C 
HETATM    2  C8  UNL     1     -10.978  23.170  34.040  1.00  0.00     0.095 C 
HETATM    3  C9  UNL     1     -10.801  24.697  34.023  1.00  0.00     0.160 C 
HETATM    4  C16 UNL     1     -11.305  25.160  32.714  1.00  0.00     0.176 C 
HETATM    5  C17 UNL     1     -10.376  24.542  31.680  1.00  0.00     0.151 C 
HETATM    6  C18 UNL     1     -10.784  25.119  30.336  1.00  0.00     0.042 C 
HETATM    7  O12 UNL     1     -10.657  23.189  31.642  1.00  0.00    -0.354 OA
ENDROOT
BRANCH   1   8
HETATM    8  O5  UNL     1      -9.013  22.370  32.901  1.00  0.00    -0.351 OA
BRANCH   8   9
HETATM    9  C6  UNL     1      -8.715  21.165  33.481  1.00  0.00     0.183 C 
HETATM   10  C5  UNL     1      -9.646  20.062  33.071  1.00  0.00     0.180 C 
HETATM   11  C3  UNL     1      -9.081  18.980  32.243  1.00  0.00     0.179 C 
HETATM   12  O2  UNL     1      -7.816  18.558  32.581  1.00  0.00    -0.349 OA
HETATM   13  C2  UNL     1      -7.249  19.265  33.627  1.00  0.00     0.284 C 
HETATM   14  C19 UNL     1      -7.282  20.724  33.216  1.00  0.00     0.171 C 
BRANCH  10  15
HETATM   15  O4  UNL     1     -10.329  19.510  34.171  1.00  0.00    -0.390 OA
ATOM     16  H4  UNL     1     -11.111  19.063  33.870  1.00  0.00     0.210 HD
ENDBRANCH  10  15
BRANCH  11  17
HETATM   17  C4  UNL     1      -9.175  19.272  30.748  1.00  0.00     0.198 C 
BRANCH  17  18
HETATM   18  O3  UNL     1      -8.087  18.658  30.087  1.00  0.00    -0.398 OA
ATOM     19  H3  UNL     1      -8.145  18.840  29.156  1.00  0.00     0.209 HD
ENDBRANCH  17  18
ENDBRANCH  11  17
BRANCH  13  20
HETATM   20  O1  UNL     1      -5.950  18.813  33.822  1.00  0.00    -0.364 OA
HETATM   21  C1  UNL     1      -5.824  17.468  33.487  1.00  0.00     0.204 C 
ENDBRANCH  13  20
BRANCH  14  22
HETATM   22  N1  UNL     1      -6.318  21.508  33.962  1.00  0.00    -0.349 N 
HETATM   23  C20 UNL     1      -5.560  22.527  33.332  1.00  0.00     0.214 C 
HETATM   24  C21 UNL     1      -4.554  23.361  34.064  1.00  0.00     0.117 C 
HETATM   25  O13 UNL     1      -5.752  22.725  32.100  1.00  0.00    -0.274 OA
ATOM     26  H1  UNL     1      -6.183  21.324  34.957  1.00  0.00     0.163 HD
ENDBRANCH  14  22
ENDBRANCH   8   9
ENDBRANCH   1   8
BRANCH   3  27
HETATM   27  O6  UNL     1     -11.295  25.185  35.146  1.00  0.00    -0.350 OA
BRANCH  27  28
HETATM   28  C10 UNL     1     -10.471  25.637  36.141  1.00  0.00     0.292 C 
HETATM   29  O7  UNL     1     -11.124  26.048  37.245  1.00  0.00    -0.351 OA
HETATM   30  C11 UNL     1     -11.305  27.362  37.489  1.00  0.00     0.152 C 
HETATM   31  C12 UNL     1     -10.359  27.963  38.499  1.00  0.00     0.042 C 
HETATM   32  C13 UNL     1     -11.383  28.138  36.218  1.00  0.00     0.178 C 
HETATM   33  C14 UNL     1     -10.051  28.033  35.521  1.00  0.00     0.183 C 
HETATM   34  C15 UNL     1      -9.510  26.630  35.530  1.00  0.00     0.204 C 
BRANCH  32  35
HETATM   35  O8  UNL     1     -12.339  27.590  35.393  1.00  0.00    -0.390 OA
ATOM     36  H8  UNL     1     -12.998  27.147  35.914  1.00  0.00     0.210 HD
ENDBRANCH  32  35
BRANCH  33  37
HETATM   37  O9  UNL     1      -9.159  28.932  36.100  1.00  0.00    -0.390 OA
ATOM     38  H9  UNL     1      -8.278  28.726  35.811  1.00  0.00     0.210 HD
ENDBRANCH  33  37
BRANCH  34  39
HETATM   39  O10 UNL     1      -8.322  26.652  36.260  1.00  0.00    -0.388 OA
ATOM     40  H10 UNL     1      -8.097  27.547  36.486  1.00  0.00     0.210 HD
ENDBRANCH  34  39
ENDBRANCH  27  28
ENDBRANCH   3  27
BRANCH   4  41
HETATM   41  O11 UNL     1     -11.255  26.530  32.519  1.00  0.00    -0.390 OA
ATOM     42  H11 UNL     1     -11.419  26.814  31.628  1.00  0.00     0.210 HD
ENDBRANCH   4  41
TORSDOF 13
ENDMDL
