MODEL 3
REMARK VINA RESULT: -7.664745891      0.928      1.578
REMARK  13 active torsions:
REMARK  status: ('A' for Active; 'I' for Inactive)
REMARK    1  A    between atoms: O1_2  and  C2_3 
REMARK    2  A    between atoms: C3_5  and  C4_6 
REMARK    3  A    between atoms: C4_6  and  O3_7 
REMARK    4  A    between atoms: C5_9  and  O4_10 
REMARK    5  A    between atoms: C6_12  and  O5_13 
REMARK    6  A    between atoms: O5_13  and  C7_14 
REMARK    7  A    between atoms: C9_16  and  O6_17 
REMARK    8  A    between atoms: O6_17  and  C10_18 
REMARK    9  A    between atoms: C13_22  and  O8_23 
REMARK   10  A    between atoms: C14_25  and  O9_26 
REMARK   11  A    between atoms: C15_28  and  O10_29 
REMARK   12  A    between atoms: C16_31  and  O11_32 
REMARK   13  A    between atoms: C19_37  and  N1_38 
REMARK       I    between atoms: N1_38  and  C20_40 
ROOT
HETATM    1  C7  UNL     1      -5.646  21.902  32.987  1.00  0.00     0.263 C 
HETATM    2  C8  UNL     1      -6.813  22.643  32.416  1.00  0.00     0.095 C 
HETATM    3  C9  UNL     1      -7.146  23.904  33.229  1.00  0.00     0.160 C 
HETATM    4  C16 UNL     1      -5.882  24.656  33.365  1.00  0.00     0.176 C 
HETATM    5  C17 UNL     1      -4.964  23.764  34.186  1.00  0.00     0.151 C 
HETATM    6  C18 UNL     1      -3.711  24.575  34.463  1.00  0.00     0.042 C 
HETATM    7  O12 UNL     1      -4.593  22.709  33.373  1.00  0.00    -0.354 OA
ENDROOT
BRANCH   1   8
HETATM    8  O5  UNL     1      -5.977  21.113  34.077  1.00  0.00    -0.351 OA
BRANCH   8   9
HETATM    9  C6  UNL     1      -5.996  19.794  33.705  1.00  0.00     0.183 C 
HETATM   10  C5  UNL     1      -4.742  19.057  34.068  1.00  0.00     0.180 C 
HETATM   11  C3  UNL     1      -4.851  18.014  35.106  1.00  0.00     0.179 C 
HETATM   12  O2  UNL     1      -5.978  17.226  35.053  1.00  0.00    -0.349 OA
HETATM   13  C2  UNL     1      -6.864  17.579  34.051  1.00  0.00     0.284 C 
HETATM   14  C19 UNL     1      -7.192  19.042  34.275  1.00  0.00     0.171 C 
BRANCH  10  15
HETATM   15  O4  UNL     1      -4.091  18.531  32.936  1.00  0.00    -0.390 OA
ATOM     16  H4  UNL     1      -3.709  19.239  32.430  1.00  0.00     0.210 HD
ENDBRANCH  10  15
BRANCH  11  17
HETATM   17  C4  UNL     1      -4.636  18.561  36.515  1.00  0.00     0.198 C 
BRANCH  17  18
HETATM   18  O3  UNL     1      -5.423  17.818  37.424  1.00  0.00    -0.398 OA
ATOM     19  H3  UNL     1      -5.404  18.245  38.273  1.00  0.00     0.209 HD
ENDBRANCH  17  18
ENDBRANCH  11  17
BRANCH  13  20
HETATM   20  O1  UNL     1      -7.994  16.776  34.147  1.00  0.00    -0.364 OA
HETATM   21  C1  UNL     1      -7.921  15.926  35.247  1.00  0.00     0.204 C 
ENDBRANCH  13  20
BRANCH  14  22
HETATM   22  N1  UNL     1      -8.435  19.413  33.627  1.00  0.00    -0.349 N 
HETATM   23  C20 UNL     1      -9.653  19.448  34.350  1.00  0.00     0.214 C 
HETATM   24  C21 UNL     1     -10.959  19.826  33.721  1.00  0.00     0.117 C 
HETATM   25  O13 UNL     1      -9.619  19.143  35.575  1.00  0.00    -0.274 OA
ATOM     26  H1  UNL     1      -8.432  19.653  32.636  1.00  0.00     0.163 HD
ENDBRANCH  14  22
ENDBRANCH   8   9
ENDBRANCH   1   8
BRANCH   3  27
HETATM   27  O6  UNL     1      -8.214  24.470  32.700  1.00  0.00    -0.350 OA
BRANCH  27  28
HETATM   28  C10 UNL     1      -9.216  24.964  33.490  1.00  0.00     0.292 C 
HETATM   29  O7  UNL     1      -9.850  24.026  34.218  1.00  0.00    -0.351 OA
HETATM   30  C11 UNL     1     -11.061  23.565  33.844  1.00  0.00     0.152 C 
HETATM   31  C12 UNL     1     -12.230  24.147  34.598  1.00  0.00     0.042 C 
HETATM   32  C13 UNL     1     -11.224  23.627  32.363  1.00  0.00     0.178 C 
HETATM   33  C14 UNL     1     -11.192  25.075  31.947  1.00  0.00     0.183 C 
HETATM   34  C15 UNL     1     -10.094  25.842  32.629  1.00  0.00     0.204 C 
BRANCH  32  35
HETATM   35  O8  UNL     1     -10.172  22.985  31.749  1.00  0.00    -0.390 OA
ATOM     36  H8  UNL     1     -10.011  23.372  30.896  1.00  0.00     0.210 HD
ENDBRANCH  32  35
BRANCH  33  37
HETATM   37  O9  UNL     1     -12.441  25.646  32.180  1.00  0.00    -0.390 OA
ATOM     38  H9  UNL     1     -12.995  25.014  32.621  1.00  0.00     0.210 HD
ENDBRANCH  33  37
BRANCH  34  39
HETATM   39  O10 UNL     1     -10.703  26.821  33.414  1.00  0.00    -0.388 OA
ATOM     40  H10 UNL     1     -11.063  27.503  32.860  1.00  0.00     0.210 HD
ENDBRANCH  34  39
ENDBRANCH  27  28
ENDBRANCH   3  27
BRANCH   4  41
HETATM   41  O11 UNL     1      -5.985  25.854  34.052  1.00  0.00    -0.390 OA
ATOM     42  H11 UNL     1      -5.696  26.619  33.569  1.00  0.00     0.210 HD
ENDBRANCH   4  41
TORSDOF 13
ENDMDL
