MODEL 7
REMARK VINA RESULT: -8.475898103      1.519      5.329
REMARK  13 active torsions:
REMARK  status: ('A' for Active; 'I' for Inactive)
REMARK    1  A    between atoms: C4_6  and  C5_7 
REMARK    2  A    between atoms: C5_7  and  O1_8 
REMARK    3  A    between atoms: O1_8  and  P1_9 
REMARK    4  A    between atoms: C6_13  and  C7_14 
REMARK    5  A    between atoms: C7_14  and  N2_15 
REMARK    6  A    between atoms: N2_15  and  C8_18 
REMARK    7  A    between atoms: C8_18  and  C9_19 
REMARK    8  A    between atoms: C8_18  and  C13_28 
REMARK    9  A    between atoms: C10_20  and  O5_21 
REMARK   10  A    between atoms: O5_21  and  C11_22 
REMARK   11  A    between atoms: C11_22  and  C12_23 
REMARK   12  A    between atoms: C12_23  and  N3_24 
REMARK   13  A    between atoms: C14_31  and  O8_32 
ROOT
HETATM    1  C7  UNL     1      18.462  -1.351  23.247  1.00  0.00     0.275 C 
ENDROOT
BRANCH   1   2
HETATM    2  C6  UNL     1      18.743  -0.451  24.359  1.00  0.00     0.012 A 
HETATM    3  C4  UNL     1      20.109  -0.297  24.719  1.00  0.00    -0.008 A 
HETATM    4  C3  UNL     1      20.395   0.536  25.743  1.00  0.00     0.098 A 
HETATM    5  N1  UNL     1      19.463   1.224  26.434  1.00  0.00    -0.367 N 
HETATM    6  C2  UNL     1      18.174   1.105  26.124  1.00  0.00     0.039 A 
ATOM      7  H1  UNL     1      19.746   1.838  27.197  1.00  0.00     0.165 HD
HETATM    8  C1  UNL     1      17.132   1.868  26.886  1.00  0.00     0.071 C 
HETATM    9  C14 UNL     1      17.808   0.254  25.070  1.00  0.00     0.096 A 
BRANCH   3  10
HETATM   10  C5  UNL     1      21.083  -1.107  23.955  1.00  0.00     0.223 C 
BRANCH  10  11
HETATM   11  O1  UNL     1      22.354  -0.638  23.911  1.00  0.00    -0.278 OA
BRANCH  11  12
HETATM   12  P1  UNL     1      23.556  -1.311  23.277  1.00  0.00     0.422 P 
HETATM   13  O2  UNL     1      24.579  -0.547  24.277  1.00  0.00    -0.617 OA
HETATM   14  O3  UNL     1      24.682  -2.100  22.562  1.00  0.00    -0.617 OA
HETATM   15  O4  UNL     1      22.905  -2.766  23.808  1.00  0.00    -0.617 OA
ENDBRANCH  11  12
ENDBRANCH  10  11
ENDBRANCH   3  10
BRANCH   9  16
HETATM   16  O8  UNL     1      16.451   0.169  24.792  1.00  0.00    -0.358 OA
ATOM     17  H8  UNL     1      16.145   0.661  24.038  1.00  0.00     0.217 HD
ENDBRANCH   9  16
ENDBRANCH   1   2
BRANCH   1  18
HETATM   18  N2  UNL     1      17.301  -1.133  22.461  1.00  0.00    -0.054 N 
ATOM     19  H22 UNL     1      16.951  -2.006  22.067  1.00  0.00     0.278 HD
ATOM     20  H21 UNL     1      16.501  -0.886  23.042  1.00  0.00     0.278 HD
BRANCH  18  21
HETATM   21  C8  UNL     1      17.527  -0.145  21.431  1.00  0.00     0.310 C 
BRANCH  21  22
HETATM   22  C9  UNL     1      18.677  -0.582  20.544  1.00  0.00     0.041 C 
HETATM   23  C10 UNL     1      19.600   0.259  20.120  1.00  0.00     0.133 C 
BRANCH  23  24
HETATM   24  O5  UNL     1      20.658  -0.143  19.305  1.00  0.00    -0.362 OA
BRANCH  24  25
HETATM   25  C11 UNL     1      21.663   0.804  19.038  1.00  0.00     0.201 C 
BRANCH  25  26
HETATM   26  C12 UNL     1      21.207   1.853  18.046  1.00  0.00     0.256 C 
BRANCH  26  27
HETATM   27  N3  UNL     1      22.275   2.807  17.888  1.00  0.00    -0.077 N 
ATOM     28  H33 UNL     1      22.713   2.761  16.969  1.00  0.00     0.274 HD
ATOM     29  H32 UNL     1      21.941   3.768  17.833  1.00  0.00     0.274 HD
ATOM     30  H31 UNL     1      22.939   2.662  18.649  1.00  0.00     0.274 HD
ENDBRANCH  26  27
ENDBRANCH  25  26
ENDBRANCH  24  25
ENDBRANCH  23  24
ENDBRANCH  21  22
BRANCH  21  31
HETATM   31  C13 UNL     1      16.375  -0.007  20.501  1.00  0.00     0.208 C 
HETATM   32  O6  UNL     1      15.279  -0.520  20.792  1.00  0.00    -0.646 OA
HETATM   33  O7  UNL     1      16.485   0.686  19.304  1.00  0.00    -0.646 OA
ENDBRANCH  21  31
ENDBRANCH  18  21
ENDBRANCH   1  18
TORSDOF 13
ENDMDL
