MODEL 1
REMARK VINA RESULT: -9.442213656      0.000      0.000
REMARK  13 active torsions:
REMARK  status: ('A' for Active; 'I' for Inactive)
REMARK    1  A    between atoms: C4_6  and  C5_7 
REMARK    2  A    between atoms: C5_7  and  O1_8 
REMARK    3  A    between atoms: O1_8  and  P1_9 
REMARK    4  A    between atoms: C6_13  and  C7_14 
REMARK    5  A    between atoms: C7_14  and  N2_15 
REMARK    6  A    between atoms: N2_15  and  C8_18 
REMARK    7  A    between atoms: C8_18  and  C9_19 
REMARK    8  A    between atoms: C8_18  and  C13_28 
REMARK    9  A    between atoms: C10_20  and  O5_21 
REMARK   10  A    between atoms: O5_21  and  C11_22 
REMARK   11  A    between atoms: C11_22  and  C12_23 
REMARK   12  A    between atoms: C12_23  and  N3_24 
REMARK   13  A    between atoms: C14_31  and  O8_32 
ROOT
HETATM    1  C7  UNL     1      19.956  -0.014  20.772  1.00  0.00     0.275 C 
ENDROOT
BRANCH   1   2
HETATM    2  C6  UNL     1      21.038   0.718  20.125  1.00  0.00     0.012 A 
HETATM    3  C4  UNL     1      22.270   0.780  20.830  1.00  0.00    -0.008 A 
HETATM    4  C3  UNL     1      23.290   1.449  20.249  1.00  0.00     0.098 A 
HETATM    5  N1  UNL     1      23.202   2.052  19.046  1.00  0.00    -0.367 N 
HETATM    6  C2  UNL     1      22.064   2.014  18.356  1.00  0.00     0.039 A 
ATOM      7  H1  UNL     1      24.011   2.541  18.662  1.00  0.00     0.165 HD
HETATM    8  C1  UNL     1      21.960   2.681  17.018  1.00  0.00     0.071 C 
HETATM    9  C14 UNL     1      20.965   1.336  18.904  1.00  0.00     0.096 A 
BRANCH   3  10
HETATM   10  C5  UNL     1      22.296   0.137  22.162  1.00  0.00     0.223 C 
BRANCH  10  11
HETATM   11  O1  UNL     1      22.715  -1.151  22.201  1.00  0.00    -0.278 OA
BRANCH  11  12
HETATM   12  P1  UNL     1      23.870  -1.714  23.007  1.00  0.00     0.422 P 
HETATM   13  O2  UNL     1      24.250  -0.248  23.587  1.00  0.00    -0.617 OA
HETATM   14  O3  UNL     1      24.986  -2.433  23.805  1.00  0.00    -0.617 OA
HETATM   15  O4  UNL     1      22.723  -2.603  23.856  1.00  0.00    -0.617 OA
ENDBRANCH  11  12
ENDBRANCH  10  11
ENDBRANCH   3  10
BRANCH   9  16
HETATM   16  O8  UNL     1      19.805   1.328  18.142  1.00  0.00    -0.358 OA
ATOM     17  H8  UNL     1      19.232   0.580  18.257  1.00  0.00     0.217 HD
ENDBRANCH   9  16
ENDBRANCH   1   2
BRANCH   1  18
HETATM   18  N2  UNL     1      18.880  -0.494  19.981  1.00  0.00    -0.054 N 
ATOM     19  H22 UNL     1      18.681   0.137  19.204  1.00  0.00     0.278 HD
ATOM     20  H21 UNL     1      19.150  -1.322  19.451  1.00  0.00     0.278 HD
BRANCH  18  21
HETATM   21  C8  UNL     1      17.697  -0.741  20.773  1.00  0.00     0.310 C 
BRANCH  21  22
HETATM   22  C9  UNL     1      17.857  -0.110  22.143  1.00  0.00     0.041 C 
HETATM   23  C10 UNL     1      17.523  -0.739  23.253  1.00  0.00     0.133 C 
BRANCH  23  24
HETATM   24  O5  UNL     1      17.669  -0.159  24.512  1.00  0.00    -0.362 OA
BRANCH  24  25
HETATM   25  C11 UNL     1      18.643  -0.705  25.367  1.00  0.00     0.201 C 
BRANCH  25  26
HETATM   26  C12 UNL     1      20.000  -0.066  25.163  1.00  0.00     0.256 C 
BRANCH  26  27
HETATM   27  N3  UNL     1      21.000  -0.991  25.633  1.00  0.00    -0.077 N 
ATOM     28  H33 UNL     1      21.476  -1.477  24.874  1.00  0.00     0.274 HD
ATOM     29  H32 UNL     1      21.815  -0.523  26.029  1.00  0.00     0.274 HD
ATOM     30  H31 UNL     1      20.552  -1.628  26.291  1.00  0.00     0.274 HD
ENDBRANCH  26  27
ENDBRANCH  25  26
ENDBRANCH  24  25
ENDBRANCH  23  24
ENDBRANCH  21  22
BRANCH  21  31
HETATM   31  C13 UNL     1      16.480  -0.100  20.209  1.00  0.00     0.208 C 
HETATM   32  O6  UNL     1      16.587   0.721  19.280  1.00  0.00    -0.646 OA
HETATM   33  O7  UNL     1      15.213  -0.393  20.693  1.00  0.00    -0.646 OA
ENDBRANCH  21  31
ENDBRANCH  18  21
ENDBRANCH   1  18
TORSDOF 13
ENDMDL
