MODEL 6
REMARK VINA RESULT: -8.494002389      2.394      7.525
REMARK  13 active torsions:
REMARK  status: ('A' for Active; 'I' for Inactive)
REMARK    1  A    between atoms: C4_6  and  C5_7 
REMARK    2  A    between atoms: C5_7  and  O1_8 
REMARK    3  A    between atoms: O1_8  and  P1_9 
REMARK    4  A    between atoms: C6_13  and  C7_14 
REMARK    5  A    between atoms: C7_14  and  N2_15 
REMARK    6  A    between atoms: N2_15  and  C8_18 
REMARK    7  A    between atoms: C8_18  and  C9_19 
REMARK    8  A    between atoms: C8_18  and  C13_28 
REMARK    9  A    between atoms: C10_20  and  O5_21 
REMARK   10  A    between atoms: O5_21  and  C11_22 
REMARK   11  A    between atoms: C11_22  and  C12_23 
REMARK   12  A    between atoms: C12_23  and  N3_24 
REMARK   13  A    between atoms: C14_31  and  O8_32 
ROOT
HETATM    1  C7  UNL     1      20.503  -0.944  23.819  1.00  0.00     0.275 C 
ENDROOT
BRANCH   1   2
HETATM    2  C6  UNL     1      19.494  -0.371  24.701  1.00  0.00     0.012 A 
HETATM    3  C4  UNL     1      18.157  -0.373  24.220  1.00  0.00    -0.008 A 
HETATM    4  C3  UNL     1      17.203   0.148  25.022  1.00  0.00     0.098 A 
HETATM    5  N1  UNL     1      17.449   0.664  26.243  1.00  0.00    -0.367 N 
HETATM    6  C2  UNL     1      18.689   0.682  26.727  1.00  0.00     0.039 A 
ATOM      7  H1  UNL     1      16.682   1.042  26.799  1.00  0.00     0.165 HD
HETATM    8  C1  UNL     1      18.970   1.253  28.084  1.00  0.00     0.071 C 
HETATM    9  C14 UNL     1      19.727   0.157  25.944  1.00  0.00     0.096 A 
BRANCH   3  10
HETATM   10  C5  UNL     1      17.952  -0.913  22.858  1.00  0.00     0.223 C 
BRANCH  10  11
HETATM   11  O1  UNL     1      16.933  -0.376  22.143  1.00  0.00    -0.278 OA
BRANCH  11  12
HETATM   12  P1  UNL     1      16.941  -0.011  20.671  1.00  0.00     0.422 P 
HETATM   13  O2  UNL     1      18.001  -1.190  20.329  1.00  0.00    -0.617 OA
HETATM   14  O3  UNL     1      16.817   0.448  19.196  1.00  0.00    -0.617 OA
HETATM   15  O4  UNL     1      15.310  -0.416  20.658  1.00  0.00    -0.617 OA
ENDBRANCH  11  12
ENDBRANCH  10  11
ENDBRANCH   3  10
BRANCH   9  16
HETATM   16  O8  UNL     1      20.999   0.203  26.498  1.00  0.00    -0.358 OA
ATOM     17  H8  UNL     1      21.676   0.604  25.966  1.00  0.00     0.217 HD
ENDBRANCH   9  16
ENDBRANCH   1   2
BRANCH   1  18
HETATM   18  N2  UNL     1      21.784  -0.337  23.753  1.00  0.00    -0.054 N 
ATOM     19  H22 UNL     1      21.711   0.676  23.658  1.00  0.00     0.278 HD
ATOM     20  H21 UNL     1      22.262  -0.380  24.653  1.00  0.00     0.278 HD
BRANCH  18  21
HETATM   21  C8  UNL     1      22.596  -0.906  22.702  1.00  0.00     0.310 C 
BRANCH  21  22
HETATM   22  C9  UNL     1      22.751   0.097  21.575  1.00  0.00     0.041 C 
HETATM   23  C10 UNL     1      21.763   0.393  20.753  1.00  0.00     0.133 C 
BRANCH  23  24
HETATM   24  O5  UNL     1      21.906   1.315  19.716  1.00  0.00    -0.362 OA
BRANCH  24  25
HETATM   25  C11 UNL     1      20.905   1.337  18.729  1.00  0.00     0.201 C 
BRANCH  25  26
HETATM   26  C12 UNL     1      21.287   2.211  17.552  1.00  0.00     0.256 C 
BRANCH  26  27
HETATM   27  N3  UNL     1      22.421   3.009  17.944  1.00  0.00    -0.077 N 
ATOM     28  H33 UNL     1      22.615   3.766  17.290  1.00  0.00     0.274 HD
ATOM     29  H32 UNL     1      22.235   3.583  18.766  1.00  0.00     0.274 HD
ATOM     30  H31 UNL     1      23.215   2.382  18.071  1.00  0.00     0.274 HD
ENDBRANCH  26  27
ENDBRANCH  25  26
ENDBRANCH  24  25
ENDBRANCH  23  24
ENDBRANCH  21  22
BRANCH  21  31
HETATM   31  C13 UNL     1      23.988  -1.192  23.137  1.00  0.00     0.208 C 
HETATM   32  O6  UNL     1      24.439  -0.652  24.163  1.00  0.00    -0.646 OA
HETATM   33  O7  UNL     1      24.810  -2.055  22.426  1.00  0.00    -0.646 OA
ENDBRANCH  21  31
ENDBRANCH  18  21
ENDBRANCH   1  18
TORSDOF 13
ENDMDL
