MODEL 3
REMARK VINA RESULT: -9.255870724      1.358      1.506
REMARK  13 active torsions:
REMARK  status: ('A' for Active; 'I' for Inactive)
REMARK    1  A    between atoms: C4_6  and  C5_7 
REMARK    2  A    between atoms: C5_7  and  O1_8 
REMARK    3  A    between atoms: O1_8  and  P1_9 
REMARK    4  A    between atoms: C6_13  and  C7_14 
REMARK    5  A    between atoms: C7_14  and  N2_15 
REMARK    6  A    between atoms: N2_15  and  C8_18 
REMARK    7  A    between atoms: C8_18  and  C9_19 
REMARK    8  A    between atoms: C8_18  and  C13_28 
REMARK    9  A    between atoms: C10_20  and  O5_21 
REMARK   10  A    between atoms: O5_21  and  C11_22 
REMARK   11  A    between atoms: C11_22  and  C12_23 
REMARK   12  A    between atoms: C12_23  and  N3_24 
REMARK   13  A    between atoms: C14_31  and  O8_32 
ROOT
HETATM    1  C7  UNL     1      19.891  -0.034  20.677  1.00  0.00     0.275 C 
ENDROOT
BRANCH   1   2
HETATM    2  C6  UNL     1      20.990   0.700  20.065  1.00  0.00     0.012 A 
HETATM    3  C4  UNL     1      22.206   0.749  20.798  1.00  0.00    -0.008 A 
HETATM    4  C3  UNL     1      23.241   1.420  20.248  1.00  0.00     0.098 A 
HETATM    5  N1  UNL     1      23.183   2.038  19.051  1.00  0.00    -0.367 N 
HETATM    6  C2  UNL     1      22.061   2.014  18.335  1.00  0.00     0.039 A 
ATOM      7  H1  UNL     1      24.003   2.528  18.692  1.00  0.00     0.165 HD
HETATM    8  C1  UNL     1      21.989   2.698  17.004  1.00  0.00     0.071 C 
HETATM    9  C14 UNL     1      20.947   1.334  18.850  1.00  0.00     0.096 A 
BRANCH   3  10
HETATM   10  C5  UNL     1      22.199   0.089  22.122  1.00  0.00     0.223 C 
BRANCH  10  11
HETATM   11  O1  UNL     1      22.672  -1.181  22.165  1.00  0.00    -0.278 OA
BRANCH  11  12
HETATM   12  P1  UNL     1      23.845  -1.693  22.978  1.00  0.00     0.422 P 
HETATM   13  O2  UNL     1      24.225  -0.196  23.473  1.00  0.00    -0.617 OA
HETATM   14  O3  UNL     1      24.980  -2.362  23.792  1.00  0.00    -0.617 OA
HETATM   15  O4  UNL     1      22.720  -2.542  23.894  1.00  0.00    -0.617 OA
ENDBRANCH  11  12
ENDBRANCH  10  11
ENDBRANCH   3  10
BRANCH   9  16
HETATM   16  O8  UNL     1      19.805   1.341  18.062  1.00  0.00    -0.358 OA
ATOM     17  H8  UNL     1      19.880   0.931  17.208  1.00  0.00     0.217 HD
ENDBRANCH   9  16
ENDBRANCH   1   2
BRANCH   1  18
HETATM   18  N2  UNL     1      18.776  -0.400  19.878  1.00  0.00    -0.054 N 
ATOM     19  H22 UNL     1      18.541   0.335  19.210  1.00  0.00     0.278 HD
ATOM     20  H21 UNL     1      19.018  -1.142  19.222  1.00  0.00     0.278 HD
BRANCH  18  21
HETATM   21  C8  UNL     1      17.632  -0.763  20.683  1.00  0.00     0.310 C 
BRANCH  21  22
HETATM   22  C9  UNL     1      17.838  -0.292  22.109  1.00  0.00     0.041 C 
HETATM   23  C10 UNL     1      17.572  -1.056  23.150  1.00  0.00     0.133 C 
BRANCH  23  24
HETATM   24  O5  UNL     1      17.761  -0.623  24.462  1.00  0.00    -0.362 OA
BRANCH  24  25
HETATM   25  C11 UNL     1      16.796  -0.999  25.413  1.00  0.00     0.201 C 
BRANCH  25  26
HETATM   26  C12 UNL     1      15.652  -1.769  24.787  1.00  0.00     0.256 C 
BRANCH  26  27
HETATM   27  N3  UNL     1      15.674  -3.107  25.321  1.00  0.00    -0.077 N 
ATOM     28  H33 UNL     1      15.613  -3.822  24.597  1.00  0.00     0.274 HD
ATOM     29  H32 UNL     1      16.587  -3.368  25.693  1.00  0.00     0.274 HD
ATOM     30  H31 UNL     1      14.929  -3.180  26.013  1.00  0.00     0.274 HD
ENDBRANCH  26  27
ENDBRANCH  25  26
ENDBRANCH  24  25
ENDBRANCH  23  24
ENDBRANCH  21  22
BRANCH  21  31
HETATM   31  C13 UNL     1      16.381  -0.088  20.247  1.00  0.00     0.208 C 
HETATM   32  O6  UNL     1      16.432   0.822  19.400  1.00  0.00    -0.646 OA
HETATM   33  O7  UNL     1      15.144  -0.447  20.761  1.00  0.00    -0.646 OA
ENDBRANCH  21  31
ENDBRANCH  18  21
ENDBRANCH   1  18
TORSDOF 13
ENDMDL
