MODEL 2
REMARK VINA RESULT: -9.369810932      1.256      1.298
REMARK  13 active torsions:
REMARK  status: ('A' for Active; 'I' for Inactive)
REMARK    1  A    between atoms: C4_6  and  C5_7 
REMARK    2  A    between atoms: C5_7  and  O1_8 
REMARK    3  A    between atoms: O1_8  and  P1_9 
REMARK    4  A    between atoms: C6_13  and  C7_14 
REMARK    5  A    between atoms: C7_14  and  N2_15 
REMARK    6  A    between atoms: N2_15  and  C8_18 
REMARK    7  A    between atoms: C8_18  and  C9_19 
REMARK    8  A    between atoms: C8_18  and  C13_28 
REMARK    9  A    between atoms: C10_20  and  O5_21 
REMARK   10  A    between atoms: O5_21  and  C11_22 
REMARK   11  A    between atoms: C11_22  and  C12_23 
REMARK   12  A    between atoms: C12_23  and  N3_24 
REMARK   13  A    between atoms: C14_31  and  O8_32 
ROOT
HETATM    1  C7  UNL     1      19.946  -0.128  20.644  1.00  0.00     0.275 C 
ENDROOT
BRANCH   1   2
HETATM    2  C6  UNL     1      21.015   0.684  20.078  1.00  0.00     0.012 A 
HETATM    3  C4  UNL     1      22.212   0.776  20.839  1.00  0.00    -0.008 A 
HETATM    4  C3  UNL     1      23.219   1.520  20.332  1.00  0.00     0.098 A 
HETATM    5  N1  UNL     1      23.151   2.171  19.153  1.00  0.00    -0.367 N 
HETATM    6  C2  UNL     1      22.047   2.108  18.413  1.00  0.00     0.039 A 
ATOM      7  H1  UNL     1      23.949   2.716  18.827  1.00  0.00     0.165 HD
HETATM    8  C1  UNL     1      21.964   2.829  17.101  1.00  0.00     0.071 C 
HETATM    9  C14 UNL     1      20.962   1.353  18.883  1.00  0.00     0.096 A 
BRANCH   3  10
HETATM   10  C5  UNL     1      22.215   0.075  22.142  1.00  0.00     0.223 C 
BRANCH  10  11
HETATM   11  O1  UNL     1      22.706  -1.188  22.146  1.00  0.00    -0.278 OA
BRANCH  11  12
HETATM   12  P1  UNL     1      23.864  -1.716  22.971  1.00  0.00     0.422 P 
HETATM   13  O2  UNL     1      24.251  -0.226  23.481  1.00  0.00    -0.617 OA
HETATM   14  O3  UNL     1      24.982  -2.401  23.796  1.00  0.00    -0.617 OA
HETATM   15  O4  UNL     1      22.718  -2.561  23.865  1.00  0.00    -0.617 OA
ENDBRANCH  11  12
ENDBRANCH  10  11
ENDBRANCH   3  10
BRANCH   9  16
HETATM   16  O8  UNL     1      19.837   1.322  18.070  1.00  0.00    -0.358 OA
ATOM     17  H8  UNL     1      19.910   0.814  17.270  1.00  0.00     0.217 HD
ENDBRANCH   9  16
ENDBRANCH   1   2
BRANCH   1  18
HETATM   18  N2  UNL     1      18.763  -0.335  19.887  1.00  0.00    -0.054 N 
ATOM     19  H22 UNL     1      18.542   0.481  19.315  1.00  0.00     0.278 HD
ATOM     20  H21 UNL     1      18.912  -1.016  19.144  1.00  0.00     0.278 HD
BRANCH  18  21
HETATM   21  C8  UNL     1      17.646  -0.707  20.725  1.00  0.00     0.310 C 
BRANCH  21  22
HETATM   22  C9  UNL     1      17.859  -0.178  22.130  1.00  0.00     0.041 C 
HETATM   23  C10 UNL     1      17.687  -0.928  23.200  1.00  0.00     0.133 C 
BRANCH  23  24
HETATM   24  O5  UNL     1      17.882  -0.441  24.492  1.00  0.00    -0.362 OA
BRANCH  24  25
HETATM   25  C11 UNL     1      16.738  -0.205  25.274  1.00  0.00     0.201 C 
BRANCH  25  26
HETATM   26  C12 UNL     1      16.730   1.189  25.865  1.00  0.00     0.256 C 
BRANCH  26  27
HETATM   27  N3  UNL     1      16.973   2.124  24.796  1.00  0.00    -0.077 N 
ATOM     28  H33 UNL     1      17.768   2.735  24.978  1.00  0.00     0.274 HD
ATOM     29  H32 UNL     1      17.335   1.676  23.954  1.00  0.00     0.274 HD
ATOM     30  H31 UNL     1      16.109   2.639  24.629  1.00  0.00     0.274 HD
ENDBRANCH  26  27
ENDBRANCH  25  26
ENDBRANCH  24  25
ENDBRANCH  23  24
ENDBRANCH  21  22
BRANCH  21  31
HETATM   31  C13 UNL     1      16.365  -0.092  20.287  1.00  0.00     0.208 C 
HETATM   32  O6  UNL     1      16.371   0.795  19.414  1.00  0.00    -0.646 OA
HETATM   33  O7  UNL     1      15.149  -0.483  20.828  1.00  0.00    -0.646 OA
ENDBRANCH  21  31
ENDBRANCH  18  21
ENDBRANCH   1  18
TORSDOF 13
ENDMDL
