MODEL 18
REMARK VINA RESULT: -5.204840981      1.316      2.077
REMARK  9 active torsions:
REMARK  status: ('A' for Active; 'I' for Inactive)
REMARK    1  A    between atoms: O1_1  and  C1_3 
REMARK    2  A    between atoms: C2_4  and  O2_5 
REMARK    3  A    between atoms: C3_7  and  O3_8 
REMARK    4  A    between atoms: O3_8  and  P1_9 
REMARK    5  A    between atoms: C4_13  and  O7_14 
REMARK    6  A    between atoms: C5_16  and  O8_17 
REMARK    7  A    between atoms: O8_17  and  P2_18 
REMARK    8  A    between atoms: C6_22  and  O12_23 
REMARK    9  A    between atoms: O12_23  and  P3_24 
ROOT
HETATM    1  C1  UNL     1      33.542  18.267   7.084  1.00  0.00     0.181 C 
HETATM    2  C2  UNL     1      34.683  18.585   6.182  1.00  0.00     0.181 C 
HETATM    3  C3  UNL     1      34.518  18.067   4.777  1.00  0.00     0.198 C 
HETATM    4  C4  UNL     1      34.093  16.618   4.786  1.00  0.00     0.182 C 
HETATM    5  C5  UNL     1      32.862  16.398   5.626  1.00  0.00     0.199 C 
HETATM    6  C6  UNL     1      33.155  16.800   7.062  1.00  0.00     0.199 C 
ENDROOT
BRANCH   3   7
HETATM    7  O3  UNL     1      35.763  18.162   4.157  1.00  0.00    -0.272 OA
BRANCH   7   8
HETATM    8  P1  UNL     1      35.829  18.911   2.813  1.00  0.00     0.422 P 
HETATM    9  O4  UNL     1      35.863  19.758   1.530  1.00  0.00    -0.617 OA
HETATM   10  O5  UNL     1      36.198  17.526   1.986  1.00  0.00    -0.617 OA
HETATM   11  O6  UNL     1      34.216  19.282   3.025  1.00  0.00    -0.617 OA
ENDBRANCH   7   8
ENDBRANCH   3   7
BRANCH   2  12
HETATM   12  O2  UNL     1      35.906  18.162   6.725  1.00  0.00    -0.390 OA
ATOM     13  H2  UNL     1      36.135  17.287   6.435  1.00  0.00     0.210 HD
ENDBRANCH   2  12
BRANCH   4  14
HETATM   14  O7  UNL     1      33.849  16.174   3.510  1.00  0.00    -0.390 OA
ATOM     15  H7  UNL     1      34.616  15.741   3.152  1.00  0.00     0.210 HD
ENDBRANCH   4  14
BRANCH   1  16
HETATM   16  O1  UNL     1      33.959  18.547   8.402  1.00  0.00    -0.390 OA
ATOM     17  H1  UNL     1      34.325  19.423   8.402  1.00  0.00     0.210 HD
ENDBRANCH   1  16
BRANCH   5  18
HETATM   18  O8  UNL     1      32.491  15.089   5.546  1.00  0.00    -0.272 OA
BRANCH  18  19
HETATM   19  P2  UNL     1      31.305  14.802   4.434  1.00  0.00     0.422 P 
HETATM   20  O9  UNL     1      30.855  13.527   5.142  1.00  0.00    -0.617 OA
HETATM   21  O10 UNL     1      29.764  15.444   4.723  1.00  0.00    -0.617 OA
HETATM   22  O11 UNL     1      31.614  14.156   2.985  1.00  0.00    -0.617 OA
ENDBRANCH  18  19
ENDBRANCH   5  18
BRANCH   6  23
HETATM   23  O12 UNL     1      32.023  16.670   7.819  1.00  0.00    -0.272 OA
BRANCH  23  24
HETATM   24  P3  UNL     1      32.324  15.704   9.110  1.00  0.00     0.422 P 
HETATM   25  O13 UNL     1      33.684  15.261   8.561  1.00  0.00    -0.617 OA
HETATM   26  O14 UNL     1      30.969  16.080   9.715  1.00  0.00    -0.617 OA
HETATM   27  O15 UNL     1      31.849  14.104   9.017  1.00  0.00    -0.617 OA
ENDBRANCH  23  24
ENDBRANCH   6  23
TORSDOF 9
ENDMDL
