MODEL 1
REMARK VINA RESULT: -5.992778732      0.000      0.000
REMARK  9 active torsions:
REMARK  status: ('A' for Active; 'I' for Inactive)
REMARK    1  A    between atoms: O1_1  and  C1_3 
REMARK    2  A    between atoms: C2_4  and  O2_5 
REMARK    3  A    between atoms: C3_7  and  O3_8 
REMARK    4  A    between atoms: O3_8  and  P1_9 
REMARK    5  A    between atoms: C4_13  and  O7_14 
REMARK    6  A    between atoms: C5_16  and  O8_17 
REMARK    7  A    between atoms: O8_17  and  P2_18 
REMARK    8  A    between atoms: C6_22  and  O12_23 
REMARK    9  A    between atoms: O12_23  and  P3_24 
ROOT
HETATM    1  C1  UNL     1      32.976  18.480   5.870  1.00  0.00     0.181 C 
HETATM    2  C2  UNL     1      33.841  18.970   4.761  1.00  0.00     0.181 C 
HETATM    3  C3  UNL     1      33.631  18.250   3.455  1.00  0.00     0.198 C 
HETATM    4  C4  UNL     1      33.639  16.753   3.660  1.00  0.00     0.182 C 
HETATM    5  C5  UNL     1      32.653  16.325   4.716  1.00  0.00     0.199 C 
HETATM    6  C6  UNL     1      33.021  16.973   6.041  1.00  0.00     0.199 C 
ENDROOT
BRANCH   3   7
HETATM    7  O3  UNL     1      34.696  18.591   2.624  1.00  0.00    -0.272 OA
BRANCH   7   8
HETATM    8  P1  UNL     1      34.389  19.494   1.415  1.00  0.00     0.422 P 
HETATM    9  O4  UNL     1      34.194  20.440   0.218  1.00  0.00    -0.617 OA
HETATM   10  O5  UNL     1      32.832  18.943   1.316  1.00  0.00    -0.617 OA
HETATM   11  O6  UNL     1      34.689  20.801   2.409  1.00  0.00    -0.617 OA
ENDBRANCH   7   8
ENDBRANCH   3   7
BRANCH   2  12
HETATM   12  O2  UNL     1      35.198  18.961   5.119  1.00  0.00    -0.390 OA
ATOM     13  H2  UNL     1      35.631  18.167   4.830  1.00  0.00     0.210 HD
ENDBRANCH   2  12
BRANCH   4  14
HETATM   14  O7  UNL     1      33.351  16.100   2.487  1.00  0.00    -0.390 OA
ATOM     15  H7  UNL     1      32.779  15.358   2.647  1.00  0.00     0.210 HD
ENDBRANCH   4  14
BRANCH   1  16
HETATM   16  O1  UNL     1      33.481  19.028   7.069  1.00  0.00    -0.390 OA
ATOM     17  H1  UNL     1      33.206  18.458   7.778  1.00  0.00     0.210 HD
ENDBRANCH   1  16
BRANCH   5  18
HETATM   18  O8  UNL     1      32.660  14.966   4.812  1.00  0.00    -0.272 OA
BRANCH  18  19
HETATM   19  P2  UNL     1      31.164  14.282   4.672  1.00  0.00     0.422 P 
HETATM   20  O9  UNL     1      31.343  14.032   3.177  1.00  0.00    -0.617 OA
HETATM   21  O10 UNL     1      31.027  12.607   4.883  1.00  0.00    -0.617 OA
HETATM   22  O11 UNL     1      29.813  15.165   4.591  1.00  0.00    -0.617 OA
ENDBRANCH  18  19
ENDBRANCH   5  18
BRANCH   6  23
HETATM   23  O12 UNL     1      32.093  16.646   6.990  1.00  0.00    -0.272 OA
BRANCH  23  24
HETATM   24  P3  UNL     1      32.841  16.026   8.312  1.00  0.00     0.422 P 
HETATM   25  O13 UNL     1      31.564  16.078   9.156  1.00  0.00    -0.617 OA
HETATM   26  O14 UNL     1      34.163  15.964   7.542  1.00  0.00    -0.617 OA
HETATM   27  O15 UNL     1      33.517  17.098   9.402  1.00  0.00    -0.617 OA
ENDBRANCH  23  24
ENDBRANCH   6  23
TORSDOF 9
ENDMDL
