MODEL 5
REMARK VINA RESULT: -5.682073783      6.028      9.295
REMARK  9 active torsions:
REMARK  status: ('A' for Active; 'I' for Inactive)
REMARK    1  A    between atoms: O1_1  and  C1_3 
REMARK    2  A    between atoms: C2_4  and  O2_5 
REMARK    3  A    between atoms: C3_7  and  O3_8 
REMARK    4  A    between atoms: O3_8  and  P1_9 
REMARK    5  A    between atoms: C4_13  and  O7_14 
REMARK    6  A    between atoms: C5_16  and  O8_17 
REMARK    7  A    between atoms: O8_17  and  P2_18 
REMARK    8  A    between atoms: C6_22  and  O12_23 
REMARK    9  A    between atoms: O12_23  and  P3_24 
ROOT
HETATM    1  C1  UNL     1      33.298  12.896  10.662  1.00  0.00     0.181 C 
HETATM    2  C2  UNL     1      33.496  11.677  11.494  1.00  0.00     0.181 C 
HETATM    3  C3  UNL     1      33.006  10.407  10.848  1.00  0.00     0.198 C 
HETATM    4  C4  UNL     1      31.610  10.589  10.299  1.00  0.00     0.182 C 
HETATM    5  C5  UNL     1      31.520  11.775   9.374  1.00  0.00     0.199 C 
HETATM    6  C6  UNL     1      31.882  13.038  10.138  1.00  0.00     0.199 C 
ENDROOT
BRANCH   3   7
HETATM    7  O3  UNL     1      32.969   9.431  11.842  1.00  0.00    -0.272 OA
BRANCH   7   8
HETATM    8  P1  UNL     1      34.111   8.397  11.861  1.00  0.00     0.422 P 
HETATM    9  O4  UNL     1      35.269   7.391  11.765  1.00  0.00    -0.617 OA
HETATM   10  O5  UNL     1      33.803   7.990  13.435  1.00  0.00    -0.617 OA
HETATM   11  O6  UNL     1      33.284   7.572  10.670  1.00  0.00    -0.617 OA
ENDBRANCH   7   8
ENDBRANCH   3   7
BRANCH   2  12
HETATM   12  O2  UNL     1      32.941  11.828  12.775  1.00  0.00    -0.390 OA
ATOM     13  H2  UNL     1      33.367  11.264  13.410  1.00  0.00     0.210 HD
ENDBRANCH   2  12
BRANCH   4  14
HETATM   14  O7  UNL     1      31.201   9.464   9.627  1.00  0.00    -0.390 OA
ATOM     15  H7  UNL     1      30.255   9.447   9.544  1.00  0.00     0.210 HD
ENDBRANCH   4  14
BRANCH   1  16
HETATM   16  O1  UNL     1      33.525  14.012  11.495  1.00  0.00    -0.390 OA
ATOM     17  H1  UNL     1      33.922  13.691  12.296  1.00  0.00     0.210 HD
ENDBRANCH   1  16
BRANCH   5  18
HETATM   18  O8  UNL     1      30.260  11.851   8.863  1.00  0.00    -0.272 OA
BRANCH  18  19
HETATM   19  P2  UNL     1      30.181  11.558   7.240  1.00  0.00     0.422 P 
HETATM   20  O9  UNL     1      28.697  11.907   7.178  1.00  0.00    -0.617 OA
HETATM   21  O10 UNL     1      30.475  12.845   6.179  1.00  0.00    -0.617 OA
HETATM   22  O11 UNL     1      30.086  10.063   6.634  1.00  0.00    -0.617 OA
ENDBRANCH  18  19
ENDBRANCH   5  18
BRANCH   6  23
HETATM   23  O12 UNL     1      31.871  14.111   9.290  1.00  0.00    -0.272 OA
BRANCH  23  24
HETATM   24  P3  UNL     1      31.069  15.362   9.985  1.00  0.00     0.422 P 
HETATM   25  O13 UNL     1      31.612  16.375   8.972  1.00  0.00    -0.617 OA
HETATM   26  O14 UNL     1      30.504  14.417  11.048  1.00  0.00    -0.617 OA
HETATM   27  O15 UNL     1      31.861  16.236  11.170  1.00  0.00    -0.617 OA
ENDBRANCH  23  24
ENDBRANCH   6  23
TORSDOF 9
ENDMDL
