MODEL 2
REMARK VINA RESULT: -5.896975526      8.282     11.088
REMARK  9 active torsions:
REMARK  status: ('A' for Active; 'I' for Inactive)
REMARK    1  A    between atoms: O1_1  and  C1_3 
REMARK    2  A    between atoms: C2_4  and  O2_5 
REMARK    3  A    between atoms: C3_7  and  O3_8 
REMARK    4  A    between atoms: O3_8  and  P1_9 
REMARK    5  A    between atoms: C4_13  and  O7_14 
REMARK    6  A    between atoms: C5_16  and  O8_17 
REMARK    7  A    between atoms: O8_17  and  P2_18 
REMARK    8  A    between atoms: C6_22  and  O12_23 
REMARK    9  A    between atoms: O12_23  and  P3_24 
ROOT
HETATM    1  C1  UNL     1      32.844   7.905   9.851  1.00  0.00     0.181 C 
HETATM    2  C2  UNL     1      33.889   8.040  10.903  1.00  0.00     0.181 C 
HETATM    3  C3  UNL     1      33.672   9.199  11.839  1.00  0.00     0.198 C 
HETATM    4  C4  UNL     1      33.372  10.463  11.067  1.00  0.00     0.182 C 
HETATM    5  C5  UNL     1      32.225  10.277  10.108  1.00  0.00     0.199 C 
HETATM    6  C6  UNL     1      32.582   9.197   9.101  1.00  0.00     0.199 C 
ENDROOT
BRANCH   3   7
HETATM    7  O3  UNL     1      34.858   9.381  12.547  1.00  0.00    -0.272 OA
BRANCH   7   8
HETATM    8  P1  UNL     1      34.967   8.711  13.929  1.00  0.00     0.422 P 
HETATM    9  O4  UNL     1      35.006   8.129  15.352  1.00  0.00    -0.617 OA
HETATM   10  O5  UNL     1      35.986   7.542  13.354  1.00  0.00    -0.617 OA
HETATM   11  O6  UNL     1      35.648  10.130  14.482  1.00  0.00    -0.617 OA
ENDBRANCH   7   8
ENDBRANCH   3   7
BRANCH   2  12
HETATM   12  O2  UNL     1      35.178   8.085  10.349  1.00  0.00    -0.390 OA
ATOM     13  H2  UNL     1      35.383   7.289   9.873  1.00  0.00     0.210 HD
ENDBRANCH   2  12
BRANCH   4  14
HETATM   14  O7  UNL     1      33.079  11.497  11.921  1.00  0.00    -0.390 OA
ATOM     15  H7  UNL     1      32.668  12.214  11.453  1.00  0.00     0.210 HD
ENDBRANCH   4  14
BRANCH   1  16
HETATM   16  O1  UNL     1      33.326   6.984   8.896  1.00  0.00    -0.390 OA
ATOM     17  H1  UNL     1      33.126   7.337   8.037  1.00  0.00     0.210 HD
ENDBRANCH   1  16
BRANCH   5  18
HETATM   18  O8  UNL     1      31.962  11.462   9.489  1.00  0.00    -0.272 OA
BRANCH  18  19
HETATM   19  P2  UNL     1      30.490  12.103   9.879  1.00  0.00     0.422 P 
HETATM   20  O9  UNL     1      29.990  10.781  10.455  1.00  0.00    -0.617 OA
HETATM   21  O10 UNL     1      30.297  12.787  11.416  1.00  0.00    -0.617 OA
HETATM   22  O11 UNL     1      29.325  12.325   8.782  1.00  0.00    -0.617 OA
ENDBRANCH  18  19
ENDBRANCH   5  18
BRANCH   6  23
HETATM   23  O12 UNL     1      31.520   8.972   8.268  1.00  0.00    -0.272 OA
BRANCH  23  24
HETATM   24  P3  UNL     1      31.871   9.513   6.759  1.00  0.00     0.422 P 
HETATM   25  O13 UNL     1      30.401   9.792   6.432  1.00  0.00    -0.617 OA
HETATM   26  O14 UNL     1      33.358   9.241   7.001  1.00  0.00    -0.617 OA
HETATM   27  O15 UNL     1      31.862   8.404   5.509  1.00  0.00    -0.617 OA
ENDBRANCH  23  24
ENDBRANCH   6  23
TORSDOF 9
ENDMDL
