MODEL 13
REMARK VINA RESULT: -5.392861232      1.453      1.984
REMARK  9 active torsions:
REMARK  status: ('A' for Active; 'I' for Inactive)
REMARK    1  A    between atoms: O1_1  and  C1_3 
REMARK    2  A    between atoms: C2_4  and  O2_5 
REMARK    3  A    between atoms: C3_7  and  O3_8 
REMARK    4  A    between atoms: O3_8  and  P1_9 
REMARK    5  A    between atoms: C4_13  and  O7_14 
REMARK    6  A    between atoms: C5_16  and  O8_17 
REMARK    7  A    between atoms: O8_17  and  P2_18 
REMARK    8  A    between atoms: C6_22  and  O12_23 
REMARK    9  A    between atoms: O12_23  and  P3_24 
ROOT
HETATM    1  C1  UNL     1      33.572  18.787   4.728  1.00  0.00     0.181 C 
HETATM    2  C2  UNL     1      34.596  18.868   3.650  1.00  0.00     0.181 C 
HETATM    3  C3  UNL     1      34.451  17.812   2.585  1.00  0.00     0.198 C 
HETATM    4  C4  UNL     1      34.280  16.445   3.205  1.00  0.00     0.182 C 
HETATM    5  C5  UNL     1      33.148  16.417   4.199  1.00  0.00     0.199 C 
HETATM    6  C6  UNL     1      33.440  17.398   5.323  1.00  0.00     0.199 C 
ENDROOT
BRANCH   3   7
HETATM    7  O3  UNL     1      35.629  17.818   1.840  1.00  0.00    -0.272 OA
BRANCH   7   8
HETATM    8  P1  UNL     1      35.548  18.342   0.394  1.00  0.00     0.422 P 
HETATM    9  O4  UNL     1      35.365  18.805  -1.061  1.00  0.00    -0.617 OA
HETATM   10  O5  UNL     1      37.008  19.109   0.522  1.00  0.00    -0.617 OA
HETATM   11  O6  UNL     1      35.549  16.749  -0.104  1.00  0.00    -0.617 OA
ENDBRANCH   7   8
ENDBRANCH   3   7
BRANCH   2  12
HETATM   12  O2  UNL     1      35.899  18.870   4.171  1.00  0.00    -0.390 OA
ATOM     13  H2  UNL     1      35.898  18.966   5.117  1.00  0.00     0.210 HD
ENDBRANCH   2  12
BRANCH   4  14
HETATM   14  O7  UNL     1      34.051  15.497   2.239  1.00  0.00    -0.390 OA
ATOM     15  H7  UNL     1      34.869  15.206   1.853  1.00  0.00     0.210 HD
ENDBRANCH   4  14
BRANCH   1  16
HETATM   16  O1  UNL     1      34.002  19.627   5.777  1.00  0.00    -0.390 OA
ATOM     17  H1  UNL     1      33.616  20.483   5.630  1.00  0.00     0.210 HD
ENDBRANCH   1  16
BRANCH   5  18
HETATM   18  O8  UNL     1      33.003  15.149   4.677  1.00  0.00    -0.272 OA
BRANCH  18  19
HETATM   19  P2  UNL     1      31.460  14.570   4.566  1.00  0.00     0.422 P 
HETATM   20  O9  UNL     1      31.567  14.377   3.056  1.00  0.00    -0.617 OA
HETATM   21  O10 UNL     1      31.219  12.900   4.710  1.00  0.00    -0.617 OA
HETATM   22  O11 UNL     1      30.168  15.542   4.577  1.00  0.00    -0.617 OA
ENDBRANCH  18  19
ENDBRANCH   5  18
BRANCH   6  23
HETATM   23  O12 UNL     1      32.387  17.430   6.194  1.00  0.00    -0.272 OA
BRANCH  23  24
HETATM   24  P3  UNL     1      32.886  16.971   7.688  1.00  0.00     0.422 P 
HETATM   25  O13 UNL     1      34.366  17.152   7.336  1.00  0.00    -0.617 OA
HETATM   26  O14 UNL     1      31.432  16.744   8.110  1.00  0.00    -0.617 OA
HETATM   27  O15 UNL     1      33.220  15.352   7.938  1.00  0.00    -0.617 OA
ENDBRANCH  23  24
ENDBRANCH   6  23
TORSDOF 9
ENDMDL
