MODEL 4
REMARK VINA RESULT: -5.731847533      7.774     10.344
REMARK  9 active torsions:
REMARK  status: ('A' for Active; 'I' for Inactive)
REMARK    1  A    between atoms: O1_1  and  C1_3 
REMARK    2  A    between atoms: C2_4  and  O2_5 
REMARK    3  A    between atoms: C3_7  and  O3_8 
REMARK    4  A    between atoms: O3_8  and  P1_9 
REMARK    5  A    between atoms: C4_13  and  O7_14 
REMARK    6  A    between atoms: C5_16  and  O8_17 
REMARK    7  A    between atoms: O8_17  and  P2_18 
REMARK    8  A    between atoms: C6_22  and  O12_23 
REMARK    9  A    between atoms: O12_23  and  P3_24 
ROOT
HETATM    1  C1  UNL     1      33.235  10.958  10.902  1.00  0.00     0.181 C 
HETATM    2  C2  UNL     1      34.018   9.842  11.501  1.00  0.00     0.181 C 
HETATM    3  C3  UNL     1      34.419   8.775  10.515  1.00  0.00     0.198 C 
HETATM    4  C4  UNL     1      33.237   8.351   9.675  1.00  0.00     0.182 C 
HETATM    5  C5  UNL     1      32.569   9.526   9.009  1.00  0.00     0.199 C 
HETATM    6  C6  UNL     1      32.057  10.483  10.072  1.00  0.00     0.199 C 
ENDROOT
BRANCH   3   7
HETATM    7  O3  UNL     1      34.855   7.679  11.255  1.00  0.00    -0.272 OA
BRANCH   7   8
HETATM    8  P1  UNL     1      36.375   7.514  11.446  1.00  0.00     0.422 P 
HETATM    9  O4  UNL     1      37.906   7.406  11.532  1.00  0.00    -0.617 OA
HETATM   10  O5  UNL     1      36.172   6.663  12.850  1.00  0.00    -0.617 OA
HETATM   11  O6  UNL     1      36.387   6.657  10.014  1.00  0.00    -0.617 OA
ENDBRANCH   7   8
ENDBRANCH   3   7
BRANCH   2  12
HETATM   12  O2  UNL     1      33.356   9.277  12.601  1.00  0.00    -0.390 OA
ATOM     13  H2  UNL     1      33.840   8.544  12.964  1.00  0.00     0.210 HD
ENDBRANCH   2  12
BRANCH   4  14
HETATM   14  O7  UNL     1      33.622   7.450   8.713  1.00  0.00    -0.390 OA
ATOM     15  H7  UNL     1      32.869   7.129   8.232  1.00  0.00     0.210 HD
ENDBRANCH   4  14
BRANCH   1  16
HETATM   16  O1  UNL     1      32.691  11.707  11.967  1.00  0.00    -0.390 OA
ATOM     17  H1  UNL     1      31.749  11.726  11.847  1.00  0.00     0.210 HD
ENDBRANCH   1  16
BRANCH   5  18
HETATM   18  O8  UNL     1      31.554   9.077   8.219  1.00  0.00    -0.272 OA
BRANCH  18  19
HETATM   19  P2  UNL     1      31.687   9.540   6.639  1.00  0.00     0.422 P 
HETATM   20  O9  UNL     1      30.449   8.747   6.231  1.00  0.00    -0.617 OA
HETATM   21  O10 UNL     1      30.883  10.948   6.148  1.00  0.00    -0.617 OA
HETATM   22  O11 UNL     1      32.738   8.854   5.621  1.00  0.00    -0.617 OA
ENDBRANCH  18  19
ENDBRANCH   5  18
BRANCH   6  23
HETATM   23  O12 UNL     1      31.511  11.587   9.477  1.00  0.00    -0.272 OA
BRANCH  23  24
HETATM   24  P3  UNL     1      30.034  11.894  10.122  1.00  0.00     0.422 P 
HETATM   25  O13 UNL     1      29.998  13.319   9.560  1.00  0.00    -0.617 OA
HETATM   26  O14 UNL     1      30.004  10.493  10.736  1.00  0.00    -0.617 OA
HETATM   27  O15 UNL     1      29.973  12.574  11.647  1.00  0.00    -0.617 OA
ENDBRANCH  23  24
ENDBRANCH   6  23
TORSDOF 9
ENDMDL
