MODEL 10
REMARK VINA RESULT: -7.729038032      4.302      7.374
REMARK  7 active torsions:
REMARK  status: ('A' for Active; 'I' for Inactive)
REMARK    1  A    between atoms: C1_2  and  C2_4 
REMARK    2  A    between atoms: N3_8  and  C4_9 
REMARK    3  A    between atoms: C5_11  and  C6_12 
REMARK    4  A    between atoms: C6_12  and  O3_13 
REMARK    5  A    between atoms: O3_13  and  P1_14 
REMARK    6  A    between atoms: C7_18  and  O7_19 
REMARK    7  A    between atoms: C8_21  and  O8_22 
ROOT
HETATM    1  C4  UNL     1      64.362  54.656  16.254  1.00  0.00     0.276 C 
HETATM    2  O2  UNL     1      63.234  55.161  15.569  1.00  0.00    -0.352 OA
HETATM    3  C5  UNL     1      62.214  54.826  16.448  1.00  0.00     0.180 C 
HETATM    4  C7  UNL     1      62.753  54.668  17.834  1.00  0.00     0.182 C 
HETATM    5  C8  UNL     1      64.094  55.397  17.578  1.00  0.00     0.200 C 
ENDROOT
BRANCH   1   6
HETATM    6  N3  UNL     1      65.614  54.880  15.695  1.00  0.00    -0.254 N 
HETATM    7  C3  UNL     1      65.854  55.475  14.505  1.00  0.00     0.205 A 
HETATM    8  N2  UNL     1      67.206  55.514  14.268  1.00  0.00    -0.332 N 
HETATM    9  C2  UNL     1      67.775  54.924  15.347  1.00  0.00     0.187 A 
ATOM     10  H2  UNL     1      67.680  55.904  13.454  1.00  0.00     0.168 HD
HETATM   11  N4  UNL     1      66.793  54.547  16.198  1.00  0.00    -0.276 N 
ATOM     12  H4  UNL     1      66.938  54.077  17.091  1.00  0.00     0.189 HD
BRANCH   9  13
HETATM   13  C1  UNL     1      69.207  54.741  15.611  1.00  0.00     0.300 C 
HETATM   14  N1  UNL     1      69.794  53.717  14.764  1.00  0.00    -0.054 NA
HETATM   15  O1  UNL     1      69.898  55.336  16.416  1.00  0.00    -0.268 OA
ENDBRANCH   9  13
ENDBRANCH   1   6
BRANCH   5  16
HETATM   16  O8  UNL     1      65.022  55.121  18.520  1.00  0.00    -0.388 OA
ATOM     17  H8  UNL     1      65.908  55.185  18.183  1.00  0.00     0.210 HD
ENDBRANCH   5  16
BRANCH   3  18
HETATM   18  C6  UNL     1      61.088  55.794  16.421  1.00  0.00     0.217 C 
BRANCH  18  19
HETATM   19  O3  UNL     1      60.344  55.364  15.283  1.00  0.00    -0.280 OA
BRANCH  19  20
HETATM   20  P1  UNL     1      59.184  56.587  15.007  1.00  0.00     0.422 P 
HETATM   21  O4  UNL     1      59.557  57.699  16.085  1.00  0.00    -0.617 OA
HETATM   22  O5  UNL     1      59.231  57.222  13.525  1.00  0.00    -0.617 OA
HETATM   23  O6  UNL     1      57.710  55.961  15.464  1.00  0.00    -0.617 OA
ENDBRANCH  19  20
ENDBRANCH  18  19
ENDBRANCH   3  18
BRANCH   4  24
HETATM   24  O7  UNL     1      63.108  53.335  18.090  1.00  0.00    -0.390 OA
ATOM     25  H7  UNL     1      63.865  53.077  17.577  1.00  0.00     0.210 HD
ENDBRANCH   4  24
TORSDOF 7
ENDMDL
