MODEL 7
REMARK VINA RESULT: -7.912165271      3.477      6.675
REMARK  7 active torsions:
REMARK  status: ('A' for Active; 'I' for Inactive)
REMARK    1  A    between atoms: C1_2  and  C2_4 
REMARK    2  A    between atoms: N3_8  and  C4_9 
REMARK    3  A    between atoms: C5_11  and  C6_12 
REMARK    4  A    between atoms: C6_12  and  O3_13 
REMARK    5  A    between atoms: O3_13  and  P1_14 
REMARK    6  A    between atoms: C7_18  and  O7_19 
REMARK    7  A    between atoms: C8_21  and  O8_22 
ROOT
HETATM    1  C4  UNL     1      64.376  55.097  15.903  1.00  0.00     0.276 C 
HETATM    2  O2  UNL     1      63.748  56.325  16.211  1.00  0.00    -0.352 OA
HETATM    3  C5  UNL     1      62.539  55.884  16.731  1.00  0.00     0.180 C 
HETATM    4  C7  UNL     1      62.674  54.489  17.251  1.00  0.00     0.182 C 
HETATM    5  C8  UNL     1      64.221  54.478  17.305  1.00  0.00     0.200 C 
ENDROOT
BRANCH   1   6
HETATM    6  N3  UNL     1      65.678  55.140  15.417  1.00  0.00    -0.254 N 
HETATM    7  C3  UNL     1      66.048  55.537  14.179  1.00  0.00     0.205 A 
HETATM    8  N2  UNL     1      67.410  55.435  14.046  1.00  0.00    -0.332 N 
HETATM    9  C2  UNL     1      67.852  54.962  15.236  1.00  0.00     0.187 A 
ATOM     10  H2  UNL     1      67.970  55.666  13.225  1.00  0.00     0.168 HD
HETATM   11  N4  UNL     1      66.786  54.789  16.051  1.00  0.00    -0.276 N 
ATOM     12  H4  UNL     1      66.829  54.442  17.009  1.00  0.00     0.189 HD
BRANCH   9  13
HETATM   13  C1  UNL     1      69.241  54.705  15.633  1.00  0.00     0.300 C 
HETATM   14  N1  UNL     1      69.879  53.712  14.786  1.00  0.00    -0.054 NA
HETATM   15  O1  UNL     1      69.864  55.221  16.542  1.00  0.00    -0.268 OA
ENDBRANCH   9  13
ENDBRANCH   1   6
BRANCH   5  16
HETATM   16  O8  UNL     1      64.728  53.228  17.375  1.00  0.00    -0.388 OA
ATOM     17  H8  UNL     1      64.356  52.650  16.719  1.00  0.00     0.210 HD
ENDBRANCH   5  16
BRANCH   3  18
HETATM   18  C6  UNL     1      61.993  56.791  17.772  1.00  0.00     0.217 C 
BRANCH  18  19
HETATM   19  O3  UNL     1      63.136  57.561  18.136  1.00  0.00    -0.280 OA
BRANCH  19  20
HETATM   20  P1  UNL     1      63.172  57.547  19.844  1.00  0.00     0.422 P 
HETATM   21  O4  UNL     1      61.818  58.281  20.247  1.00  0.00    -0.617 OA
HETATM   22  O5  UNL     1      63.212  56.071  20.494  1.00  0.00    -0.617 OA
HETATM   23  O6  UNL     1      64.413  58.558  20.304  1.00  0.00    -0.617 OA
ENDBRANCH  19  20
ENDBRANCH  18  19
ENDBRANCH   3  18
BRANCH   4  24
HETATM   24  O7  UNL     1      62.339  53.547  16.267  1.00  0.00    -0.390 OA
ATOM     25  H7  UNL     1      62.790  53.728  15.451  1.00  0.00     0.210 HD
ENDBRANCH   4  24
TORSDOF 7
ENDMDL
