MODEL 9
REMARK VINA RESULT: -7.778743333      3.659      6.870
REMARK  7 active torsions:
REMARK  status: ('A' for Active; 'I' for Inactive)
REMARK    1  A    between atoms: C1_2  and  C2_4 
REMARK    2  A    between atoms: N3_8  and  C4_9 
REMARK    3  A    between atoms: C5_11  and  C6_12 
REMARK    4  A    between atoms: C6_12  and  O3_13 
REMARK    5  A    between atoms: O3_13  and  P1_14 
REMARK    6  A    between atoms: C7_18  and  O7_19 
REMARK    7  A    between atoms: C8_21  and  O8_22 
ROOT
HETATM    1  C4  UNL     1      62.765  55.055  18.035  1.00  0.00     0.276 C 
HETATM    2  O2  UNL     1      61.794  55.872  17.414  1.00  0.00    -0.352 OA
HETATM    3  C5  UNL     1      61.012  56.233  18.502  1.00  0.00     0.180 C 
HETATM    4  C7  UNL     1      61.802  56.131  19.767  1.00  0.00     0.182 C 
HETATM    5  C8  UNL     1      63.195  56.089  19.094  1.00  0.00     0.200 C 
ENDROOT
BRANCH   1   6
HETATM    6  N3  UNL     1      63.794  54.556  17.245  1.00  0.00    -0.254 N 
HETATM    7  C3  UNL     1      63.947  53.269  16.864  1.00  0.00     0.205 A 
HETATM    8  N2  UNL     1      65.081  53.140  16.102  1.00  0.00    -0.332 N 
HETATM    9  C2  UNL     1      65.610  54.385  16.035  1.00  0.00     0.187 A 
ATOM     10  H2  UNL     1      65.447  52.288  15.676  1.00  0.00     0.168 HD
HETATM   11  N4  UNL     1      64.816  55.227  16.735  1.00  0.00    -0.276 N 
ATOM     12  H4  UNL     1      64.979  56.226  16.853  1.00  0.00     0.189 HD
BRANCH   9  13
HETATM   13  C1  UNL     1      66.814  54.804  15.307  1.00  0.00     0.300 C 
HETATM   14  N1  UNL     1      66.517  55.786  14.278  1.00  0.00    -0.054 NA
HETATM   15  O1  UNL     1      67.958  54.433  15.483  1.00  0.00    -0.268 OA
ENDBRANCH   9  13
ENDBRANCH   1   6
BRANCH   5  16
HETATM   16  O8  UNL     1      64.155  55.615  19.917  1.00  0.00    -0.388 OA
ATOM     17  H8  UNL     1      64.904  56.196  19.971  1.00  0.00     0.210 HD
ENDBRANCH   5  16
BRANCH   3  18
HETATM   18  C6  UNL     1      60.409  57.583  18.357  1.00  0.00     0.217 C 
BRANCH  18  19
HETATM   19  O3  UNL     1      61.135  58.124  17.255  1.00  0.00    -0.280 OA
BRANCH  19  20
HETATM   20  P1  UNL     1      61.644  59.674  17.761  1.00  0.00     0.422 P 
HETATM   21  O4  UNL     1      63.077  59.401  18.402  1.00  0.00    -0.617 OA
HETATM   22  O5  UNL     1      61.772  60.752  16.569  1.00  0.00    -0.617 OA
HETATM   23  O6  UNL     1      60.643  60.120  19.015  1.00  0.00    -0.617 OA
ENDBRANCH  19  20
ENDBRANCH  18  19
ENDBRANCH   3  18
BRANCH   4  24
HETATM   24  O7  UNL     1      61.649  54.869  20.360  1.00  0.00    -0.390 OA
ATOM     25  H7  UNL     1      61.446  54.207  19.710  1.00  0.00     0.210 HD
ENDBRANCH   4  24
TORSDOF 7
ENDMDL
