MODEL 5
REMARK VINA RESULT: -8.000832996      2.768      3.503
REMARK  7 active torsions:
REMARK  status: ('A' for Active; 'I' for Inactive)
REMARK    1  A    between atoms: C1_2  and  C2_4 
REMARK    2  A    between atoms: N3_8  and  C4_9 
REMARK    3  A    between atoms: C5_11  and  C6_12 
REMARK    4  A    between atoms: C6_12  and  O3_13 
REMARK    5  A    between atoms: O3_13  and  P1_14 
REMARK    6  A    between atoms: C7_18  and  O7_19 
REMARK    7  A    between atoms: C8_21  and  O8_22 
ROOT
HETATM    1  C4  UNL     1      63.154  55.916  16.978  1.00  0.00     0.276 C 
HETATM    2  O2  UNL     1      63.964  55.760  15.830  1.00  0.00    -0.352 OA
HETATM    3  C5  UNL     1      65.111  55.211  16.385  1.00  0.00     0.180 C 
HETATM    4  C7  UNL     1      64.791  54.532  17.677  1.00  0.00     0.182 C 
HETATM    5  C8  UNL     1      63.261  54.454  17.453  1.00  0.00     0.200 C 
ENDROOT
BRANCH   1   6
HETATM    6  N3  UNL     1      61.857  56.384  16.797  1.00  0.00    -0.254 N 
HETATM    7  C3  UNL     1      61.209  57.251  17.606  1.00  0.00     0.205 A 
HETATM    8  N2  UNL     1      59.943  57.476  17.128  1.00  0.00    -0.332 N 
HETATM    9  C2  UNL     1      59.843  56.719  16.009  1.00  0.00     0.187 A 
ATOM     10  H2  UNL     1      59.229  58.085  17.529  1.00  0.00     0.168 HD
HETATM   11  N4  UNL     1      61.013  56.065  15.828  1.00  0.00    -0.276 N 
ATOM     12  H4  UNL     1      61.215  55.423  15.062  1.00  0.00     0.189 HD
BRANCH   9  13
HETATM   13  C1  UNL     1      58.698  56.624  15.096  1.00  0.00     0.300 C 
HETATM   14  N1  UNL     1      59.016  57.111  13.764  1.00  0.00    -0.054 NA
HETATM   15  O1  UNL     1      57.585  56.196  15.338  1.00  0.00    -0.268 OA
ENDBRANCH   9  13
ENDBRANCH   1   6
BRANCH   5  16
HETATM   16  O8  UNL     1      62.580  54.233  18.597  1.00  0.00    -0.388 OA
ATOM     17  H8  UNL     1      62.037  53.455  18.551  1.00  0.00     0.210 HD
ENDBRANCH   5  16
BRANCH   3  18
HETATM   18  C6  UNL     1      65.816  54.290  15.458  1.00  0.00     0.217 C 
BRANCH  18  19
HETATM   19  O3  UNL     1      67.086  54.136  16.089  1.00  0.00    -0.280 OA
BRANCH  19  20
HETATM   20  P1  UNL     1      68.185  55.016  15.121  1.00  0.00     0.422 P 
HETATM   21  O4  UNL     1      67.405  55.192  13.744  1.00  0.00    -0.617 OA
HETATM   22  O5  UNL     1      68.582  56.461  15.715  1.00  0.00    -0.617 OA
HETATM   23  O6  UNL     1      69.468  54.000  14.812  1.00  0.00    -0.617 OA
ENDBRANCH  19  20
ENDBRANCH  18  19
ENDBRANCH   3  18
BRANCH   4  24
HETATM   24  O7  UNL     1      64.953  55.406  18.763  1.00  0.00    -0.390 OA
ATOM     25  H7  UNL     1      65.289  54.948  19.524  1.00  0.00     0.210 HD
ENDBRANCH   4  24
TORSDOF 7
ENDMDL
