MODEL 8
REMARK VINA RESULT: -7.876337565      2.893      3.476
REMARK  7 active torsions:
REMARK  status: ('A' for Active; 'I' for Inactive)
REMARK    1  A    between atoms: C1_2  and  C2_4 
REMARK    2  A    between atoms: N3_8  and  C4_9 
REMARK    3  A    between atoms: C5_11  and  C6_12 
REMARK    4  A    between atoms: C6_12  and  O3_13 
REMARK    5  A    between atoms: O3_13  and  P1_14 
REMARK    6  A    between atoms: C7_18  and  O7_19 
REMARK    7  A    between atoms: C8_21  and  O8_22 
ROOT
HETATM    1  C4  UNL     1      63.191  55.956  16.943  1.00  0.00     0.276 C 
HETATM    2  O2  UNL     1      64.013  55.687  15.825  1.00  0.00    -0.352 OA
HETATM    3  C5  UNL     1      65.130  55.139  16.440  1.00  0.00     0.180 C 
HETATM    4  C7  UNL     1      64.763  54.568  17.772  1.00  0.00     0.182 C 
HETATM    5  C8  UNL     1      63.235  54.529  17.525  1.00  0.00     0.200 C 
ENDROOT
BRANCH   1   6
HETATM    6  N3  UNL     1      61.916  56.456  16.704  1.00  0.00    -0.254 N 
HETATM    7  C3  UNL     1      61.263  57.356  17.472  1.00  0.00     0.205 A 
HETATM    8  N2  UNL     1      60.023  57.608  16.941  1.00  0.00    -0.332 N 
HETATM    9  C2  UNL     1      59.944  56.833  15.832  1.00  0.00     0.187 A 
ATOM     10  H2  UNL     1      59.312  58.244  17.303  1.00  0.00     0.168 HD
HETATM   11  N4  UNL     1      61.101  56.143  15.709  1.00  0.00    -0.276 N 
ATOM     12  H4  UNL     1      61.314  55.481  14.963  1.00  0.00     0.189 HD
BRANCH   9  13
HETATM   13  C1  UNL     1      58.832  56.753  14.878  1.00  0.00     0.300 C 
HETATM   14  N1  UNL     1      57.621  56.235  15.490  1.00  0.00    -0.054 NA
HETATM   15  O1  UNL     1      58.835  57.067  13.703  1.00  0.00    -0.268 OA
ENDBRANCH   9  13
ENDBRANCH   1   6
BRANCH   5  16
HETATM   16  O8  UNL     1      62.527  54.418  18.669  1.00  0.00    -0.388 OA
ATOM     17  H8  UNL     1      62.047  55.211  18.875  1.00  0.00     0.210 HD
ENDBRANCH   5  16
BRANCH   3  18
HETATM   18  C6  UNL     1      65.815  54.126  15.597  1.00  0.00     0.217 C 
BRANCH  18  19
HETATM   19  O3  UNL     1      67.137  54.129  16.130  1.00  0.00    -0.280 OA
BRANCH  19  20
HETATM   20  P1  UNL     1      68.076  55.026  15.020  1.00  0.00     0.422 P 
HETATM   21  O4  UNL     1      69.368  54.119  14.812  1.00  0.00    -0.617 OA
HETATM   22  O5  UNL     1      67.354  55.288  13.602  1.00  0.00    -0.617 OA
HETATM   23  O6  UNL     1      68.584  56.396  15.821  1.00  0.00    -0.617 OA
ENDBRANCH  19  20
ENDBRANCH  18  19
ENDBRANCH   3  18
BRANCH   4  24
HETATM   24  O7  UNL     1      64.940  55.513  18.794  1.00  0.00    -0.390 OA
ATOM     25  H7  UNL     1      65.778  55.953  18.713  1.00  0.00     0.210 HD
ENDBRANCH   4  24
TORSDOF 7
ENDMDL
