MODEL 13
REMARK VINA RESULT: -7.622697973      3.061      3.899
REMARK  7 active torsions:
REMARK  status: ('A' for Active; 'I' for Inactive)
REMARK    1  A    between atoms: C1_2  and  C2_4 
REMARK    2  A    between atoms: N3_8  and  C4_9 
REMARK    3  A    between atoms: C5_11  and  C6_12 
REMARK    4  A    between atoms: C6_12  and  O3_13 
REMARK    5  A    between atoms: O3_13  and  P1_14 
REMARK    6  A    between atoms: C7_18  and  O7_19 
REMARK    7  A    between atoms: C8_21  and  O8_22 
ROOT
HETATM    1  C4  UNL     1      62.727  55.564  16.645  1.00  0.00     0.276 C 
HETATM    2  O2  UNL     1      63.998  55.713  16.046  1.00  0.00    -0.352 OA
HETATM    3  C5  UNL     1      64.637  54.561  16.483  1.00  0.00     0.180 C 
HETATM    4  C7  UNL     1      63.633  53.507  16.823  1.00  0.00     0.182 C 
HETATM    5  C8  UNL     1      62.443  54.159  16.078  1.00  0.00     0.200 C 
ENDROOT
BRANCH   1   6
HETATM    6  N3  UNL     1      61.760  56.521  16.361  1.00  0.00    -0.254 N 
HETATM    7  C3  UNL     1      61.621  57.714  16.981  1.00  0.00     0.205 A 
HETATM    8  N2  UNL     1      60.553  58.393  16.450  1.00  0.00    -0.332 N 
HETATM    9  C2  UNL     1      60.049  57.575  15.494  1.00  0.00     0.187 A 
ATOM     10  H2  UNL     1      60.211  59.316  16.718  1.00  0.00     0.168 HD
HETATM   11  N4  UNL     1      60.794  56.447  15.458  1.00  0.00    -0.276 N 
ATOM     12  H4  UNL     1      60.637  55.659  14.831  1.00  0.00     0.189 HD
BRANCH   9  13
HETATM   13  C1  UNL     1      58.916  57.842  14.599  1.00  0.00     0.300 C 
HETATM   14  N1  UNL     1      57.746  58.312  15.322  1.00  0.00    -0.054 NA
HETATM   15  O1  UNL     1      58.877  57.720  13.390  1.00  0.00    -0.268 OA
ENDBRANCH   9  13
ENDBRANCH   1   6
BRANCH   5  16
HETATM   16  O8  UNL     1      61.250  53.673  16.480  1.00  0.00    -0.388 OA
ATOM     17  H8  UNL     1      60.533  53.983  15.941  1.00  0.00     0.210 HD
ENDBRANCH   5  16
BRANCH   3  18
HETATM   18  C6  UNL     1      65.638  54.052  15.511  1.00  0.00     0.217 C 
BRANCH  18  19
HETATM   19  O3  UNL     1      66.863  54.219  16.221  1.00  0.00    -0.280 OA
BRANCH  19  20
HETATM   20  P1  UNL     1      67.849  55.178  15.209  1.00  0.00     0.422 P 
HETATM   21  O4  UNL     1      66.854  55.639  14.053  1.00  0.00    -0.617 OA
HETATM   22  O5  UNL     1      68.485  56.471  15.934  1.00  0.00    -0.617 OA
HETATM   23  O6  UNL     1      68.951  54.150  14.500  1.00  0.00    -0.617 OA
ENDBRANCH  19  20
ENDBRANCH  18  19
ENDBRANCH   3  18
BRANCH   4  24
HETATM   24  O7  UNL     1      63.283  53.559  18.181  1.00  0.00    -0.390 OA
ATOM     25  H7  UNL     1      63.053  52.698  18.509  1.00  0.00     0.210 HD
ENDBRANCH   4  24
TORSDOF 7
ENDMDL
