MODEL 11
REMARK VINA RESULT: -8.222618273      2.054      9.919
REMARK  14 active torsions:
REMARK  status: ('A' for Active; 'I' for Inactive)
REMARK    1  A    between atoms: N1_3  and  C2_4 
REMARK    2  A    between atoms: C2_4  and  C3_5 
REMARK    3  A    between atoms: C6_8  and  C7_9 
REMARK    4  A    between atoms: C7_9  and  O2_10 
REMARK    5  A    between atoms: C10_14  and  C11_15 
REMARK    6  A    between atoms: C11_15  and  C12_16 
REMARK    7  A    between atoms: C18_22  and  O3_23 
REMARK    8  A    between atoms: C19_25  and  O4_26 
REMARK    9  A    between atoms: C20_28  and  C21_29 
REMARK   10  A    between atoms: C21_29  and  C22_30 
REMARK   11  A    between atoms: N2_36  and  C28_37 
REMARK   12  A    between atoms: C28_37  and  C29_38 
REMARK   13  A    between atoms: C32_41  and  C33_42 
REMARK   14  A    between atoms: C33_42  and  O5_43 
ROOT
HETATM    1  O1  UNL     1      -9.400  16.355  32.845  1.00  0.00    -0.247 OA
HETATM    2  C1  UNL     1     -10.279  15.890  32.022  1.00  0.00     0.322 C 
HETATM    3  N1  UNL     1     -10.240  16.488  30.743  1.00  0.00    -0.322 N 
HETATM    4  C10 UNL     1     -10.894  16.138  29.493  1.00  0.00     0.124 C 
HETATM    5  C18 UNL     1     -11.890  15.060  29.739  1.00  0.00     0.172 C 
HETATM    6  C19 UNL     1     -12.823  15.359  30.874  1.00  0.00     0.172 C 
HETATM    7  C20 UNL     1     -12.496  14.622  32.134  1.00  0.00     0.124 C 
HETATM    8  N2  UNL     1     -11.118  14.868  32.551  1.00  0.00    -0.322 N 
ENDROOT
BRANCH   3   9
HETATM    9  C2  UNL     1      -9.378  17.661  30.682  1.00  0.00     0.166 C 
BRANCH   9  10
HETATM   10  C3  UNL     1      -8.286  17.474  29.704  1.00  0.00    -0.040 A 
HETATM   11  C4  UNL     1      -8.061  16.245  29.124  1.00  0.00     0.009 A 
HETATM   12  C5  UNL     1      -7.045  16.036  28.211  1.00  0.00     0.010 A 
HETATM   13  C6  UNL     1      -6.211  17.062  27.843  1.00  0.00    -0.035 A 
HETATM   14  C8  UNL     1      -6.418  18.301  28.410  1.00  0.00     0.010 A 
HETATM   15  C9  UNL     1      -7.444  18.509  29.331  1.00  0.00     0.009 A 
BRANCH  13  16
HETATM   16  C7  UNL     1      -5.099  16.854  26.850  1.00  0.00     0.202 C 
BRANCH  16  17
HETATM   17  O2  UNL     1      -5.601  17.062  25.583  1.00  0.00    -0.396 OA
ATOM     18  H2  UNL     1      -5.234  16.406  25.002  1.00  0.00     0.209 HD
ENDBRANCH  16  17
ENDBRANCH  13  16
ENDBRANCH   9  10
ENDBRANCH   3   9
BRANCH   4  19
HETATM   19  C11 UNL     1     -11.321  17.314  28.715  1.00  0.00     0.066 C 
BRANCH  19  20
HETATM   20  C12 UNL     1     -10.679  17.351  27.390  1.00  0.00    -0.056 A 
HETATM   21  C13 UNL     1     -10.644  16.312  26.486  1.00  0.00     0.007 A 
HETATM   22  C14 UNL     1     -10.024  16.411  25.264  1.00  0.00     0.001 A 
HETATM   23  C15 UNL     1      -9.401  17.575  24.883  1.00  0.00     0.000 A 
HETATM   24  C16 UNL     1      -9.413  18.642  25.762  1.00  0.00     0.001 A 
HETATM   25  C17 UNL     1     -10.039  18.525  26.982  1.00  0.00     0.007 A 
ENDBRANCH  19  20
ENDBRANCH   4  19
BRANCH   8  26
HETATM   26  C28 UNL     1     -10.511  14.062  33.573  1.00  0.00     0.166 C 
BRANCH  26  27
HETATM   27  C29 UNL     1     -11.262  14.080  34.871  1.00  0.00    -0.040 A 
HETATM   28  C30 UNL     1     -11.428  12.926  35.642  1.00  0.00     0.009 A 
HETATM   29  C31 UNL     1     -12.115  12.929  36.834  1.00  0.00     0.010 A 
HETATM   30  C32 UNL     1     -12.677  14.089  37.323  1.00  0.00    -0.035 A 
HETATM   31  C34 UNL     1     -12.524  15.239  36.578  1.00  0.00     0.010 A 
HETATM   32  C35 UNL     1     -11.834  15.221  35.387  1.00  0.00     0.009 A 
BRANCH  30  33
HETATM   33  C33 UNL     1     -13.429  14.100  38.620  1.00  0.00     0.202 C 
BRANCH  33  34
HETATM   34  O5  UNL     1     -12.635  13.691  39.672  1.00  0.00    -0.396 OA
ATOM     35  H5  UNL     1     -12.558  14.366  40.336  1.00  0.00     0.209 HD
ENDBRANCH  33  34
ENDBRANCH  30  33
ENDBRANCH  26  27
ENDBRANCH   8  26
BRANCH   5  36
HETATM   36  O3  UNL     1     -12.497  14.601  28.592  1.00  0.00    -0.391 OA
ATOM     37  H3  UNL     1     -13.423  14.416  28.701  1.00  0.00     0.210 HD
ENDBRANCH   5  36
BRANCH   7  38
HETATM   38  C21 UNL     1     -12.775  13.165  32.121  1.00  0.00     0.066 C 
BRANCH  38  39
HETATM   39  C22 UNL     1     -13.786  12.670  33.054  1.00  0.00    -0.056 A 
HETATM   40  C23 UNL     1     -14.732  13.444  33.681  1.00  0.00     0.007 A 
HETATM   41  C24 UNL     1     -15.651  12.948  34.579  1.00  0.00     0.001 A 
HETATM   42  C25 UNL     1     -15.636  11.602  34.875  1.00  0.00     0.000 A 
HETATM   43  C26 UNL     1     -14.704  10.783  34.269  1.00  0.00     0.001 A 
HETATM   44  C27 UNL     1     -13.795  11.328  33.370  1.00  0.00     0.007 A 
ENDBRANCH  38  39
ENDBRANCH   7  38
BRANCH   6  45
HETATM   45  O4  UNL     1     -14.116  15.058  30.487  1.00  0.00    -0.391 OA
ATOM     46  H4  UNL     1     -14.724  15.518  31.054  1.00  0.00     0.210 HD
ENDBRANCH   6  45
TORSDOF 14
ENDMDL
