MODEL 12
REMARK VINA RESULT: -8.208992866      1.019      1.312
REMARK  14 active torsions:
REMARK  status: ('A' for Active; 'I' for Inactive)
REMARK    1  A    between atoms: N1_3  and  C2_4 
REMARK    2  A    between atoms: C2_4  and  C3_5 
REMARK    3  A    between atoms: C6_8  and  C7_9 
REMARK    4  A    between atoms: C7_9  and  O2_10 
REMARK    5  A    between atoms: C10_14  and  C11_15 
REMARK    6  A    between atoms: C11_15  and  C12_16 
REMARK    7  A    between atoms: C18_22  and  O3_23 
REMARK    8  A    between atoms: C19_25  and  O4_26 
REMARK    9  A    between atoms: C20_28  and  C21_29 
REMARK   10  A    between atoms: C21_29  and  C22_30 
REMARK   11  A    between atoms: N2_36  and  C28_37 
REMARK   12  A    between atoms: C28_37  and  C29_38 
REMARK   13  A    between atoms: C32_41  and  C33_42 
REMARK   14  A    between atoms: C33_42  and  O5_43 
ROOT
HETATM    1  O1  UNL     1     -12.807  14.652  29.039  1.00  0.00    -0.247 OA
HETATM    2  C1  UNL     1     -11.810  15.002  29.780  1.00  0.00     0.322 C 
HETATM    3  N1  UNL     1     -12.091  14.989  31.164  1.00  0.00    -0.322 N 
HETATM    4  C10 UNL     1     -11.226  15.114  32.327  1.00  0.00     0.124 C 
HETATM    5  C18 UNL     1      -9.856  15.494  31.887  1.00  0.00     0.172 C 
HETATM    6  C19 UNL     1      -9.832  16.669  30.957  1.00  0.00     0.172 C 
HETATM    7  C20 UNL     1      -9.622  16.300  29.522  1.00  0.00     0.124 C 
HETATM    8  N2  UNL     1     -10.620  15.334  29.070  1.00  0.00    -0.322 N 
ENDROOT
BRANCH   3   9
HETATM    9  C2  UNL     1     -13.505  14.809  31.463  1.00  0.00     0.166 C 
BRANCH   9  10
HETATM   10  C3  UNL     1     -13.772  13.459  32.002  1.00  0.00    -0.040 A 
HETATM   11  C4  UNL     1     -14.540  13.291  33.133  1.00  0.00     0.009 A 
HETATM   12  C5  UNL     1     -14.803  12.044  33.666  1.00  0.00     0.010 A 
HETATM   13  C6  UNL     1     -14.301  10.910  33.078  1.00  0.00    -0.035 A 
HETATM   14  C8  UNL     1     -13.530  11.054  31.945  1.00  0.00     0.010 A 
HETATM   15  C9  UNL     1     -13.266  12.314  31.409  1.00  0.00     0.009 A 
BRANCH  13  16
HETATM   16  C7  UNL     1     -14.576   9.541  33.643  1.00  0.00     0.202 C 
BRANCH  16  17
HETATM   17  O2  UNL     1     -15.761   9.591  34.346  1.00  0.00    -0.396 OA
ATOM     18  H2  UNL     1     -15.704  10.292  34.984  1.00  0.00     0.209 HD
ENDBRANCH  16  17
ENDBRANCH  13  16
ENDBRANCH   9  10
ENDBRANCH   3   9
BRANCH   4  19
HETATM   19  C11 UNL     1     -11.841  15.881  33.424  1.00  0.00     0.066 C 
BRANCH  19  20
HETATM   20  C12 UNL     1     -11.862  15.112  34.680  1.00  0.00    -0.056 A 
HETATM   21  C13 UNL     1     -12.275  15.589  35.904  1.00  0.00     0.007 A 
HETATM   22  C14 UNL     1     -12.267  14.819  37.042  1.00  0.00     0.001 A 
HETATM   23  C15 UNL     1     -11.838  13.513  37.006  1.00  0.00     0.000 A 
HETATM   24  C16 UNL     1     -11.414  12.997  35.796  1.00  0.00     0.001 A 
HETATM   25  C17 UNL     1     -11.430  13.783  34.666  1.00  0.00     0.007 A 
ENDBRANCH  19  20
ENDBRANCH   4  19
BRANCH   8  26
HETATM   26  C28 UNL     1     -10.453  14.643  27.822  1.00  0.00     0.166 C 
BRANCH  26  27
HETATM   27  C29 UNL     1      -9.931  15.518  26.723  1.00  0.00    -0.040 A 
HETATM   28  C30 UNL     1     -10.452  16.794  26.487  1.00  0.00     0.009 A 
HETATM   29  C31 UNL     1      -9.984  17.607  25.481  1.00  0.00     0.010 A 
HETATM   30  C32 UNL     1      -8.966  17.189  24.651  1.00  0.00    -0.035 A 
HETATM   31  C34 UNL     1      -8.438  15.935  24.866  1.00  0.00     0.010 A 
HETATM   32  C35 UNL     1      -8.916  15.132  25.877  1.00  0.00     0.009 A 
BRANCH  30  33
HETATM   33  C33 UNL     1      -8.451  18.069  23.551  1.00  0.00     0.202 C 
BRANCH  33  34
HETATM   34  O5  UNL     1      -7.100  17.882  23.339  1.00  0.00    -0.396 OA
ATOM     35  H5  UNL     1      -6.896  17.819  22.414  1.00  0.00     0.209 HD
ENDBRANCH  33  34
ENDBRANCH  30  33
ENDBRANCH  26  27
ENDBRANCH   8  26
BRANCH   5  36
HETATM   36  O3  UNL     1      -8.944  15.548  32.917  1.00  0.00    -0.391 OA
ATOM     37  H3  UNL     1      -8.250  16.180  32.775  1.00  0.00     0.210 HD
ENDBRANCH   5  36
BRANCH   7  38
HETATM   38  C21 UNL     1      -8.260  15.831  29.169  1.00  0.00     0.066 C 
BRANCH  38  39
HETATM   39  C22 UNL     1      -7.384  16.780  28.482  1.00  0.00    -0.056 A 
HETATM   40  C23 UNL     1      -7.536  18.145  28.488  1.00  0.00     0.007 A 
HETATM   41  C24 UNL     1      -6.709  19.007  27.803  1.00  0.00     0.001 A 
HETATM   42  C25 UNL     1      -5.665  18.489  27.067  1.00  0.00     0.000 A 
HETATM   43  C26 UNL     1      -5.472  17.122  27.031  1.00  0.00     0.001 A 
HETATM   44  C27 UNL     1      -6.332  16.290  27.737  1.00  0.00     0.007 A 
ENDBRANCH  38  39
ENDBRANCH   7  38
BRANCH   6  45
HETATM   45  O4  UNL     1      -8.838  17.542  31.358  1.00  0.00    -0.391 OA
ATOM     46  H4  UNL     1      -8.129  17.515  30.726  1.00  0.00     0.210 HD
ENDBRANCH   6  45
TORSDOF 14
ENDMDL
