MODEL 13
REMARK VINA RESULT: -8.118153570      0.689      9.062
REMARK  14 active torsions:
REMARK  status: ('A' for Active; 'I' for Inactive)
REMARK    1  A    between atoms: N1_3  and  C2_4 
REMARK    2  A    between atoms: C2_4  and  C3_5 
REMARK    3  A    between atoms: C6_8  and  C7_9 
REMARK    4  A    between atoms: C7_9  and  O2_10 
REMARK    5  A    between atoms: C10_14  and  C11_15 
REMARK    6  A    between atoms: C11_15  and  C12_16 
REMARK    7  A    between atoms: C18_22  and  O3_23 
REMARK    8  A    between atoms: C19_25  and  O4_26 
REMARK    9  A    between atoms: C20_28  and  C21_29 
REMARK   10  A    between atoms: C21_29  and  C22_30 
REMARK   11  A    between atoms: N2_36  and  C28_37 
REMARK   12  A    between atoms: C28_37  and  C29_38 
REMARK   13  A    between atoms: C32_41  and  C33_42 
REMARK   14  A    between atoms: C33_42  and  O5_43 
ROOT
HETATM    1  O1  UNL     1     -11.479  13.448  28.200  1.00  0.00    -0.247 OA
HETATM    2  C1  UNL     1     -10.891  14.264  29.010  1.00  0.00     0.322 C 
HETATM    3  N1  UNL     1      -9.747  14.887  28.466  1.00  0.00    -0.322 N 
HETATM    4  C10 UNL     1      -8.929  15.990  28.944  1.00  0.00     0.124 C 
HETATM    5  C18 UNL     1      -9.335  16.343  30.332  1.00  0.00     0.172 C 
HETATM    6  C19 UNL     1      -9.398  15.163  31.253  1.00  0.00     0.172 C 
HETATM    7  C20 UNL     1     -10.789  14.686  31.529  1.00  0.00     0.124 C 
HETATM    8  N2  UNL     1     -11.502  14.384  30.291  1.00  0.00    -0.322 N 
ENDROOT
BRANCH   3   9
HETATM    9  C2  UNL     1      -9.329  14.314  27.194  1.00  0.00     0.166 C 
BRANCH   9  10
HETATM   10  C3  UNL     1      -9.122  15.364  26.174  1.00  0.00    -0.040 A 
HETATM   11  C4  UNL     1      -8.058  15.300  25.302  1.00  0.00     0.009 A 
HETATM   12  C5  UNL     1      -7.834  16.268  24.343  1.00  0.00     0.010 A 
HETATM   13  C6  UNL     1      -8.676  17.345  24.222  1.00  0.00    -0.035 A 
HETATM   14  C8  UNL     1      -9.747  17.430  25.084  1.00  0.00     0.010 A 
HETATM   15  C9  UNL     1      -9.972  16.452  26.052  1.00  0.00     0.009 A 
BRANCH  13  16
HETATM   16  C7  UNL     1      -8.448  18.410  23.182  1.00  0.00     0.202 C 
BRANCH  16  17
HETATM   17  O2  UNL     1      -7.319  19.123  23.528  1.00  0.00    -0.396 OA
ATOM     18  H2  UNL     1      -6.743  19.159  22.774  1.00  0.00     0.209 HD
ENDBRANCH  16  17
ENDBRANCH  13  16
ENDBRANCH   9  10
ENDBRANCH   3   9
BRANCH   4  19
HETATM   19  C11 UNL     1      -7.494  15.809  28.665  1.00  0.00     0.066 C 
BRANCH  19  20
HETATM   20  C12 UNL     1      -6.920  16.979  27.981  1.00  0.00    -0.056 A 
HETATM   21  C13 UNL     1      -5.710  17.011  27.324  1.00  0.00     0.007 A 
HETATM   22  C14 UNL     1      -5.229  18.140  26.706  1.00  0.00     0.001 A 
HETATM   23  C15 UNL     1      -5.950  19.310  26.718  1.00  0.00     0.000 A 
HETATM   24  C16 UNL     1      -7.170  19.321  27.368  1.00  0.00     0.001 A 
HETATM   25  C17 UNL     1      -7.636  18.180  27.980  1.00  0.00     0.007 A 
ENDBRANCH  19  20
ENDBRANCH   4  19
BRANCH   8  26
HETATM   26  C28 UNL     1     -12.923  14.169  30.302  1.00  0.00     0.166 C 
BRANCH  26  27
HETATM   27  C29 UNL     1     -13.330  12.912  31.009  1.00  0.00    -0.040 A 
HETATM   28  C30 UNL     1     -14.068  12.941  32.196  1.00  0.00     0.009 A 
HETATM   29  C31 UNL     1     -14.448  11.794  32.855  1.00  0.00     0.010 A 
HETATM   30  C32 UNL     1     -14.108  10.551  32.364  1.00  0.00    -0.035 A 
HETATM   31  C34 UNL     1     -13.380  10.501  31.196  1.00  0.00     0.010 A 
HETATM   32  C35 UNL     1     -13.008  11.656  30.546  1.00  0.00     0.009 A 
BRANCH  30  33
HETATM   33  C33 UNL     1     -14.516   9.298  33.079  1.00  0.00     0.202 C 
BRANCH  33  34
HETATM   34  O5  UNL     1     -15.668   9.484  33.817  1.00  0.00    -0.396 OA
ATOM     35  H5  UNL     1     -16.282   8.769  33.695  1.00  0.00     0.209 HD
ENDBRANCH  33  34
ENDBRANCH  30  33
ENDBRANCH  26  27
ENDBRANCH   8  26
BRANCH   5  36
HETATM   36  O3  UNL     1      -8.672  17.440  30.835  1.00  0.00    -0.391 OA
ATOM     37  H3  UNL     1      -9.137  17.873  31.541  1.00  0.00     0.210 HD
ENDBRANCH   5  36
BRANCH   7  38
HETATM   38  C21 UNL     1     -11.614  15.566  32.393  1.00  0.00     0.066 C 
BRANCH  38  39
HETATM   39  C22 UNL     1     -11.601  15.293  33.829  1.00  0.00    -0.056 A 
HETATM   40  C23 UNL     1     -11.754  16.236  34.816  1.00  0.00     0.007 A 
HETATM   41  C24 UNL     1     -11.706  15.947  36.162  1.00  0.00     0.001 A 
HETATM   42  C25 UNL     1     -11.495  14.644  36.558  1.00  0.00     0.000 A 
HETATM   43  C26 UNL     1     -11.337  13.660  35.602  1.00  0.00     0.001 A 
HETATM   44  C27 UNL     1     -11.392  13.998  34.256  1.00  0.00     0.007 A 
ENDBRANCH  38  39
ENDBRANCH   7  38
BRANCH   6  45
HETATM   45  O4  UNL     1      -8.778  15.487  32.445  1.00  0.00    -0.391 OA
ATOM     46  H4  UNL     1      -9.170  14.980  33.146  1.00  0.00     0.210 HD
ENDBRANCH   6  45
TORSDOF 14
ENDMDL
