MODEL 12
REMARK VINA RESULT: -8.925824258      1.204      1.580
REMARK  14 active torsions:
REMARK  status: ('A' for Active; 'I' for Inactive)
REMARK    1  A    between atoms: N1_3  and  C2_4 
REMARK    2  A    between atoms: C2_4  and  C3_5 
REMARK    3  A    between atoms: C6_8  and  C7_9 
REMARK    4  A    between atoms: C7_9  and  O2_10 
REMARK    5  A    between atoms: C10_14  and  C11_15 
REMARK    6  A    between atoms: C11_15  and  C12_16 
REMARK    7  A    between atoms: C18_22  and  O3_23 
REMARK    8  A    between atoms: C19_25  and  O4_26 
REMARK    9  A    between atoms: C20_28  and  C21_29 
REMARK   10  A    between atoms: C21_29  and  C22_30 
REMARK   11  A    between atoms: N2_36  and  C28_37 
REMARK   12  A    between atoms: C28_37  and  C29_38 
REMARK   13  A    between atoms: C32_41  and  C33_42 
REMARK   14  A    between atoms: C33_42  and  O5_43 
ROOT
HETATM    1  O1  UNL     1     -12.208  14.521  28.526  1.00  0.00    -0.247 OA
HETATM    2  C1  UNL     1     -11.287  15.002  29.292  1.00  0.00     0.322 C 
HETATM    3  N1  UNL     1     -11.649  15.062  30.656  1.00  0.00    -0.322 N 
HETATM    4  C10 UNL     1     -10.868  15.338  31.851  1.00  0.00     0.124 C 
HETATM    5  C18 UNL     1      -9.508  15.797  31.459  1.00  0.00     0.172 C 
HETATM    6  C19 UNL     1      -9.519  16.902  30.448  1.00  0.00     0.172 C 
HETATM    7  C20 UNL     1      -9.195  16.453  29.058  1.00  0.00     0.124 C 
HETATM    8  N2  UNL     1     -10.087  15.379  28.626  1.00  0.00    -0.322 N 
ENDROOT
BRANCH   3   9
HETATM    9  C2  UNL     1     -13.060  14.788  30.890  1.00  0.00     0.166 C 
BRANCH   9  10
HETATM   10  C3  UNL     1     -13.270  13.393  31.330  1.00  0.00    -0.040 A 
HETATM   11  C4  UNL     1     -13.855  13.118  32.546  1.00  0.00     0.009 A 
HETATM   12  C5  UNL     1     -14.060  11.826  32.990  1.00  0.00     0.010 A 
HETATM   13  C6  UNL     1     -13.683  10.753  32.222  1.00  0.00    -0.035 A 
HETATM   14  C8  UNL     1     -13.096  11.004  31.001  1.00  0.00     0.010 A 
HETATM   15  C9  UNL     1     -12.890  12.309  30.556  1.00  0.00     0.009 A 
BRANCH  13  16
HETATM   16  C7  UNL     1     -13.898   9.337  32.687  1.00  0.00     0.202 C 
BRANCH  16  17
HETATM   17  O2  UNL     1     -12.921   9.028  33.610  1.00  0.00    -0.396 OA
ATOM     18  H2  UNL     1     -12.190   9.621  33.484  1.00  0.00     0.209 HD
ENDBRANCH  16  17
ENDBRANCH  13  16
ENDBRANCH   9  10
ENDBRANCH   3   9
BRANCH   4  19
HETATM   19  C11 UNL     1     -11.605  16.126  32.854  1.00  0.00     0.066 C 
BRANCH  19  20
HETATM   20  C12 UNL     1     -11.487  15.542  34.200  1.00  0.00    -0.056 A 
HETATM   21  C13 UNL     1     -10.354  15.553  34.982  1.00  0.00     0.007 A 
HETATM   22  C14 UNL     1     -10.308  14.985  36.233  1.00  0.00     0.001 A 
HETATM   23  C15 UNL     1     -11.415  14.369  36.766  1.00  0.00     0.000 A 
HETATM   24  C16 UNL     1     -12.572  14.335  36.013  1.00  0.00     0.001 A 
HETATM   25  C17 UNL     1     -12.599  14.910  34.762  1.00  0.00     0.007 A 
ENDBRANCH  19  20
ENDBRANCH   4  19
BRANCH   8  26
HETATM   26  C28 UNL     1      -9.792  14.620  27.443  1.00  0.00     0.166 C 
BRANCH  26  27
HETATM   27  C29 UNL     1      -9.386  15.468  26.276  1.00  0.00    -0.040 A 
HETATM   28  C30 UNL     1     -10.072  16.640  25.943  1.00  0.00     0.009 A 
HETATM   29  C31 UNL     1      -9.710  17.428  24.874  1.00  0.00     0.010 A 
HETATM   30  C32 UNL     1      -8.640  17.086  24.075  1.00  0.00    -0.035 A 
HETATM   31  C34 UNL     1      -7.950  15.935  24.386  1.00  0.00     0.010 A 
HETATM   32  C35 UNL     1      -8.322  15.157  25.458  1.00  0.00     0.009 A 
BRANCH  30  33
HETATM   33  C33 UNL     1      -8.242  17.938  22.907  1.00  0.00     0.202 C 
BRANCH  33  34
HETATM   34  O5  UNL     1      -7.433  18.987  23.295  1.00  0.00    -0.396 OA
ATOM     35  H5  UNL     1      -7.794  19.452  24.040  1.00  0.00     0.209 HD
ENDBRANCH  33  34
ENDBRANCH  30  33
ENDBRANCH  26  27
ENDBRANCH   8  26
BRANCH   5  36
HETATM   36  O3  UNL     1      -8.666  15.997  32.531  1.00  0.00    -0.391 OA
ATOM     37  H3  UNL     1      -8.403  16.903  32.642  1.00  0.00     0.210 HD
ENDBRANCH   5  36
BRANCH   7  38
HETATM   38  C21 UNL     1      -7.782  16.074  28.815  1.00  0.00     0.066 C 
BRANCH  38  39
HETATM   39  C22 UNL     1      -6.960  17.014  28.054  1.00  0.00    -0.056 A 
HETATM   40  C23 UNL     1      -7.364  18.256  27.630  1.00  0.00     0.007 A 
HETATM   41  C24 UNL     1      -6.572  19.104  26.888  1.00  0.00     0.001 A 
HETATM   42  C25 UNL     1      -5.300  18.700  26.545  1.00  0.00     0.000 A 
HETATM   43  C26 UNL     1      -4.848  17.459  26.949  1.00  0.00     0.001 A 
HETATM   44  C27 UNL     1      -5.683  16.637  27.696  1.00  0.00     0.007 A 
ENDBRANCH  38  39
ENDBRANCH   7  38
BRANCH   6  45
HETATM   45  O4  UNL     1      -8.622  17.879  30.836  1.00  0.00    -0.391 OA
ATOM     46  H4  UNL     1      -9.078  18.710  30.901  1.00  0.00     0.210 HD
ENDBRANCH   6  45
TORSDOF 14
ENDMDL
