MODEL 13
REMARK VINA RESULT: -8.902969799      2.944     10.540
REMARK  14 active torsions:
REMARK  status: ('A' for Active; 'I' for Inactive)
REMARK    1  A    between atoms: N1_3  and  C2_4 
REMARK    2  A    between atoms: C2_4  and  C3_5 
REMARK    3  A    between atoms: C6_8  and  C7_9 
REMARK    4  A    between atoms: C7_9  and  O2_10 
REMARK    5  A    between atoms: C10_14  and  C11_15 
REMARK    6  A    between atoms: C11_15  and  C12_16 
REMARK    7  A    between atoms: C18_22  and  O3_23 
REMARK    8  A    between atoms: C19_25  and  O4_26 
REMARK    9  A    between atoms: C20_28  and  C21_29 
REMARK   10  A    between atoms: C21_29  and  C22_30 
REMARK   11  A    between atoms: N2_36  and  C28_37 
REMARK   12  A    between atoms: C28_37  and  C29_38 
REMARK   13  A    between atoms: C32_41  and  C33_42 
REMARK   14  A    between atoms: C33_42  and  O5_43 
ROOT
HETATM    1  O1  UNL     1      -5.956  17.941  27.154  1.00  0.00    -0.247 OA
HETATM    2  C1  UNL     1      -6.810  17.449  26.320  1.00  0.00     0.322 C 
HETATM    3  N1  UNL     1      -6.590  17.833  24.979  1.00  0.00    -0.322 N 
HETATM    4  C10 UNL     1      -7.172  17.364  23.732  1.00  0.00     0.124 C 
HETATM    5  C18 UNL     1      -8.308  16.449  24.029  1.00  0.00     0.172 C 
HETATM    6  C19 UNL     1      -9.291  17.017  25.006  1.00  0.00     0.172 C 
HETATM    7  C20 UNL     1      -9.164  16.455  26.387  1.00  0.00     0.124 C 
HETATM    8  N2  UNL     1      -7.807  16.616  26.903  1.00  0.00    -0.322 N 
ENDROOT
BRANCH   3   9
HETATM    9  C2  UNL     1      -5.592  18.884  24.838  1.00  0.00     0.166 C 
BRANCH   9  10
HETATM   10  C3  UNL     1      -4.326  18.352  24.290  1.00  0.00    -0.040 A 
HETATM   11  C4  UNL     1      -3.603  17.404  24.979  1.00  0.00     0.009 A 
HETATM   12  C5  UNL     1      -2.414  16.892  24.497  1.00  0.00     0.010 A 
HETATM   13  C6  UNL     1      -1.903  17.315  23.296  1.00  0.00    -0.035 A 
HETATM   14  C8  UNL     1      -2.610  18.264  22.589  1.00  0.00     0.010 A 
HETATM   15  C9  UNL     1      -3.810  18.779  23.077  1.00  0.00     0.009 A 
BRANCH  13  16
HETATM   16  C7  UNL     1      -0.609  16.769  22.754  1.00  0.00     0.202 C 
BRANCH  16  17
HETATM   17  O2  UNL     1       0.146  16.306  23.811  1.00  0.00    -0.396 OA
ATOM     18  H2  UNL     1      -0.438  15.912  24.447  1.00  0.00     0.209 HD
ENDBRANCH  16  17
ENDBRANCH  13  16
ENDBRANCH   9  10
ENDBRANCH   3   9
BRANCH   4  19
HETATM   19  C11 UNL     1      -7.386  18.442  22.753  1.00  0.00     0.066 C 
BRANCH  19  20
HETATM   20  C12 UNL     1      -7.131  17.986  21.376  1.00  0.00    -0.056 A 
HETATM   21  C13 UNL     1      -7.963  18.190  20.297  1.00  0.00     0.007 A 
HETATM   22  C14 UNL     1      -7.667  17.734  19.035  1.00  0.00     0.001 A 
HETATM   23  C15 UNL     1      -6.506  17.041  18.791  1.00  0.00     0.000 A 
HETATM   24  C16 UNL     1      -5.645  16.814  19.847  1.00  0.00     0.001 A 
HETATM   25  C17 UNL     1      -5.957  17.279  21.105  1.00  0.00     0.007 A 
ENDBRANCH  19  20
ENDBRANCH   4  19
BRANCH   8  26
HETATM   26  C28 UNL     1      -7.391  15.919  28.088  1.00  0.00     0.166 C 
BRANCH  26  27
HETATM   27  C29 UNL     1      -8.359  16.048  29.225  1.00  0.00    -0.040 A 
HETATM   28  C30 UNL     1      -8.730  14.948  30.005  1.00  0.00     0.009 A 
HETATM   29  C31 UNL     1      -9.618  15.052  31.051  1.00  0.00     0.010 A 
HETATM   30  C32 UNL     1     -10.187  16.264  31.376  1.00  0.00    -0.035 A 
HETATM   31  C34 UNL     1      -9.836  17.361  30.621  1.00  0.00     0.010 A 
HETATM   32  C35 UNL     1      -8.946  17.242  29.578  1.00  0.00     0.009 A 
BRANCH  30  33
HETATM   33  C33 UNL     1     -11.158  16.384  32.514  1.00  0.00     0.202 C 
BRANCH  33  34
HETATM   34  O5  UNL     1     -12.410  15.921  32.165  1.00  0.00    -0.396 OA
ATOM     35  H5  UNL     1     -12.362  15.090  31.708  1.00  0.00     0.209 HD
ENDBRANCH  33  34
ENDBRANCH  30  33
ENDBRANCH  26  27
ENDBRANCH   8  26
BRANCH   5  36
HETATM   36  O3  UNL     1      -8.865  15.884  22.904  1.00  0.00    -0.391 OA
ATOM     37  H3  UNL     1      -9.135  14.981  23.028  1.00  0.00     0.210 HD
ENDBRANCH   5  36
BRANCH   7  38
HETATM   38  C21 UNL     1      -9.613  15.051  26.557  1.00  0.00     0.066 C 
BRANCH  38  39
HETATM   39  C22 UNL     1     -10.788  14.823  27.396  1.00  0.00    -0.056 A 
HETATM   40  C23 UNL     1     -11.706  15.781  27.751  1.00  0.00     0.007 A 
HETATM   41  C24 UNL     1     -12.786  15.537  28.570  1.00  0.00     0.001 A 
HETATM   42  C25 UNL     1     -12.973  14.266  29.069  1.00  0.00     0.000 A 
HETATM   43  C26 UNL     1     -12.076  13.268  28.740  1.00  0.00     0.001 A 
HETATM   44  C27 UNL     1     -11.000  13.561  27.910  1.00  0.00     0.007 A 
ENDBRANCH  38  39
ENDBRANCH   7  38
BRANCH   6  45
HETATM   45  O4  UNL     1     -10.573  16.798  24.537  1.00  0.00    -0.391 OA
ATOM     46  H4  UNL     1     -11.182  16.849  25.263  1.00  0.00     0.210 HD
ENDBRANCH   6  45
TORSDOF 14
ENDMDL
