MODEL 11
REMARK VINA RESULT: -8.985911847      2.748     10.465
REMARK  14 active torsions:
REMARK  status: ('A' for Active; 'I' for Inactive)
REMARK    1  A    between atoms: N1_3  and  C2_4 
REMARK    2  A    between atoms: C2_4  and  C3_5 
REMARK    3  A    between atoms: C6_8  and  C7_9 
REMARK    4  A    between atoms: C7_9  and  O2_10 
REMARK    5  A    between atoms: C10_14  and  C11_15 
REMARK    6  A    between atoms: C11_15  and  C12_16 
REMARK    7  A    between atoms: C18_22  and  O3_23 
REMARK    8  A    between atoms: C19_25  and  O4_26 
REMARK    9  A    between atoms: C20_28  and  C21_29 
REMARK   10  A    between atoms: C21_29  and  C22_30 
REMARK   11  A    between atoms: N2_36  and  C28_37 
REMARK   12  A    between atoms: C28_37  and  C29_38 
REMARK   13  A    between atoms: C32_41  and  C33_42 
REMARK   14  A    between atoms: C33_42  and  O5_43 
ROOT
HETATM    1  O1  UNL     1      -5.914  17.539  27.375  1.00  0.00    -0.247 OA
HETATM    2  C1  UNL     1      -6.846  17.189  26.553  1.00  0.00     0.322 C 
HETATM    3  N1  UNL     1      -6.652  17.654  25.233  1.00  0.00    -0.322 N 
HETATM    4  C10 UNL     1      -7.329  17.334  23.987  1.00  0.00     0.124 C 
HETATM    5  C18 UNL     1      -8.530  16.503  24.275  1.00  0.00     0.172 C 
HETATM    6  C19 UNL     1      -9.413  17.080  25.340  1.00  0.00     0.172 C 
HETATM    7  C20 UNL     1      -9.277  16.405  26.668  1.00  0.00     0.124 C 
HETATM    8  N2  UNL     1      -7.889  16.406  27.124  1.00  0.00    -0.322 N 
ENDROOT
BRANCH   3   9
HETATM    9  C2  UNL     1      -5.569  18.621  25.117  1.00  0.00     0.166 C 
BRANCH   9  10
HETATM   10  C3  UNL     1      -4.331  17.983  24.621  1.00  0.00    -0.040 A 
HETATM   11  C4  UNL     1      -3.798  18.334  23.401  1.00  0.00     0.009 A 
HETATM   12  C5  UNL     1      -2.646  17.753  22.906  1.00  0.00     0.010 A 
HETATM   13  C6  UNL     1      -1.981  16.790  23.624  1.00  0.00    -0.035 A 
HETATM   14  C8  UNL     1      -2.497  16.423  24.848  1.00  0.00     0.010 A 
HETATM   15  C9  UNL     1      -3.659  17.012  25.346  1.00  0.00     0.009 A 
BRANCH  13  16
HETATM   16  C7  UNL     1      -0.725  16.145  23.102  1.00  0.00     0.202 C 
BRANCH  16  17
HETATM   17  O2  UNL     1      -1.079  15.191  22.171  1.00  0.00    -0.396 OA
ATOM     18  H2  UNL     1      -0.430  14.498  22.189  1.00  0.00     0.209 HD
ENDBRANCH  16  17
ENDBRANCH  13  16
ENDBRANCH   9  10
ENDBRANCH   3   9
BRANCH   4  19
HETATM   19  C11 UNL     1      -7.487  18.499  23.100  1.00  0.00     0.066 C 
BRANCH  19  20
HETATM   20  C12 UNL     1      -7.315  18.133  21.684  1.00  0.00    -0.056 A 
HETATM   21  C13 UNL     1      -8.297  18.180  20.719  1.00  0.00     0.007 A 
HETATM   22  C14 UNL     1      -8.071  17.820  19.413  1.00  0.00     0.001 A 
HETATM   23  C15 UNL     1      -6.832  17.389  19.005  1.00  0.00     0.000 A 
HETATM   24  C16 UNL     1      -5.819  17.326  19.943  1.00  0.00     0.001 A 
HETATM   25  C17 UNL     1      -6.063  17.692  21.247  1.00  0.00     0.007 A 
ENDBRANCH  19  20
ENDBRANCH   4  19
BRANCH   8  26
HETATM   26  C28 UNL     1      -7.486  15.586  28.233  1.00  0.00     0.166 C 
BRANCH  26  27
HETATM   27  C29 UNL     1      -8.007  16.071  29.552  1.00  0.00    -0.040 A 
HETATM   28  C30 UNL     1      -8.696  15.226  30.428  1.00  0.00     0.009 A 
HETATM   29  C31 UNL     1      -9.180  15.659  31.641  1.00  0.00     0.010 A 
HETATM   30  C32 UNL     1      -9.003  16.964  32.047  1.00  0.00    -0.035 A 
HETATM   31  C34 UNL     1      -8.328  17.814  31.200  1.00  0.00     0.010 A 
HETATM   32  C35 UNL     1      -7.848  17.367  29.989  1.00  0.00     0.009 A 
BRANCH  30  33
HETATM   33  C33 UNL     1      -9.530  17.443  33.367  1.00  0.00     0.202 C 
BRANCH  33  34
HETATM   34  O5  UNL     1      -9.117  16.633  34.405  1.00  0.00    -0.396 OA
ATOM     35  H5  UNL     1      -9.698  15.891  34.524  1.00  0.00     0.209 HD
ENDBRANCH  33  34
ENDBRANCH  30  33
ENDBRANCH  26  27
ENDBRANCH   8  26
BRANCH   5  36
HETATM   36  O3  UNL     1      -9.186  16.077  23.142  1.00  0.00    -0.391 OA
ATOM     37  H3  UNL     1      -9.207  15.131  23.049  1.00  0.00     0.210 HD
ENDBRANCH   5  36
BRANCH   7  38
HETATM   38  C21 UNL     1      -9.845  15.037  26.759  1.00  0.00     0.066 C 
BRANCH  38  39
HETATM   39  C22 UNL     1     -10.860  14.803  27.785  1.00  0.00    -0.056 A 
HETATM   40  C23 UNL     1     -11.254  13.569  28.241  1.00  0.00     0.007 A 
HETATM   41  C24 UNL     1     -12.237  13.384  29.188  1.00  0.00     0.001 A 
HETATM   42  C25 UNL     1     -12.869  14.488  29.720  1.00  0.00     0.000 A 
HETATM   43  C26 UNL     1     -12.505  15.750  29.293  1.00  0.00     0.001 A 
HETATM   44  C27 UNL     1     -11.509  15.888  28.335  1.00  0.00     0.007 A 
ENDBRANCH  38  39
ENDBRANCH   7  38
BRANCH   6  45
HETATM   45  O4  UNL     1     -10.729  17.011  24.922  1.00  0.00    -0.391 OA
ATOM     46  H4  UNL     1     -11.137  17.860  25.043  1.00  0.00     0.210 HD
ENDBRANCH   6  45
TORSDOF 14
ENDMDL
