MODEL 3
REMARK VINA RESULT: -5.910218732      1.640      5.825
REMARK  15 active torsions:
REMARK  status: ('A' for Active; 'I' for Inactive)
REMARK    1  A    between atoms: O1_2  and  C2_3 
REMARK    2  A    between atoms: C3_5  and  C4_6 
REMARK    3  A    between atoms: C4_6  and  O3_7 
REMARK    4  A    between atoms: C5_9  and  O4_10 
REMARK    5  A    between atoms: C6_12  and  O5_13 
REMARK    6  A    between atoms: O5_13  and  C7_14 
REMARK    7  A    between atoms: C10_18  and  O7_19 
REMARK    8  A    between atoms: C12_22  and  O8_23 
REMARK    9  A    between atoms: C13_25  and  O9_26 
REMARK   10  A    between atoms: O9_26  and  C14_27 
REMARK   11  A    between atoms: C15_29  and  C16_30 
REMARK   12  A    between atoms: C16_30  and  O11_31 
REMARK   13  A    between atoms: C17_33  and  O12_34 
REMARK   14  A    between atoms: C18_36  and  O13_37 
REMARK   15  A    between atoms: C19_39  and  O14_40 
ROOT
HETATM    1  C2  UNL     1      10.967 -11.397  63.808  1.00  0.00     0.291 C 
HETATM    2  O2  UNL     1      11.074 -11.330  65.185  1.00  0.00    -0.349 OA
HETATM    3  C3  UNL     1      12.047 -10.487  65.663  1.00  0.00     0.179 C 
HETATM    4  C5  UNL     1      13.363 -10.522  64.982  1.00  0.00     0.181 C 
HETATM    5  C6  UNL     1      13.299 -10.914  63.544  1.00  0.00     0.190 C 
HETATM    6  C13 UNL     1      12.277 -12.014  63.326  1.00  0.00     0.211 C 
ENDROOT
BRANCH   6   7
HETATM    7  O9  UNL     1      12.295 -12.326  61.993  1.00  0.00    -0.346 OA
BRANCH   7   8
HETATM    8  C14 UNL     1      13.261 -13.241  61.627  1.00  0.00     0.292 C 
HETATM    9  O10 UNL     1      12.929 -14.454  62.229  1.00  0.00    -0.348 OA
HETATM   10  C15 UNL     1      11.673 -14.906  61.901  1.00  0.00     0.179 C 
HETATM   11  C17 UNL     1      11.466 -15.065  60.414  1.00  0.00     0.180 C 
HETATM   12  C18 UNL     1      12.056 -13.962  59.608  1.00  0.00     0.183 C 
HETATM   13  C19 UNL     1      13.360 -13.505  60.152  1.00  0.00     0.204 C 
BRANCH  10  14
HETATM   14  C16 UNL     1      11.499 -16.273  62.533  1.00  0.00     0.198 C 
BRANCH  14  15
HETATM   15  O11 UNL     1      12.690 -16.925  62.760  1.00  0.00    -0.398 OA
ATOM     16  H11 UNL     1      12.806 -17.194  63.664  1.00  0.00     0.209 HD
ENDBRANCH  14  15
ENDBRANCH  10  14
BRANCH  11  17
HETATM   17  O12 UNL     1      11.963 -16.325  60.004  1.00  0.00    -0.390 OA
ATOM     18  H12 UNL     1      12.501 -16.213  59.229  1.00  0.00     0.210 HD
ENDBRANCH  11  17
BRANCH  12  19
HETATM   19  O13 UNL     1      12.312 -14.478  58.314  1.00  0.00    -0.390 OA
ATOM     20  H13 UNL     1      11.546 -14.975  58.051  1.00  0.00     0.210 HD
ENDBRANCH  12  19
BRANCH  13  21
HETATM   21  O14 UNL     1      13.922 -12.454  59.449  1.00  0.00    -0.388 OA
ATOM     22  H14 UNL     1      14.236 -12.707  58.589  1.00  0.00     0.210 HD
ENDBRANCH  13  21
ENDBRANCH   7   8
ENDBRANCH   6   7
BRANCH   1  23
HETATM   23  O1  UNL     1       9.876 -12.191  63.508  1.00  0.00    -0.363 OA
HETATM   24  C1  UNL     1       9.001 -11.550  62.662  1.00  0.00     0.204 C 
ENDBRANCH   1  23
BRANCH   5  25
HETATM   25  O5  UNL     1      12.798  -9.802  62.826  1.00  0.00    -0.348 OA
BRANCH  25  26
HETATM   26  C7  UNL     1      13.616  -9.510  61.738  1.00  0.00     0.289 C 
HETATM   27  O6  UNL     1      12.850  -9.145  60.662  1.00  0.00    -0.351 OA
HETATM   28  C8  UNL     1      12.368  -7.862  60.677  1.00  0.00     0.149 C 
HETATM   29  C9  UNL     1      11.630  -7.653  59.348  1.00  0.00     0.042 C 
HETATM   30  C10 UNL     1      13.458  -6.819  60.734  1.00  0.00     0.149 C 
HETATM   31  C11 UNL     1      14.784  -7.431  61.052  1.00  0.00     0.071 C 
HETATM   32  C12 UNL     1      14.584  -8.433  62.171  1.00  0.00     0.175 C 
BRANCH  30  33
HETATM   33  O7  UNL     1      13.585  -6.127  59.530  1.00  0.00    -0.393 OA
ATOM     34  H7  UNL     1      14.452  -5.754  59.422  1.00  0.00     0.210 HD
ENDBRANCH  30  33
BRANCH  32  35
HETATM   35  O8  UNL     1      14.140  -7.716  63.277  1.00  0.00    -0.391 OA
ATOM     36  H8  UNL     1      13.722  -6.895  63.044  1.00  0.00     0.210 HD
ENDBRANCH  32  35
ENDBRANCH  25  26
ENDBRANCH   5  25
BRANCH   4  37
HETATM   37  O4  UNL     1      14.248 -11.378  65.677  1.00  0.00    -0.390 OA
ATOM     38  H4  UNL     1      14.063 -12.285  65.459  1.00  0.00     0.210 HD
ENDBRANCH   4  37
BRANCH   3  39
HETATM   39  C4  UNL     1      11.481  -9.089  65.852  1.00  0.00     0.198 C 
BRANCH  39  40
HETATM   40  O3  UNL     1      12.288  -8.117  65.269  1.00  0.00    -0.398 OA
ATOM     41  H3  UNL     1      13.090  -7.979  65.760  1.00  0.00     0.209 HD
ENDBRANCH  39  40
ENDBRANCH   3  39
TORSDOF 15
ENDMDL
