MODEL 1
REMARK VINA RESULT: -6.043745592      0.000      0.000
REMARK  15 active torsions:
REMARK  status: ('A' for Active; 'I' for Inactive)
REMARK    1  A    between atoms: O1_2  and  C2_3 
REMARK    2  A    between atoms: C3_5  and  C4_6 
REMARK    3  A    between atoms: C4_6  and  O3_7 
REMARK    4  A    between atoms: C5_9  and  O4_10 
REMARK    5  A    between atoms: C6_12  and  O5_13 
REMARK    6  A    between atoms: O5_13  and  C7_14 
REMARK    7  A    between atoms: C10_18  and  O7_19 
REMARK    8  A    between atoms: C12_22  and  O8_23 
REMARK    9  A    between atoms: C13_25  and  O9_26 
REMARK   10  A    between atoms: O9_26  and  C14_27 
REMARK   11  A    between atoms: C15_29  and  C16_30 
REMARK   12  A    between atoms: C16_30  and  O11_31 
REMARK   13  A    between atoms: C17_33  and  O12_34 
REMARK   14  A    between atoms: C18_36  and  O13_37 
REMARK   15  A    between atoms: C19_39  and  O14_40 
ROOT
HETATM    1  C2  UNL     1      12.297 -12.857  61.535  1.00  0.00     0.291 C 
HETATM    2  O2  UNL     1      12.615 -14.158  61.876  1.00  0.00    -0.349 OA
HETATM    3  C3  UNL     1      12.458 -14.479  63.202  1.00  0.00     0.179 C 
HETATM    4  C5  UNL     1      12.936 -13.488  64.195  1.00  0.00     0.181 C 
HETATM    5  C6  UNL     1      12.900 -12.076  63.719  1.00  0.00     0.190 C 
HETATM    6  C13 UNL     1      13.315 -11.983  62.262  1.00  0.00     0.211 C 
ENDROOT
BRANCH   6   7
HETATM    7  O9  UNL     1      13.275 -10.661  61.912  1.00  0.00    -0.346 OA
BRANCH   7   8
HETATM    8  C14 UNL     1      14.396 -10.204  61.249  1.00  0.00     0.292 C 
HETATM    9  O10 UNL     1      13.968  -9.678  60.030  1.00  0.00    -0.348 OA
HETATM   10  C15 UNL     1      13.032  -8.680  60.159  1.00  0.00     0.179 C 
HETATM   11  C17 UNL     1      13.503  -7.527  61.012  1.00  0.00     0.180 C 
HETATM   12  C18 UNL     1      14.261  -7.949  62.221  1.00  0.00     0.183 C 
HETATM   13  C19 UNL     1      15.147  -9.109  61.951  1.00  0.00     0.204 C 
BRANCH  10  14
HETATM   14  C16 UNL     1      12.750  -8.135  58.773  1.00  0.00     0.198 C 
BRANCH  14  15
HETATM   15  O11 UNL     1      13.831  -8.215  57.924  1.00  0.00    -0.398 OA
ATOM     16  H11 UNL     1      13.590  -8.207  57.005  1.00  0.00     0.209 HD
ENDBRANCH  14  15
ENDBRANCH  10  14
BRANCH  11  17
HETATM   17  O12 UNL     1      14.259  -6.635  60.216  1.00  0.00    -0.390 OA
ATOM     18  H12 UNL     1      15.177  -6.874  60.261  1.00  0.00     0.210 HD
ENDBRANCH  11  17
BRANCH  12  19
HETATM   19  O13 UNL     1      15.103  -6.869  62.587  1.00  0.00    -0.390 OA
ATOM     20  H13 UNL     1      14.600  -6.070  62.479  1.00  0.00     0.210 HD
ENDBRANCH  12  19
BRANCH  13  21
HETATM   21  O14 UNL     1      15.841  -9.554  63.062  1.00  0.00    -0.388 OA
ATOM     22  H14 UNL     1      16.247  -8.849  63.554  1.00  0.00     0.210 HD
ENDBRANCH  13  21
ENDBRANCH   7   8
ENDBRANCH   6   7
BRANCH   1  23
HETATM   23  O1  UNL     1      12.400 -12.743  60.162  1.00  0.00    -0.363 OA
HETATM   24  C1  UNL     1      13.474 -13.452  59.674  1.00  0.00     0.204 C 
ENDBRANCH   1  23
BRANCH   5  25
HETATM   25  O5  UNL     1      11.549 -11.657  63.740  1.00  0.00    -0.348 OA
BRANCH  25  26
HETATM   26  C7  UNL     1      11.207 -11.157  64.993  1.00  0.00     0.289 C 
HETATM   27  O6  UNL     1      12.249 -10.428  65.505  1.00  0.00    -0.351 OA
HETATM   28  C8  UNL     1      12.392  -9.158  65.010  1.00  0.00     0.149 C 
HETATM   29  C9  UNL     1      13.546  -8.511  65.786  1.00  0.00     0.042 C 
HETATM   30  C10 UNL     1      11.177  -8.291  65.240  1.00  0.00     0.149 C 
HETATM   31  C11 UNL     1      10.005  -9.102  65.690  1.00  0.00     0.071 C 
HETATM   32  C12 UNL     1       9.939 -10.352  64.834  1.00  0.00     0.175 C 
BRANCH  30  33
HETATM   33  O7  UNL     1      11.409  -7.307  66.200  1.00  0.00    -0.393 OA
ATOM     34  H7  UNL     1      11.382  -6.433  65.828  1.00  0.00     0.210 HD
ENDBRANCH  30  33
BRANCH  32  35
HETATM   35  O8  UNL     1       9.723  -9.931  63.526  1.00  0.00    -0.391 OA
ATOM     36  H8  UNL     1       9.215  -9.130  63.472  1.00  0.00     0.210 HD
ENDBRANCH  32  35
ENDBRANCH  25  26
ENDBRANCH   5  25
BRANCH   4  37
HETATM   37  O4  UNL     1      14.241 -13.821  64.625  1.00  0.00    -0.390 OA
ATOM     38  H4  UNL     1      14.781 -13.040  64.664  1.00  0.00     0.210 HD
ENDBRANCH   4  37
BRANCH   3  39
HETATM   39  C4  UNL     1      11.048 -14.984  63.454  1.00  0.00     0.198 C 
BRANCH  39  40
HETATM   40  O3  UNL     1      10.518 -14.481  64.638  1.00  0.00    -0.398 OA
ATOM     41  H3  UNL     1      10.302 -15.172  65.253  1.00  0.00     0.209 HD
ENDBRANCH  39  40
ENDBRANCH   3  39
TORSDOF 15
ENDMDL
