MODEL 2
REMARK VINA RESULT: -5.973519772      1.900      2.850
REMARK  15 active torsions:
REMARK  status: ('A' for Active; 'I' for Inactive)
REMARK    1  A    between atoms: O1_2  and  C2_3 
REMARK    2  A    between atoms: C3_5  and  C4_6 
REMARK    3  A    between atoms: C4_6  and  O3_7 
REMARK    4  A    between atoms: C5_9  and  O4_10 
REMARK    5  A    between atoms: C6_12  and  O5_13 
REMARK    6  A    between atoms: O5_13  and  C7_14 
REMARK    7  A    between atoms: C10_18  and  O7_19 
REMARK    8  A    between atoms: C12_22  and  O8_23 
REMARK    9  A    between atoms: C13_25  and  O9_26 
REMARK   10  A    between atoms: O9_26  and  C14_27 
REMARK   11  A    between atoms: C15_29  and  C16_30 
REMARK   12  A    between atoms: C16_30  and  O11_31 
REMARK   13  A    between atoms: C17_33  and  O12_34 
REMARK   14  A    between atoms: C18_36  and  O13_37 
REMARK   15  A    between atoms: C19_39  and  O14_40 
ROOT
HETATM    1  C2  UNL     1      13.017 -13.145  60.702  1.00  0.00     0.291 C 
HETATM    2  O2  UNL     1      13.650 -14.205  61.324  1.00  0.00    -0.349 OA
HETATM    3  C3  UNL     1      13.164 -14.541  62.563  1.00  0.00     0.179 C 
HETATM    4  C5  UNL     1      12.857 -13.428  63.491  1.00  0.00     0.181 C 
HETATM    5  C6  UNL     1      12.474 -12.155  62.816  1.00  0.00     0.190 C 
HETATM    6  C13 UNL     1      13.312 -11.926  61.572  1.00  0.00     0.211 C 
ENDROOT
BRANCH   6   7
HETATM    7  O9  UNL     1      12.913 -10.736  61.027  1.00  0.00    -0.346 OA
BRANCH   7   8
HETATM    8  C14 UNL     1      13.914 -10.024  60.397  1.00  0.00     0.292 C 
HETATM    9  O10 UNL     1      13.306  -9.229  59.426  1.00  0.00    -0.348 OA
HETATM   10  C15 UNL     1      12.344  -8.385  59.929  1.00  0.00     0.179 C 
HETATM   11  C17 UNL     1      12.862  -7.468  61.010  1.00  0.00     0.180 C 
HETATM   12  C18 UNL     1      13.791  -8.132  61.963  1.00  0.00     0.183 C 
HETATM   13  C19 UNL     1      14.693  -9.099  61.286  1.00  0.00     0.204 C 
BRANCH  10  14
HETATM   14  C16 UNL     1      11.857  -7.515  58.787  1.00  0.00     0.198 C 
BRANCH  14  15
HETATM   15  O11 UNL     1      10.943  -6.562  59.179  1.00  0.00    -0.398 OA
ATOM     16  H11 UNL     1      10.421  -6.223  58.462  1.00  0.00     0.209 HD
ENDBRANCH  14  15
ENDBRANCH  10  14
BRANCH  11  17
HETATM   17  O12 UNL     1      13.461  -6.334  60.413  1.00  0.00    -0.390 OA
ATOM     18  H12 UNL     1      13.878  -5.808  61.086  1.00  0.00     0.210 HD
ENDBRANCH  11  17
BRANCH  12  19
HETATM   19  O13 UNL     1      14.616  -7.123  62.518  1.00  0.00    -0.390 OA
ATOM     20  H13 UNL     1      15.364  -7.557  62.913  1.00  0.00     0.210 HD
ENDBRANCH  12  19
BRANCH  13  21
HETATM   21  O14 UNL     1      15.547  -9.764  62.148  1.00  0.00    -0.388 OA
ATOM     22  H14 UNL     1      15.262  -9.732  63.054  1.00  0.00     0.210 HD
ENDBRANCH  13  21
ENDBRANCH   7   8
ENDBRANCH   6   7
BRANCH   1  23
HETATM   23  O1  UNL     1      13.550 -13.020  59.434  1.00  0.00    -0.363 OA
HETATM   24  C1  UNL     1      13.998 -14.229  58.952  1.00  0.00     0.204 C 
ENDBRANCH   1  23
BRANCH   5  25
HETATM   25  O5  UNL     1      11.150 -12.311  62.340  1.00  0.00    -0.348 OA
BRANCH  25  26
HETATM   26  C7  UNL     1      10.352 -11.245  62.744  1.00  0.00     0.289 C 
HETATM   27  O6  UNL     1       9.262 -11.139  61.920  1.00  0.00    -0.351 OA
HETATM   28  C8  UNL     1       8.243 -12.023  62.156  1.00  0.00     0.149 C 
HETATM   29  C9  UNL     1       7.110 -11.659  61.189  1.00  0.00     0.042 C 
HETATM   30  C10 UNL     1       7.673 -11.914  63.550  1.00  0.00     0.149 C 
HETATM   31  C11 UNL     1       8.541 -11.073  64.430  1.00  0.00     0.071 C 
HETATM   32  C12 UNL     1       9.983 -11.473  64.191  1.00  0.00     0.175 C 
BRANCH  30  33
HETATM   33  O7  UNL     1       6.396 -11.355  63.552  1.00  0.00    -0.393 OA
ATOM     34  H7  UNL     1       6.086 -11.175  64.431  1.00  0.00     0.210 HD
ENDBRANCH  30  33
BRANCH  32  35
HETATM   35  O8  UNL     1      10.100 -12.804  64.578  1.00  0.00    -0.391 OA
ATOM     36  H8  UNL     1      11.001 -13.104  64.609  1.00  0.00     0.210 HD
ENDBRANCH  32  35
ENDBRANCH  25  26
ENDBRANCH   5  25
BRANCH   4  37
HETATM   37  O4  UNL     1      13.949 -13.204  64.361  1.00  0.00    -0.390 OA
ATOM     38  H4  UNL     1      13.747 -12.499  64.964  1.00  0.00     0.210 HD
ENDBRANCH   4  37
BRANCH   3  39
HETATM   39  C4  UNL     1      12.049 -15.565  62.427  1.00  0.00     0.198 C 
BRANCH  39  40
HETATM   40  O3  UNL     1      10.863 -15.123  63.006  1.00  0.00    -0.398 OA
ATOM     41  H3  UNL     1      10.480 -15.778  63.577  1.00  0.00     0.209 HD
ENDBRANCH  39  40
ENDBRANCH   3  39
TORSDOF 15
ENDMDL
