MODEL 2
REMARK VINA RESULT: -6.049122750      2.165      3.618
REMARK  15 active torsions:
REMARK  status: ('A' for Active; 'I' for Inactive)
REMARK    1  A    between atoms: O1_2  and  C2_3 
REMARK    2  A    between atoms: C3_5  and  C4_6 
REMARK    3  A    between atoms: C4_6  and  O3_7 
REMARK    4  A    between atoms: C5_9  and  O4_10 
REMARK    5  A    between atoms: C6_12  and  O5_13 
REMARK    6  A    between atoms: O5_13  and  C7_14 
REMARK    7  A    between atoms: C10_18  and  O7_19 
REMARK    8  A    between atoms: C12_22  and  O8_23 
REMARK    9  A    between atoms: C13_25  and  O9_26 
REMARK   10  A    between atoms: O9_26  and  C14_27 
REMARK   11  A    between atoms: C15_29  and  C16_30 
REMARK   12  A    between atoms: C16_30  and  O11_31 
REMARK   13  A    between atoms: C17_33  and  O12_34 
REMARK   14  A    between atoms: C18_36  and  O13_37 
REMARK   15  A    between atoms: C19_39  and  O14_40 
ROOT
HETATM    1  C2  UNL     1      17.508  41.825  16.889  1.00  0.00     0.291 C 
HETATM    2  O2  UNL     1      16.879  43.034  16.658  1.00  0.00    -0.349 OA
HETATM    3  C3  UNL     1      17.633  44.153  16.911  1.00  0.00     0.179 C 
HETATM    4  C5  UNL     1      18.445  44.152  18.151  1.00  0.00     0.181 C 
HETATM    5  C6  UNL     1      18.874  42.797  18.602  1.00  0.00     0.190 C 
HETATM    6  C13 UNL     1      17.768  41.779  18.392  1.00  0.00     0.211 C 
ENDROOT
BRANCH   6   7
HETATM    7  O9  UNL     1      18.232  40.575  18.847  1.00  0.00    -0.346 OA
BRANCH   7   8
HETATM    8  C14 UNL     1      17.960  40.314  20.174  1.00  0.00     0.292 C 
HETATM    9  O10 UNL     1      17.263  39.108  20.223  1.00  0.00    -0.348 OA
HETATM   10  C15 UNL     1      17.936  38.059  19.643  1.00  0.00     0.179 C 
HETATM   11  C17 UNL     1      19.299  37.820  20.245  1.00  0.00     0.180 C 
HETATM   12  C18 UNL     1      20.051  39.071  20.536  1.00  0.00     0.183 C 
HETATM   13  C19 UNL     1      19.169  40.149  21.050  1.00  0.00     0.204 C 
BRANCH  10  14
HETATM   14  C16 UNL     1      17.113  36.806  19.870  1.00  0.00     0.198 C 
BRANCH  14  15
HETATM   15  O11 UNL     1      16.346  36.453  18.782  1.00  0.00    -0.398 OA
ATOM     16  H11 UNL     1      15.782  35.706  18.945  1.00  0.00     0.209 HD
ENDBRANCH  14  15
ENDBRANCH  10  14
BRANCH  11  17
HETATM   17  O12 UNL     1      19.167  37.019  21.403  1.00  0.00    -0.390 OA
ATOM     18  H12 UNL     1      18.943  36.132  21.147  1.00  0.00     0.210 HD
ENDBRANCH  11  17
BRANCH  12  19
HETATM   19  O13 UNL     1      20.977  38.775  21.567  1.00  0.00    -0.390 OA
ATOM     20  H13 UNL     1      20.611  38.063  22.079  1.00  0.00     0.210 HD
ENDBRANCH  12  19
BRANCH  13  21
HETATM   21  O14 UNL     1      19.827  41.341  21.297  1.00  0.00    -0.388 OA
ATOM     22  H14 UNL     1      20.327  41.329  22.105  1.00  0.00     0.210 HD
ENDBRANCH  13  21
ENDBRANCH   7   8
ENDBRANCH   6   7
BRANCH   1  23
HETATM   23  O1  UNL     1      16.655  40.819  16.477  1.00  0.00    -0.363 OA
HETATM   24  C1  UNL     1      16.402  40.892  15.126  1.00  0.00     0.204 C 
ENDBRANCH   1  23
BRANCH   5  25
HETATM   25  O5  UNL     1      19.921  42.378  17.747  1.00  0.00    -0.348 OA
BRANCH  25  26
HETATM   26  C7  UNL     1      21.086  43.092  18.010  1.00  0.00     0.289 C 
HETATM   27  O6  UNL     1      21.749  42.531  19.069  1.00  0.00    -0.351 OA
HETATM   28  C8  UNL     1      22.475  41.401  18.792  1.00  0.00     0.149 C 
HETATM   29  C9  UNL     1      23.195  41.011  20.089  1.00  0.00     0.042 C 
HETATM   30  C10 UNL     1      23.546  41.624  17.752  1.00  0.00     0.149 C 
HETATM   31  C11 UNL     1      23.375  42.940  17.065  1.00  0.00     0.071 C 
HETATM   32  C12 UNL     1      21.905  43.114  16.740  1.00  0.00     0.175 C 
BRANCH  30  33
HETATM   33  O7  UNL     1      24.826  41.594  18.305  1.00  0.00    -0.393 OA
ATOM     34  H7  UNL     1      25.362  40.906  17.927  1.00  0.00     0.210 HD
ENDBRANCH  30  33
BRANCH  32  35
HETATM   35  O8  UNL     1      21.565  42.095  15.857  1.00  0.00    -0.391 OA
ATOM     36  H8  UNL     1      22.316  41.733  15.400  1.00  0.00     0.210 HD
ENDBRANCH  32  35
ENDBRANCH  25  26
ENDBRANCH   5  25
BRANCH   4  37
HETATM   37  O4  UNL     1      17.747  44.809  19.190  1.00  0.00    -0.390 OA
ATOM     38  H4  UNL     1      17.865  44.342  20.009  1.00  0.00     0.210 HD
ENDBRANCH   4  37
BRANCH   3  39
HETATM   39  C4  UNL     1      18.400  44.559  15.663  1.00  0.00     0.198 C 
BRANCH  39  40
HETATM   40  O3  UNL     1      19.004  43.467  15.046  1.00  0.00    -0.398 OA
ATOM     41  H3  UNL     1      19.820  43.705  14.621  1.00  0.00     0.209 HD
ENDBRANCH  39  40
ENDBRANCH   3  39
TORSDOF 15
ENDMDL
