MODEL 1
REMARK VINA RESULT: -6.226848978      0.000      0.000
REMARK  15 active torsions:
REMARK  status: ('A' for Active; 'I' for Inactive)
REMARK    1  A    between atoms: O1_2  and  C2_3 
REMARK    2  A    between atoms: C3_5  and  C4_6 
REMARK    3  A    between atoms: C4_6  and  O3_7 
REMARK    4  A    between atoms: C5_9  and  O4_10 
REMARK    5  A    between atoms: C6_12  and  O5_13 
REMARK    6  A    between atoms: O5_13  and  C7_14 
REMARK    7  A    between atoms: C10_18  and  O7_19 
REMARK    8  A    between atoms: C12_22  and  O8_23 
REMARK    9  A    between atoms: C13_25  and  O9_26 
REMARK   10  A    between atoms: O9_26  and  C14_27 
REMARK   11  A    between atoms: C15_29  and  C16_30 
REMARK   12  A    between atoms: C16_30  and  O11_31 
REMARK   13  A    between atoms: C17_33  and  O12_34 
REMARK   14  A    between atoms: C18_36  and  O13_37 
REMARK   15  A    between atoms: C19_39  and  O14_40 
ROOT
HETATM    1  C2  UNL     1      19.295  42.000  18.440  1.00  0.00     0.291 C 
HETATM    2  O2  UNL     1      19.074  43.283  17.975  1.00  0.00    -0.349 OA
HETATM    3  C3  UNL     1      19.688  44.286  18.684  1.00  0.00     0.179 C 
HETATM    4  C5  UNL     1      19.639  44.191  20.162  1.00  0.00     0.181 C 
HETATM    5  C6  UNL     1      19.552  42.797  20.685  1.00  0.00     0.190 C 
HETATM    6  C13 UNL     1      18.642  41.948  19.818  1.00  0.00     0.211 C 
ENDROOT
BRANCH   6   7
HETATM    7  O9  UNL     1      18.602  40.698  20.374  1.00  0.00    -0.346 OA
BRANCH   7   8
HETATM    8  C14 UNL     1      17.335  40.169  20.516  1.00  0.00     0.292 C 
HETATM    9  O10 UNL     1      17.321  38.949  19.841  1.00  0.00    -0.348 OA
HETATM   10  C15 UNL     1      18.275  38.064  20.281  1.00  0.00     0.179 C 
HETATM   11  C17 UNL     1      18.178  37.768  21.758  1.00  0.00     0.180 C 
HETATM   12  C18 UNL     1      17.884  38.966  22.590  1.00  0.00     0.183 C 
HETATM   13  C19 UNL     1      16.920  39.883  21.931  1.00  0.00     0.204 C 
BRANCH  10  14
HETATM   14  C16 UNL     1      18.067  36.758  19.540  1.00  0.00     0.198 C 
BRANCH  14  15
HETATM   15  O11 UNL     1      16.760  36.550  19.159  1.00  0.00    -0.398 OA
ATOM     16  H11 UNL     1      16.602  36.731  18.240  1.00  0.00     0.209 HD
ENDBRANCH  14  15
ENDBRANCH  10  14
BRANCH  11  17
HETATM   17  O12 UNL     1      17.221  36.748  21.968  1.00  0.00    -0.390 OA
ATOM     18  H12 UNL     1      17.523  36.171  22.660  1.00  0.00     0.210 HD
ENDBRANCH  11  17
BRANCH  12  19
HETATM   19  O13 UNL     1      17.265  38.510  23.780  1.00  0.00    -0.390 OA
ATOM     20  H13 UNL     1      17.883  37.935  24.217  1.00  0.00     0.210 HD
ENDBRANCH  12  19
BRANCH  13  21
HETATM   21  O14 UNL     1      16.651  41.028  22.659  1.00  0.00    -0.388 OA
ATOM     22  H14 UNL     1      17.422  41.562  22.812  1.00  0.00     0.210 HD
ENDBRANCH  13  21
ENDBRANCH   7   8
ENDBRANCH   6   7
BRANCH   1  23
HETATM   23  O1  UNL     1      18.707  41.122  17.551  1.00  0.00    -0.363 OA
HETATM   24  C1  UNL     1      17.491  41.589  17.107  1.00  0.00     0.204 C 
ENDBRANCH   1  23
BRANCH   5  25
HETATM   25  O5  UNL     1      20.834  42.214  20.549  1.00  0.00    -0.348 OA
BRANCH  25  26
HETATM   26  C7  UNL     1      21.620  42.485  21.665  1.00  0.00     0.289 C 
HETATM   27  O6  UNL     1      20.848  42.457  22.797  1.00  0.00    -0.351 OA
HETATM   28  C8  UNL     1      20.542  41.212  23.284  1.00  0.00     0.149 C 
HETATM   29  C9  UNL     1      19.764  41.429  24.587  1.00  0.00     0.042 C 
HETATM   30  C10 UNL     1      21.762  40.397  23.639  1.00  0.00     0.149 C 
HETATM   31  C11 UNL     1      23.011  41.024  23.109  1.00  0.00     0.071 C 
HETATM   32  C12 UNL     1      22.745  41.477  21.687  1.00  0.00     0.175 C 
BRANCH  30  33
HETATM   33  O7  UNL     1      21.910  40.250  25.017  1.00  0.00    -0.393 OA
ATOM     34  H7  UNL     1      22.723  39.813  25.244  1.00  0.00     0.210 HD
ENDBRANCH  30  33
BRANCH  32  35
HETATM   35  O8  UNL     1      22.464  40.333  20.948  1.00  0.00    -0.391 OA
ATOM     36  H8  UNL     1      23.139  40.127  20.311  1.00  0.00     0.210 HD
ENDBRANCH  32  35
ENDBRANCH  25  26
ENDBRANCH   5  25
BRANCH   4  37
HETATM   37  O4  UNL     1      18.566  44.964  20.664  1.00  0.00    -0.390 OA
ATOM     38  H4  UNL     1      18.288  44.627  21.508  1.00  0.00     0.210 HD
ENDBRANCH   4  37
BRANCH   3  39
HETATM   39  C4  UNL     1      21.074  44.550  18.122  1.00  0.00     0.198 C 
BRANCH  39  40
HETATM   40  O3  UNL     1      22.018  44.734  19.128  1.00  0.00    -0.398 OA
ATOM     41  H3  UNL     1      21.749  45.399  19.751  1.00  0.00     0.209 HD
ENDBRANCH  39  40
ENDBRANCH   3  39
TORSDOF 15
ENDMDL
