MODEL 3
REMARK VINA RESULT: -5.987907358      1.568      5.840
REMARK  15 active torsions:
REMARK  status: ('A' for Active; 'I' for Inactive)
REMARK    1  A    between atoms: O1_2  and  C2_3 
REMARK    2  A    between atoms: C3_5  and  C4_6 
REMARK    3  A    between atoms: C4_6  and  O3_7 
REMARK    4  A    between atoms: C5_9  and  O4_10 
REMARK    5  A    between atoms: C6_12  and  O5_13 
REMARK    6  A    between atoms: O5_13  and  C7_14 
REMARK    7  A    between atoms: C10_18  and  O7_19 
REMARK    8  A    between atoms: C12_22  and  O8_23 
REMARK    9  A    between atoms: C13_25  and  O9_26 
REMARK   10  A    between atoms: O9_26  and  C14_27 
REMARK   11  A    between atoms: C15_29  and  C16_30 
REMARK   12  A    between atoms: C16_30  and  O11_31 
REMARK   13  A    between atoms: C17_33  and  O12_34 
REMARK   14  A    between atoms: C18_36  and  O13_37 
REMARK   15  A    between atoms: C19_39  and  O14_40 
ROOT
HETATM    1  C2  UNL     1      21.278  41.909  20.947  1.00  0.00     0.291 C 
HETATM    2  O2  UNL     1      21.626  42.696  22.029  1.00  0.00    -0.349 OA
HETATM    3  C3  UNL     1      20.800  42.601  23.121  1.00  0.00     0.179 C 
HETATM    4  C5  UNL     1      19.340  42.587  22.863  1.00  0.00     0.181 C 
HETATM    5  C6  UNL     1      18.958  42.023  21.536  1.00  0.00     0.190 C 
HETATM    6  C13 UNL     1      19.937  42.452  20.460  1.00  0.00     0.211 C 
ENDROOT
BRANCH   6   7
HETATM    7  O9  UNL     1      19.507  41.912  19.279  1.00  0.00    -0.346 OA
BRANCH   7   8
HETATM    8  C14 UNL     1      18.338  42.456  18.787  1.00  0.00     0.292 C 
HETATM    9  O10 UNL     1      18.630  43.757  18.378  1.00  0.00    -0.348 OA
HETATM   10  C15 UNL     1      19.637  43.828  17.445  1.00  0.00     0.179 C 
HETATM   11  C17 UNL     1      19.361  43.013  16.206  1.00  0.00     0.180 C 
HETATM   12  C18 UNL     1      18.748  41.687  16.487  1.00  0.00     0.183 C 
HETATM   13  C19 UNL     1      17.761  41.749  17.594  1.00  0.00     0.204 C 
BRANCH  10  14
HETATM   14  C16 UNL     1      19.764  45.277  17.018  1.00  0.00     0.198 C 
BRANCH  14  15
HETATM   15  O11 UNL     1      18.603  45.999  17.185  1.00  0.00    -0.398 OA
ATOM     16  H11 UNL     1      18.244  46.330  16.370  1.00  0.00     0.209 HD
ENDBRANCH  14  15
ENDBRANCH  10  14
BRANCH  11  17
HETATM   17  O12 UNL     1      18.563  43.770  15.315  1.00  0.00    -0.390 OA
ATOM     18  H12 UNL     1      18.527  43.331  14.474  1.00  0.00     0.210 HD
ENDBRANCH  11  17
BRANCH  12  19
HETATM   19  O13 UNL     1      18.035  41.298  15.326  1.00  0.00    -0.390 OA
ATOM     20  H13 UNL     1      17.458  42.018  15.095  1.00  0.00     0.210 HD
ENDBRANCH  12  19
BRANCH  13  21
HETATM   21  O14 UNL     1      17.196  40.526  17.910  1.00  0.00    -0.388 OA
ATOM     22  H14 UNL     1      16.316  40.600  18.260  1.00  0.00     0.210 HD
ENDBRANCH  13  21
ENDBRANCH   7   8
ENDBRANCH   6   7
BRANCH   1  23
HETATM   23  O1  UNL     1      22.270  42.040  19.994  1.00  0.00    -0.363 OA
HETATM   24  C1  UNL     1      22.835  40.825  19.682  1.00  0.00     0.204 C 
ENDBRANCH   1  23
BRANCH   5  25
HETATM   25  O5  UNL     1      19.101  40.617  21.619  1.00  0.00    -0.348 OA
BRANCH  25  26
HETATM   26  C7  UNL     1      17.916  39.980  21.262  1.00  0.00     0.289 C 
HETATM   27  O6  UNL     1      18.181  38.949  20.400  1.00  0.00    -0.351 OA
HETATM   28  C8  UNL     1      18.657  37.797  20.970  1.00  0.00     0.149 C 
HETATM   29  C9  UNL     1      18.789  36.768  19.840  1.00  0.00     0.042 C 
HETATM   30  C10 UNL     1      17.712  37.204  21.987  1.00  0.00     0.149 C 
HETATM   31  C11 UNL     1      16.620  38.160  22.341  1.00  0.00     0.071 C 
HETATM   32  C12 UNL     1      17.237  39.531  22.536  1.00  0.00     0.175 C 
BRANCH  30  33
HETATM   33  O7  UNL     1      17.119  36.029  21.528  1.00  0.00    -0.393 OA
ATOM     34  H7  UNL     1      16.174  36.108  21.463  1.00  0.00     0.210 HD
ENDBRANCH  30  33
BRANCH  32  35
HETATM   35  O8  UNL     1      18.114  39.427  23.610  1.00  0.00    -0.391 OA
ATOM     36  H8  UNL     1      18.200  38.538  23.935  1.00  0.00     0.210 HD
ENDBRANCH  32  35
ENDBRANCH  25  26
ENDBRANCH   5  25
BRANCH   4  37
HETATM   37  O4  UNL     1      18.808  43.889  23.005  1.00  0.00    -0.390 OA
ATOM     38  H4  UNL     1      18.758  44.316  22.158  1.00  0.00     0.210 HD
ENDBRANCH   4  37
BRANCH   3  39
HETATM   39  C4  UNL     1      21.280  41.494  24.045  1.00  0.00     0.198 C 
BRANCH  39  40
HETATM   40  O3  UNL     1      20.219  40.799  24.619  1.00  0.00    -0.398 OA
ATOM     41  H3  UNL     1      20.102  39.942  24.225  1.00  0.00     0.209 HD
ENDBRANCH  39  40
ENDBRANCH   3  39
TORSDOF 15
ENDMDL
