MODEL 1
REMARK VINA RESULT: -6.810510090      0.000      0.000
REMARK  3 active torsions:
REMARK  status: ('A' for Active; 'I' for Inactive)
REMARK    1  A    between atoms: C1_2  and  C2_4 
REMARK    2  A    between atoms: C3_6  and  C4_7 
REMARK    3  A    between atoms: C7_10  and  O3_11 
ROOT
HETATM    1  C4  UNL     1      -6.206  10.024  -4.244  1.00  0.00    -0.033 A 
HETATM    2  C5  UNL     1      -5.676   9.631  -5.473  1.00  0.00     0.014 A 
HETATM    3  C6  UNL     1      -5.260   8.362  -5.760  1.00  0.00     0.037 A 
HETATM    4  C7  UNL     1      -5.374   7.403  -4.762  1.00  0.00     0.065 A 
HETATM    5  C8  UNL     1      -5.897   7.776  -3.543  1.00  0.00     0.037 A 
HETATM    6  C9  UNL     1      -6.314   9.056  -3.259  1.00  0.00     0.014 A 
ENDROOT
BRANCH   1   7
HETATM    7  C3  UNL     1      -6.653  11.385  -4.131  1.00  0.00     0.060 C 
HETATM    8  C2  UNL     1      -5.952  12.324  -3.563  1.00  0.00     0.193 C 
HETATM    9  F1  UNL     1      -6.490  13.621  -3.499  1.00  0.00    -0.199 F 
BRANCH   8  10
HETATM   10  C1  UNL     1      -4.661  12.104  -2.999  1.00  0.00     0.239 C 
HETATM   11  O1  UNL     1      -4.348  12.692  -1.908  1.00  0.00    -0.642 OA
HETATM   12  O2  UNL     1      -3.698  11.306  -3.536  1.00  0.00    -0.642 OA
ENDBRANCH   8  10
ENDBRANCH   1   7
BRANCH   4  13
HETATM   13  O3  UNL     1      -4.967   6.099  -4.997  1.00  0.00    -0.361 OA
ATOM     14  H3  UNL     1      -4.636   5.565  -4.284  1.00  0.00     0.217 HD
ENDBRANCH   4  13
TORSDOF 3
ENDMDL
