MODEL 5
REMARK VINA RESULT: -6.114471097      1.978      2.579
REMARK  3 active torsions:
REMARK  status: ('A' for Active; 'I' for Inactive)
REMARK    1  A    between atoms: C1_2  and  C2_4 
REMARK    2  A    between atoms: C3_6  and  C4_7 
REMARK    3  A    between atoms: C7_10  and  O3_11 
ROOT
HETATM    1  C4  UNL     1      -5.175   8.724  -4.425  1.00  0.00    -0.033 A 
HETATM    2  C5  UNL     1      -6.077   7.979  -3.664  1.00  0.00     0.014 A 
HETATM    3  C6  UNL     1      -6.790   6.916  -4.142  1.00  0.00     0.037 A 
HETATM    4  C7  UNL     1      -6.602   6.556  -5.470  1.00  0.00     0.065 A 
HETATM    5  C8  UNL     1      -5.714   7.282  -6.233  1.00  0.00     0.037 A 
HETATM    6  C9  UNL     1      -4.998   8.351  -5.747  1.00  0.00     0.014 A 
ENDROOT
BRANCH   1   7
HETATM    7  C3  UNL     1      -4.460   9.771  -3.748  1.00  0.00     0.060 C 
HETATM    8  C2  UNL     1      -4.903  10.992  -3.651  1.00  0.00     0.193 C 
HETATM    9  F1  UNL     1      -4.118  11.942  -2.975  1.00  0.00    -0.199 F 
BRANCH   8  10
HETATM   10  C1  UNL     1      -6.148  11.420  -4.200  1.00  0.00     0.239 C 
HETATM   11  O1  UNL     1      -6.987  12.025  -3.449  1.00  0.00    -0.642 OA
HETATM   12  O2  UNL     1      -6.541  11.230  -5.489  1.00  0.00    -0.642 OA
ENDBRANCH   8  10
ENDBRANCH   1   7
BRANCH   4  13
HETATM   13  O3  UNL     1      -7.300   5.486  -6.008  1.00  0.00    -0.361 OA
ATOM     14  H3  UNL     1      -6.833   4.723  -6.328  1.00  0.00     0.217 HD
ENDBRANCH   4  13
TORSDOF 3
ENDMDL
