MODEL 4
REMARK VINA RESULT: -6.229571251      1.031      1.186
REMARK  3 active torsions:
REMARK  status: ('A' for Active; 'I' for Inactive)
REMARK    1  A    between atoms: C1_2  and  C2_4 
REMARK    2  A    between atoms: C3_6  and  C4_7 
REMARK    3  A    between atoms: C7_10  and  O3_11 
ROOT
HETATM    1  C4  UNL     1      -6.164   8.922  -4.410  1.00  0.00    -0.033 A 
HETATM    2  C5  UNL     1      -5.726   8.281  -5.568  1.00  0.00     0.014 A 
HETATM    3  C6  UNL     1      -5.359   6.966  -5.626  1.00  0.00     0.037 A 
HETATM    4  C7  UNL     1      -5.428   6.224  -4.454  1.00  0.00     0.065 A 
HETATM    5  C8  UNL     1      -5.861   6.844  -3.303  1.00  0.00     0.037 A 
HETATM    6  C9  UNL     1      -6.230   8.168  -3.250  1.00  0.00     0.014 A 
ENDROOT
BRANCH   1   7
HETATM    7  C3  UNL     1      -6.573  10.294  -4.539  1.00  0.00     0.060 C 
HETATM    8  C2  UNL     1      -5.838  11.299  -4.156  1.00  0.00     0.193 C 
HETATM    9  F1  UNL     1      -6.339  12.602  -4.321  1.00  0.00    -0.199 F 
BRANCH   8  10
HETATM   10  C1  UNL     1      -4.545  11.146  -3.574  1.00  0.00     0.239 C 
HETATM   11  O1  UNL     1      -4.194  11.921  -2.621  1.00  0.00    -0.642 OA
HETATM   12  O2  UNL     1      -3.619  10.226  -3.958  1.00  0.00    -0.642 OA
ENDBRANCH   8  10
ENDBRANCH   1   7
BRANCH   4  13
HETATM   13  O3  UNL     1      -5.067   4.885  -4.454  1.00  0.00    -0.361 OA
ATOM     14  H3  UNL     1      -4.164   4.634  -4.293  1.00  0.00     0.217 HD
ENDBRANCH   4  13
TORSDOF 3
ENDMDL
