MODEL 2
REMARK VINA RESULT: -6.748102999      2.302      5.138
REMARK  3 active torsions:
REMARK  status: ('A' for Active; 'I' for Inactive)
REMARK    1  A    between atoms: C1_2  and  C2_4 
REMARK    2  A    between atoms: C3_6  and  C4_7 
REMARK    3  A    between atoms: C7_10  and  O3_11 
ROOT
HETATM    1  C4  UNL     1      -5.934  12.422  -3.384  1.00  0.00    -0.033 A 
HETATM    2  C5  UNL     1      -6.444  13.709  -3.550  1.00  0.00     0.014 A 
HETATM    3  C6  UNL     1      -6.031  14.797  -2.835  1.00  0.00     0.037 A 
HETATM    4  C7  UNL     1      -5.039  14.605  -1.882  1.00  0.00     0.065 A 
HETATM    5  C8  UNL     1      -4.524  13.340  -1.709  1.00  0.00     0.037 A 
HETATM    6  C9  UNL     1      -4.944  12.247  -2.432  1.00  0.00     0.014 A 
ENDROOT
BRANCH   1   7
HETATM    7  C3  UNL     1      -6.436  11.402  -4.265  1.00  0.00     0.060 C 
HETATM    8  C2  UNL     1      -5.795  10.297  -4.518  1.00  0.00     0.193 C 
HETATM    9  F1  UNL     1      -6.374   9.371  -5.403  1.00  0.00    -0.199 F 
BRANCH   8  10
HETATM   10  C1  UNL     1      -4.530   9.976  -3.943  1.00  0.00     0.239 C 
HETATM   11  O1  UNL     1      -4.408   8.900  -3.265  1.00  0.00    -0.642 OA
HETATM   12  O2  UNL     1      -3.408  10.737  -4.049  1.00  0.00    -0.642 OA
ENDBRANCH   8  10
ENDBRANCH   1   7
BRANCH   4  13
HETATM   13  O3  UNL     1      -4.581  15.675  -1.126  1.00  0.00    -0.361 OA
ATOM     14  H3  UNL     1      -3.727  16.053  -1.302  1.00  0.00     0.217 HD
ENDBRANCH   4  13
TORSDOF 3
ENDMDL
