MODEL 4
REMARK VINA RESULT: -9.552970523      0.728      1.234
REMARK  14 active torsions:
REMARK  status: ('A' for Active; 'I' for Inactive)
REMARK    1  A    between atoms: C1_2  and  C2_4 
REMARK    2  A    between atoms: C2_4  and  C3_5 
REMARK    3  A    between atoms: C3_5  and  C4_6 
REMARK    4  A    between atoms: C4_6  and  C5_7 
REMARK       I    between atoms: C5_7  and  N1_9 
REMARK    5  A    between atoms: N1_9  and  C6_11 
REMARK    6  A    between atoms: C6_11  and  C7_12 
REMARK    7  A    between atoms: C6_11  and  P1_19 
REMARK    8  A    between atoms: C7_12  and  C8_13 
REMARK    9  A    between atoms: P1_19  and  O6_22 
REMARK   10  A    between atoms: O6_22  and  C14_23 
REMARK   11  A    between atoms: C14_23  and  C15_24 
REMARK       I    between atoms: C15_24  and  N2_26 
REMARK   12  A    between atoms: N2_26  and  C16_28 
REMARK   13  A    between atoms: C16_28  and  C17_29 
REMARK   14  A    between atoms: C17_29  and  C18_30 
ROOT
HETATM    1  C6  UNL     1      28.878 -47.346  41.286  1.00  0.00     0.209 C 
ENDROOT
BRANCH   1   2
HETATM    2  N1  UNL     1      29.169 -48.157  40.077  1.00  0.00    -0.344 N 
HETATM    3  C5  UNL     1      30.197 -47.756  39.183  1.00  0.00     0.218 C 
HETATM    4  O3  UNL     1      30.792 -46.644  39.389  1.00  0.00    -0.274 OA
ATOM      5  H1  UNL     1      28.630 -49.003  39.889  1.00  0.00     0.163 HD
BRANCH   3   6
HETATM    6  C4  UNL     1      30.621 -48.575  38.029  1.00  0.00     0.103 C 
BRANCH   6   7
HETATM    7  C3  UNL     1      31.107 -47.729  36.897  1.00  0.00     0.020 C 
BRANCH   7   8
HETATM    8  C2  UNL     1      31.517 -48.602  35.730  1.00  0.00     0.113 C 
BRANCH   8   9
HETATM    9  C1  UNL     1      32.839 -49.202  35.962  1.00  0.00     0.172 C 
HETATM   10  O1  UNL     1      32.969 -50.460  36.183  1.00  0.00    -0.648 OA
HETATM   11  O2  UNL     1      34.040 -48.470  35.953  1.00  0.00    -0.648 OA
ENDBRANCH   8   9
ENDBRANCH   7   8
ENDBRANCH   6   7
ENDBRANCH   3   6
ENDBRANCH   1   2
BRANCH   1  12
HETATM   12  C7  UNL     1      29.036 -48.278  42.450  1.00  0.00     0.077 C 
BRANCH  12  13
HETATM   13  C8  UNL     1      30.268 -49.030  42.553  1.00  0.00    -0.056 A 
HETATM   14  C9  UNL     1      30.279 -50.387  42.186  1.00  0.00     0.007 A 
HETATM   15  C10 UNL     1      31.374 -51.190  42.251  1.00  0.00     0.001 A 
HETATM   16  C11 UNL     1      32.584 -50.665  42.697  1.00  0.00     0.000 A 
HETATM   17  C12 UNL     1      32.612 -49.347  43.061  1.00  0.00     0.001 A 
HETATM   18  C13 UNL     1      31.460 -48.531  42.991  1.00  0.00     0.007 A 
ENDBRANCH  12  13
ENDBRANCH   1  12
BRANCH   1  19
HETATM   19  P1  UNL     1      27.539 -46.342  41.298  1.00  0.00     0.273 P 
HETATM   20  O4  UNL     1      26.722 -45.762  42.562  1.00  0.00    -0.645 OA
HETATM   21  O5  UNL     1      26.808 -46.052  39.686  1.00  0.00    -0.645 OA
BRANCH  19  22
HETATM   22  O6  UNL     1      28.164 -44.971  41.003  1.00  0.00    -0.301 OA
BRANCH  22  23
HETATM   23  C14 UNL     1      29.190 -44.439  41.712  1.00  0.00     0.281 C 
BRANCH  23  24
HETATM   24  C15 UNL     1      28.808 -42.956  41.816  1.00  0.00     0.241 C 
HETATM   25  O7  UNL     1      27.606 -42.644  41.935  1.00  0.00    -0.271 OA
HETATM   26  N2  UNL     1      29.814 -41.999  41.788  1.00  0.00    -0.359 N 
ATOM     27  H2  UNL     1      30.768 -42.303  41.593  1.00  0.00     0.162 HD
BRANCH  26  28
HETATM   28  C16 UNL     1      29.573 -40.575  42.025  1.00  0.00     0.127 C 
BRANCH  28  29
HETATM   29  C17 UNL     1      30.465 -39.754  41.183  1.00  0.00     0.058 C 
BRANCH  29  30
HETATM   30  C18 UNL     1      30.523 -38.412  41.762  1.00  0.00    -0.057 A 
HETATM   31  C19 UNL     1      30.674 -37.235  41.119  1.00  0.00     0.007 A 
HETATM   32  C20 UNL     1      30.670 -36.033  41.815  1.00  0.00     0.001 A 
HETATM   33  C21 UNL     1      30.509 -36.018  43.197  1.00  0.00     0.000 A 
HETATM   34  C22 UNL     1      30.357 -37.250  43.828  1.00  0.00     0.001 A 
HETATM   35  C23 UNL     1      30.354 -38.446  43.170  1.00  0.00     0.007 A 
ENDBRANCH  29  30
ENDBRANCH  28  29
ENDBRANCH  26  28
ENDBRANCH  23  24
ENDBRANCH  22  23
ENDBRANCH  19  22
ENDBRANCH   1  19
TORSDOF 14
ENDMDL
