MODEL 15
REMARK VINA RESULT: -9.130754795      2.959      5.294
REMARK  14 active torsions:
REMARK  status: ('A' for Active; 'I' for Inactive)
REMARK    1  A    between atoms: C1_2  and  C2_4 
REMARK    2  A    between atoms: C2_4  and  C3_5 
REMARK    3  A    between atoms: C3_5  and  C4_6 
REMARK    4  A    between atoms: C4_6  and  C5_7 
REMARK       I    between atoms: C5_7  and  N1_9 
REMARK    5  A    between atoms: N1_9  and  C6_11 
REMARK    6  A    between atoms: C6_11  and  C7_12 
REMARK    7  A    between atoms: C6_11  and  P1_19 
REMARK    8  A    between atoms: C7_12  and  C8_13 
REMARK    9  A    between atoms: P1_19  and  O6_22 
REMARK   10  A    between atoms: O6_22  and  C14_23 
REMARK   11  A    between atoms: C14_23  and  C15_24 
REMARK       I    between atoms: C15_24  and  N2_26 
REMARK   12  A    between atoms: N2_26  and  C16_28 
REMARK   13  A    between atoms: C16_28  and  C17_29 
REMARK   14  A    between atoms: C17_29  and  C18_30 
ROOT
HETATM    1  C6  UNL     1      28.580 -47.501  42.603  1.00  0.00     0.209 C 
ENDROOT
BRANCH   1   2
HETATM    2  N1  UNL     1      28.678 -47.845  44.044  1.00  0.00    -0.344 N 
HETATM    3  C5  UNL     1      28.284 -49.134  44.494  1.00  0.00     0.218 C 
HETATM    4  O3  UNL     1      27.760 -49.944  43.657  1.00  0.00    -0.274 OA
ATOM      5  H1  UNL     1      29.028 -47.157  44.711  1.00  0.00     0.163 HD
BRANCH   3   6
HETATM    6  C4  UNL     1      28.466 -49.586  45.889  1.00  0.00     0.103 C 
BRANCH   6   7
HETATM    7  C3  UNL     1      29.909 -49.613  46.278  1.00  0.00     0.020 C 
BRANCH   7   8
HETATM    8  C2  UNL     1      30.115 -48.854  47.572  1.00  0.00     0.113 C 
BRANCH   8   9
HETATM    9  C1  UNL     1      30.572 -49.753  48.641  1.00  0.00     0.172 C 
HETATM   10  O1  UNL     1      30.736 -51.009  48.430  1.00  0.00    -0.648 OA
HETATM   11  O2  UNL     1      30.869 -49.324  49.948  1.00  0.00    -0.648 OA
ENDBRANCH   8   9
ENDBRANCH   7   8
ENDBRANCH   6   7
ENDBRANCH   3   6
ENDBRANCH   1   2
BRANCH   1  12
HETATM   12  C7  UNL     1      29.993 -47.402  42.112  1.00  0.00     0.077 C 
BRANCH  12  13
HETATM   13  C8  UNL     1      30.827 -48.580  42.207  1.00  0.00    -0.056 A 
HETATM   14  C9  UNL     1      31.944 -48.566  43.061  1.00  0.00     0.007 A 
HETATM   15  C10 UNL     1      32.800 -49.610  43.222  1.00  0.00     0.001 A 
HETATM   16  C11 UNL     1      32.582 -50.790  42.517  1.00  0.00     0.000 A 
HETATM   17  C12 UNL     1      31.504 -50.842  41.678  1.00  0.00     0.001 A 
HETATM   18  C13 UNL     1      30.630 -49.743  41.521  1.00  0.00     0.007 A 
ENDBRANCH  12  13
ENDBRANCH   1  12
BRANCH   1  19
HETATM   19  P1  UNL     1      27.525 -46.296  42.118  1.00  0.00     0.273 P 
HETATM   20  O4  UNL     1      26.345 -45.588  42.960  1.00  0.00    -0.645 OA
HETATM   21  O5  UNL     1      27.596 -45.899  40.371  1.00  0.00    -0.645 OA
BRANCH  19  22
HETATM   22  O6  UNL     1      28.410 -45.044  42.201  1.00  0.00    -0.301 OA
BRANCH  22  23
HETATM   23  C14 UNL     1      27.929 -43.776  42.206  1.00  0.00     0.281 C 
BRANCH  23  24
HETATM   24  C15 UNL     1      29.129 -42.948  41.727  1.00  0.00     0.241 C 
HETATM   25  O7  UNL     1      30.129 -43.534  41.267  1.00  0.00    -0.271 OA
HETATM   26  N2  UNL     1      29.064 -41.562  41.807  1.00  0.00    -0.359 N 
ATOM     27  H2  UNL     1      28.265 -41.140  42.278  1.00  0.00     0.162 HD
BRANCH  26  28
HETATM   28  C16 UNL     1      30.088 -40.679  41.246  1.00  0.00     0.127 C 
BRANCH  28  29
HETATM   29  C17 UNL     1      30.906 -40.090  42.324  1.00  0.00     0.058 C 
BRANCH  29  30
HETATM   30  C18 UNL     1      30.724 -38.639  42.287  1.00  0.00    -0.057 A 
HETATM   31  C19 UNL     1      30.938 -37.801  41.251  1.00  0.00     0.007 A 
HETATM   32  C20 UNL     1      30.678 -36.441  41.366  1.00  0.00     0.001 A 
HETATM   33  C21 UNL     1      30.189 -35.913  42.557  1.00  0.00     0.000 A 
HETATM   34  C22 UNL     1      29.981 -36.806  43.605  1.00  0.00     0.001 A 
HETATM   35  C23 UNL     1      30.225 -38.147  43.521  1.00  0.00     0.007 A 
ENDBRANCH  29  30
ENDBRANCH  28  29
ENDBRANCH  26  28
ENDBRANCH  23  24
ENDBRANCH  22  23
ENDBRANCH  19  22
ENDBRANCH   1  19
TORSDOF 14
ENDMDL
