MODEL 10
REMARK VINA RESULT: -9.207216488      2.889      4.566
REMARK  14 active torsions:
REMARK  status: ('A' for Active; 'I' for Inactive)
REMARK    1  A    between atoms: C1_2  and  C2_4 
REMARK    2  A    between atoms: C2_4  and  C3_5 
REMARK    3  A    between atoms: C3_5  and  C4_6 
REMARK    4  A    between atoms: C4_6  and  C5_7 
REMARK       I    between atoms: C5_7  and  N1_9 
REMARK    5  A    between atoms: N1_9  and  C6_11 
REMARK    6  A    between atoms: C6_11  and  C7_12 
REMARK    7  A    between atoms: C6_11  and  P1_19 
REMARK    8  A    between atoms: C7_12  and  C8_13 
REMARK    9  A    between atoms: P1_19  and  O6_22 
REMARK   10  A    between atoms: O6_22  and  C14_23 
REMARK   11  A    between atoms: C14_23  and  C15_24 
REMARK       I    between atoms: C15_24  and  N2_26 
REMARK   12  A    between atoms: N2_26  and  C16_28 
REMARK   13  A    between atoms: C16_28  and  C17_29 
REMARK   14  A    between atoms: C17_29  and  C18_30 
ROOT
HETATM    1  C6  UNL     1      28.812 -47.131  42.167  1.00  0.00     0.209 C 
ENDROOT
BRANCH   1   2
HETATM    2  N1  UNL     1      27.912 -47.389  43.319  1.00  0.00    -0.344 N 
HETATM    3  C5  UNL     1      26.832 -48.301  43.186  1.00  0.00     0.218 C 
HETATM    4  O3  UNL     1      26.597 -48.814  42.039  1.00  0.00    -0.274 OA
ATOM      5  H1  UNL     1      28.070 -46.911  44.207  1.00  0.00     0.163 HD
BRANCH   3   6
HETATM    6  C4  UNL     1      25.972 -48.697  44.321  1.00  0.00     0.103 C 
BRANCH   6   7
HETATM    7  C3  UNL     1      26.752 -49.389  45.391  1.00  0.00     0.020 C 
BRANCH   7   8
HETATM    8  C2  UNL     1      27.681 -50.417  44.779  1.00  0.00     0.113 C 
BRANCH   8   9
HETATM    9  C1  UNL     1      29.063 -50.213  45.236  1.00  0.00     0.172 C 
HETATM   10  O1  UNL     1      29.455 -49.075  45.686  1.00  0.00    -0.648 OA
HETATM   11  O2  UNL     1      30.045 -51.220  45.227  1.00  0.00    -0.648 OA
ENDBRANCH   8   9
ENDBRANCH   7   8
ENDBRANCH   6   7
ENDBRANCH   3   6
ENDBRANCH   1   2
BRANCH   1  12
HETATM   12  C7  UNL     1      30.205 -47.316  42.688  1.00  0.00     0.077 C 
BRANCH  12  13
HETATM   13  C8  UNL     1      30.837 -48.602  42.487  1.00  0.00    -0.056 A 
HETATM   14  C9  UNL     1      32.030 -48.898  43.170  1.00  0.00     0.007 A 
HETATM   15  C10 UNL     1      32.713 -50.067  43.050  1.00  0.00     0.001 A 
HETATM   16  C11 UNL     1      32.224 -51.064  42.212  1.00  0.00     0.000 A 
HETATM   17  C12 UNL     1      31.064 -50.814  41.532  1.00  0.00     0.001 A 
HETATM   18  C13 UNL     1      30.372 -49.589  41.667  1.00  0.00     0.007 A 
ENDBRANCH  12  13
ENDBRANCH   1  12
BRANCH   1  19
HETATM   19  P1  UNL     1      28.539 -45.794  41.198  1.00  0.00     0.273 P 
HETATM   20  O4  UNL     1      27.178 -45.341  40.459  1.00  0.00    -0.645 OA
HETATM   21  O5  UNL     1      30.014 -44.868  40.769  1.00  0.00    -0.645 OA
BRANCH  19  22
HETATM   22  O6  UNL     1      28.416 -44.668  42.234  1.00  0.00    -0.301 OA
BRANCH  22  23
HETATM   23  C14 UNL     1      27.307 -43.903  42.393  1.00  0.00     0.281 C 
BRANCH  23  24
HETATM   24  C15 UNL     1      27.754 -42.531  41.868  1.00  0.00     0.241 C 
HETATM   25  O7  UNL     1      26.895 -41.735  41.438  1.00  0.00    -0.271 OA
HETATM   26  N2  UNL     1      29.104 -42.207  41.898  1.00  0.00    -0.359 N 
ATOM     27  H2  UNL     1      29.771 -42.929  42.169  1.00  0.00     0.162 HD
BRANCH  26  28
HETATM   28  C16 UNL     1      29.616 -40.878  41.559  1.00  0.00     0.127 C 
BRANCH  28  29
HETATM   29  C17 UNL     1      30.622 -40.447  42.549  1.00  0.00     0.058 C 
BRANCH  29  30
HETATM   30  C18 UNL     1      30.581 -38.986  42.628  1.00  0.00    -0.057 A 
HETATM   31  C19 UNL     1      30.369 -38.219  43.717  1.00  0.00     0.007 A 
HETATM   32  C20 UNL     1      30.399 -36.832  43.632  1.00  0.00     0.001 A 
HETATM   33  C21 UNL     1      30.650 -36.204  42.416  1.00  0.00     0.000 A 
HETATM   34  C22 UNL     1      30.864 -37.027  41.313  1.00  0.00     0.001 A 
HETATM   35  C23 UNL     1      30.842 -38.391  41.367  1.00  0.00     0.007 A 
ENDBRANCH  29  30
ENDBRANCH  28  29
ENDBRANCH  26  28
ENDBRANCH  23  24
ENDBRANCH  22  23
ENDBRANCH  19  22
ENDBRANCH   1  19
TORSDOF 14
ENDMDL
