MODEL 1
REMARK VINA RESULT: -9.674831781      0.000      0.000
REMARK  14 active torsions:
REMARK  status: ('A' for Active; 'I' for Inactive)
REMARK    1  A    between atoms: C1_2  and  C2_4 
REMARK    2  A    between atoms: C2_4  and  C3_5 
REMARK    3  A    between atoms: C3_5  and  C4_6 
REMARK    4  A    between atoms: C4_6  and  C5_7 
REMARK       I    between atoms: C5_7  and  N1_9 
REMARK    5  A    between atoms: N1_9  and  C6_11 
REMARK    6  A    between atoms: C6_11  and  C7_12 
REMARK    7  A    between atoms: C6_11  and  P1_19 
REMARK    8  A    between atoms: C7_12  and  C8_13 
REMARK    9  A    between atoms: P1_19  and  O6_22 
REMARK   10  A    between atoms: O6_22  and  C14_23 
REMARK   11  A    between atoms: C14_23  and  C15_24 
REMARK       I    between atoms: C15_24  and  N2_26 
REMARK   12  A    between atoms: N2_26  and  C16_28 
REMARK   13  A    between atoms: C16_28  and  C17_29 
REMARK   14  A    between atoms: C17_29  and  C18_30 
ROOT
HETATM    1  C6  UNL     1      28.818 -47.554  41.435  1.00  0.00     0.209 C 
ENDROOT
BRANCH   1   2
HETATM    2  N1  UNL     1      29.037 -48.279  40.159  1.00  0.00    -0.344 N 
HETATM    3  C5  UNL     1      30.066 -47.862  39.273  1.00  0.00     0.218 C 
HETATM    4  O3  UNL     1      30.726 -46.804  39.551  1.00  0.00    -0.274 OA
ATOM      5  H1  UNL     1      28.449 -49.078  39.918  1.00  0.00     0.163 HD
BRANCH   3   6
HETATM    6  C4  UNL     1      30.420 -48.608  38.047  1.00  0.00     0.103 C 
BRANCH   6   7
HETATM    7  C3  UNL     1      31.143 -47.745  37.064  1.00  0.00     0.020 C 
BRANCH   7   8
HETATM    8  C2  UNL     1      31.488 -48.543  35.823  1.00  0.00     0.113 C 
BRANCH   8   9
HETATM    9  C1  UNL     1      32.781 -49.224  35.980  1.00  0.00     0.172 C 
HETATM   10  O1  UNL     1      33.887 -48.575  35.919  1.00  0.00    -0.648 OA
HETATM   11  O2  UNL     1      32.912 -50.605  36.212  1.00  0.00    -0.648 OA
ENDBRANCH   8   9
ENDBRANCH   7   8
ENDBRANCH   6   7
ENDBRANCH   3   6
ENDBRANCH   1   2
BRANCH   1  12
HETATM   12  C7  UNL     1      28.922 -48.589  42.515  1.00  0.00     0.077 C 
BRANCH  12  13
HETATM   13  C8  UNL     1      30.161 -49.327  42.628  1.00  0.00    -0.056 A 
HETATM   14  C9  UNL     1      31.349 -48.637  42.925  1.00  0.00     0.007 A 
HETATM   15  C10 UNL     1      32.569 -49.226  43.045  1.00  0.00     0.001 A 
HETATM   16  C11 UNL     1      32.685 -50.603  42.880  1.00  0.00     0.000 A 
HETATM   17  C12 UNL     1      31.550 -51.309  42.592  1.00  0.00     0.001 A 
HETATM   18  C13 UNL     1      30.292 -50.676  42.465  1.00  0.00     0.007 A 
ENDBRANCH  12  13
ENDBRANCH   1  12
BRANCH   1  19
HETATM   19  P1  UNL     1      27.553 -46.465  41.552  1.00  0.00     0.273 P 
HETATM   20  O4  UNL     1      26.647 -46.103  42.837  1.00  0.00    -0.645 OA
HETATM   21  O5  UNL     1      27.016 -45.771  39.988  1.00  0.00    -0.645 OA
BRANCH  19  22
HETATM   22  O6  UNL     1      28.293 -45.122  41.628  1.00  0.00    -0.301 OA
BRANCH  22  23
HETATM   23  C14 UNL     1      27.726 -43.968  42.057  1.00  0.00     0.281 C 
BRANCH  23  24
HETATM   24  C15 UNL     1      28.812 -42.921  41.775  1.00  0.00     0.241 C 
HETATM   25  O7  UNL     1      29.964 -43.302  41.484  1.00  0.00    -0.271 OA
HETATM   26  N2  UNL     1      28.480 -41.573  41.839  1.00  0.00    -0.359 N 
ATOM     27  H2  UNL     1      27.552 -41.317  42.175  1.00  0.00     0.162 HD
BRANCH  26  28
HETATM   28  C16 UNL     1      29.399 -40.502  41.448  1.00  0.00     0.127 C 
BRANCH  28  29
HETATM   29  C17 UNL     1      30.163 -40.027  42.617  1.00  0.00     0.058 C 
BRANCH  29  30
HETATM   30  C18 UNL     1      30.368 -38.586  42.467  1.00  0.00    -0.057 A 
HETATM   31  C19 UNL     1      30.599 -37.894  41.332  1.00  0.00     0.007 A 
HETATM   32  C20 UNL     1      30.734 -36.511  41.352  1.00  0.00     0.001 A 
HETATM   33  C21 UNL     1      30.633 -35.809  42.549  1.00  0.00     0.000 A 
HETATM   34  C22 UNL     1      30.394 -36.555  43.701  1.00  0.00     0.001 A 
HETATM   35  C23 UNL     1      30.255 -37.913  43.711  1.00  0.00     0.007 A 
ENDBRANCH  29  30
ENDBRANCH  28  29
ENDBRANCH  26  28
ENDBRANCH  23  24
ENDBRANCH  22  23
ENDBRANCH  19  22
ENDBRANCH   1  19
TORSDOF 14
ENDMDL
