MODEL 2
REMARK VINA RESULT: -9.656414981      0.564      1.361
REMARK  14 active torsions:
REMARK  status: ('A' for Active; 'I' for Inactive)
REMARK    1  A    between atoms: C1_2  and  C2_4 
REMARK    2  A    between atoms: C2_4  and  C3_5 
REMARK    3  A    between atoms: C3_5  and  C4_6 
REMARK    4  A    between atoms: C4_6  and  C5_7 
REMARK       I    between atoms: C5_7  and  N1_9 
REMARK    5  A    between atoms: N1_9  and  C6_11 
REMARK    6  A    between atoms: C6_11  and  C7_12 
REMARK    7  A    between atoms: C6_11  and  P1_19 
REMARK    8  A    between atoms: C7_12  and  C8_13 
REMARK    9  A    between atoms: P1_19  and  O6_22 
REMARK   10  A    between atoms: O6_22  and  C14_23 
REMARK   11  A    between atoms: C14_23  and  C15_24 
REMARK       I    between atoms: C15_24  and  N2_26 
REMARK   12  A    between atoms: N2_26  and  C16_28 
REMARK   13  A    between atoms: C16_28  and  C17_29 
REMARK   14  A    between atoms: C17_29  and  C18_30 
ROOT
HETATM    1  C6  UNL     1      28.834 -47.542  41.373  1.00  0.00     0.209 C 
ENDROOT
BRANCH   1   2
HETATM    2  N1  UNL     1      29.053 -48.341  40.141  1.00  0.00    -0.344 N 
HETATM    3  C5  UNL     1      30.060 -47.957  39.217  1.00  0.00     0.218 C 
HETATM    4  O3  UNL     1      30.698 -46.869  39.418  1.00  0.00    -0.274 OA
ATOM      5  H1  UNL     1      28.480 -49.166  39.960  1.00  0.00     0.163 HD
BRANCH   3   6
HETATM    6  C4  UNL     1      30.415 -48.770  38.034  1.00  0.00     0.103 C 
BRANCH   6   7
HETATM    7  C3  UNL     1      30.917 -47.923  36.910  1.00  0.00     0.020 C 
BRANCH   7   8
HETATM    8  C2  UNL     1      32.166 -48.537  36.312  1.00  0.00     0.113 C 
BRANCH   8   9
HETATM    9  C1  UNL     1      31.897 -49.894  35.817  1.00  0.00     0.172 C 
HETATM   10  O1  UNL     1      32.552 -50.906  36.261  1.00  0.00    -0.648 OA
HETATM   11  O2  UNL     1      30.923 -50.193  34.848  1.00  0.00    -0.648 OA
ENDBRANCH   8   9
ENDBRANCH   7   8
ENDBRANCH   6   7
ENDBRANCH   3   6
ENDBRANCH   1   2
BRANCH   1  12
HETATM   12  C7  UNL     1      28.986 -48.502  42.514  1.00  0.00     0.077 C 
BRANCH  12  13
HETATM   13  C8  UNL     1      30.263 -49.162  42.678  1.00  0.00    -0.056 A 
HETATM   14  C9  UNL     1      30.322 -50.566  42.649  1.00  0.00     0.007 A 
HETATM   15  C10 UNL     1      31.462 -51.290  42.801  1.00  0.00     0.001 A 
HETATM   16  C11 UNL     1      32.673 -50.630  42.990  1.00  0.00     0.000 A 
HETATM   17  C12 UNL     1      32.657 -49.263  43.022  1.00  0.00     0.001 A 
HETATM   18  C13 UNL     1      31.458 -48.530  42.867  1.00  0.00     0.007 A 
ENDBRANCH  12  13
ENDBRANCH   1  12
BRANCH   1  19
HETATM   19  P1  UNL     1      27.539 -46.484  41.444  1.00  0.00     0.273 P 
HETATM   20  O4  UNL     1      26.691 -46.010  42.732  1.00  0.00    -0.645 OA
HETATM   21  O5  UNL     1      26.896 -45.981  39.848  1.00  0.00    -0.645 OA
BRANCH  19  22
HETATM   22  O6  UNL     1      28.235 -45.120  41.333  1.00  0.00    -0.301 OA
BRANCH  22  23
HETATM   23  C14 UNL     1      27.847 -44.014  42.015  1.00  0.00     0.281 C 
BRANCH  23  24
HETATM   24  C15 UNL     1      28.962 -43.005  41.704  1.00  0.00     0.241 C 
HETATM   25  O7  UNL     1      30.063 -43.423  41.292  1.00  0.00    -0.271 OA
HETATM   26  N2  UNL     1      28.711 -41.650  41.878  1.00  0.00    -0.359 N 
ATOM     27  H2  UNL     1      27.828 -41.371  42.308  1.00  0.00     0.162 HD
BRANCH  26  28
HETATM   28  C16 UNL     1      29.650 -40.602  41.475  1.00  0.00     0.127 C 
BRANCH  28  29
HETATM   29  C17 UNL     1      30.475 -40.181  42.624  1.00  0.00     0.058 C 
BRANCH  29  30
HETATM   30  C18 UNL     1      30.483 -38.718  42.662  1.00  0.00    -0.057 A 
HETATM   31  C19 UNL     1      30.320 -37.914  43.732  1.00  0.00     0.007 A 
HETATM   32  C20 UNL     1      30.394 -36.532  43.607  1.00  0.00     0.001 A 
HETATM   33  C21 UNL     1      30.640 -35.947  42.368  1.00  0.00     0.000 A 
HETATM   34  C22 UNL     1      30.804 -36.808  41.285  1.00  0.00     0.001 A 
HETATM   35  C23 UNL     1      30.738 -38.168  41.379  1.00  0.00     0.007 A 
ENDBRANCH  29  30
ENDBRANCH  28  29
ENDBRANCH  26  28
ENDBRANCH  23  24
ENDBRANCH  22  23
ENDBRANCH  19  22
ENDBRANCH   1  19
TORSDOF 14
ENDMDL
