MODEL 7
REMARK VINA RESULT: -8.246863649      3.162      5.500
REMARK  14 active torsions:
REMARK  status: ('A' for Active; 'I' for Inactive)
REMARK    1  A    between atoms: C1_2  and  C2_4 
REMARK    2  A    between atoms: C2_4  and  C3_5 
REMARK    3  A    between atoms: C3_5  and  C4_6 
REMARK    4  A    between atoms: C4_6  and  C5_7 
REMARK       I    between atoms: C5_7  and  N1_9 
REMARK    5  A    between atoms: N1_9  and  C6_11 
REMARK    6  A    between atoms: C6_11  and  C7_12 
REMARK    7  A    between atoms: C6_11  and  P1_19 
REMARK    8  A    between atoms: C7_12  and  C8_13 
REMARK    9  A    between atoms: P1_19  and  O6_22 
REMARK   10  A    between atoms: O6_22  and  C14_23 
REMARK   11  A    between atoms: C14_23  and  C15_24 
REMARK       I    between atoms: C15_24  and  N2_26 
REMARK   12  A    between atoms: N2_26  and  C16_28 
REMARK   13  A    between atoms: C16_28  and  C17_29 
REMARK   14  A    between atoms: C17_29  and  C18_30 
ROOT
HETATM    1  C6  UNL     1       3.984  45.534  57.071  1.00  0.00     0.209 C 
ENDROOT
BRANCH   1   2
HETATM    2  N1  UNL     1       4.580  44.480  57.931  1.00  0.00    -0.344 N 
HETATM    3  C5  UNL     1       5.937  44.104  57.754  1.00  0.00     0.218 C 
HETATM    4  O3  UNL     1       6.598  44.616  56.787  1.00  0.00    -0.274 OA
ATOM      5  H1  UNL     1       4.014  44.027  58.649  1.00  0.00     0.163 HD
BRANCH   3   6
HETATM    6  C4  UNL     1       6.629  43.153  58.649  1.00  0.00     0.103 C 
BRANCH   6   7
HETATM    7  C3  UNL     1       6.751  41.798  58.030  1.00  0.00     0.020 C 
BRANCH   7   8
HETATM    8  C2  UNL     1       8.175  41.561  57.571  1.00  0.00     0.113 C 
BRANCH   8   9
HETATM    9  C1  UNL     1       8.270  41.617  56.105  1.00  0.00     0.172 C 
HETATM   10  O1  UNL     1       7.649  40.771  55.365  1.00  0.00    -0.648 OA
HETATM   11  O2  UNL     1       9.021  42.581  55.409  1.00  0.00    -0.648 OA
ENDBRANCH   8   9
ENDBRANCH   7   8
ENDBRANCH   6   7
ENDBRANCH   3   6
ENDBRANCH   1   2
BRANCH   1  12
HETATM   12  C7  UNL     1       4.014  46.791  57.887  1.00  0.00     0.077 C 
BRANCH  12  13
HETATM   13  C8  UNL     1       5.217  47.595  57.848  1.00  0.00    -0.056 A 
HETATM   14  C9  UNL     1       5.900  47.870  59.046  1.00  0.00     0.007 A 
HETATM   15  C10 UNL     1       7.031  48.619  59.129  1.00  0.00     0.001 A 
HETATM   16  C11 UNL     1       7.583  49.158  57.970  1.00  0.00     0.000 A 
HETATM   17  C12 UNL     1       6.948  48.910  56.786  1.00  0.00     0.001 A 
HETATM   18  C13 UNL     1       5.769  48.132  56.722  1.00  0.00     0.007 A 
ENDBRANCH  12  13
ENDBRANCH   1  12
BRANCH   1  19
HETATM   19  P1  UNL     1       2.570  45.208  56.236  1.00  0.00     0.273 P 
HETATM   20  O4  UNL     1       1.894  46.041  55.032  1.00  0.00    -0.645 OA
HETATM   21  O5  UNL     1       1.589  43.872  56.921  1.00  0.00    -0.645 OA
BRANCH  19  22
HETATM   22  O6  UNL     1       3.011  44.086  55.286  1.00  0.00    -0.301 OA
BRANCH  22  23
HETATM   23  C14 UNL     1       2.212  43.060  54.904  1.00  0.00     0.281 C 
BRANCH  23  24
HETATM   24  C15 UNL     1       2.343  43.068  53.374  1.00  0.00     0.241 C 
HETATM   25  O7  UNL     1       2.942  42.130  52.810  1.00  0.00    -0.271 OA
HETATM   26  N2  UNL     1       1.779  44.115  52.657  1.00  0.00    -0.359 N 
ATOM     27  H2  UNL     1       1.385  44.901  53.173  1.00  0.00     0.162 HD
BRANCH  26  28
HETATM   28  C16 UNL     1       1.720  44.144  51.194  1.00  0.00     0.127 C 
BRANCH  28  29
HETATM   29  C17 UNL     1       0.683  45.090  50.739  1.00  0.00     0.058 C 
BRANCH  29  30
HETATM   30  C18 UNL     1       0.423  44.829  49.323  1.00  0.00    -0.057 A 
HETATM   31  C19 UNL     1       1.287  44.911  48.291  1.00  0.00     0.007 A 
HETATM   32  C20 UNL     1       0.891  44.589  46.999  1.00  0.00     0.001 A 
HETATM   33  C21 UNL     1      -0.412  44.172  46.742  1.00  0.00     0.000 A 
HETATM   34  C22 UNL     1      -1.276  44.099  47.831  1.00  0.00     0.001 A 
HETATM   35  C23 UNL     1      -0.915  44.407  49.111  1.00  0.00     0.007 A 
ENDBRANCH  29  30
ENDBRANCH  28  29
ENDBRANCH  26  28
ENDBRANCH  23  24
ENDBRANCH  22  23
ENDBRANCH  19  22
ENDBRANCH   1  19
TORSDOF 14
ENDMDL
