MODEL 2
REMARK VINA RESULT: -8.352148786      2.402      4.402
REMARK  14 active torsions:
REMARK  status: ('A' for Active; 'I' for Inactive)
REMARK    1  A    between atoms: C1_2  and  C2_4 
REMARK    2  A    between atoms: C2_4  and  C3_5 
REMARK    3  A    between atoms: C3_5  and  C4_6 
REMARK    4  A    between atoms: C4_6  and  C5_7 
REMARK       I    between atoms: C5_7  and  N1_9 
REMARK    5  A    between atoms: N1_9  and  C6_11 
REMARK    6  A    between atoms: C6_11  and  C7_12 
REMARK    7  A    between atoms: C6_11  and  P1_19 
REMARK    8  A    between atoms: C7_12  and  C8_13 
REMARK    9  A    between atoms: P1_19  and  O6_22 
REMARK   10  A    between atoms: O6_22  and  C14_23 
REMARK   11  A    between atoms: C14_23  and  C15_24 
REMARK       I    between atoms: C15_24  and  N2_26 
REMARK   12  A    between atoms: N2_26  and  C16_28 
REMARK   13  A    between atoms: C16_28  and  C17_29 
REMARK   14  A    between atoms: C17_29  and  C18_30 
ROOT
HETATM    1  C6  UNL     1       3.332  45.511  57.484  1.00  0.00     0.209 C 
ENDROOT
BRANCH   1   2
HETATM    2  N1  UNL     1       4.481  44.578  57.605  1.00  0.00    -0.344 N 
HETATM    3  C5  UNL     1       5.799  45.090  57.736  1.00  0.00     0.218 C 
HETATM    4  O3  UNL     1       5.981  46.352  57.651  1.00  0.00    -0.274 OA
ATOM      5  H1  UNL     1       4.323  43.571  57.595  1.00  0.00     0.163 HD
BRANCH   3   6
HETATM    6  C4  UNL     1       6.973  44.227  57.982  1.00  0.00     0.103 C 
BRANCH   6   7
HETATM    7  C3  UNL     1       6.620  42.776  57.906  1.00  0.00     0.020 C 
BRANCH   7   8
HETATM    8  C2  UNL     1       7.325  42.128  56.733  1.00  0.00     0.113 C 
BRANCH   8   9
HETATM    9  C1  UNL     1       7.070  42.872  55.491  1.00  0.00     0.172 C 
HETATM   10  O1  UNL     1       5.887  42.959  54.998  1.00  0.00    -0.648 OA
HETATM   11  O2  UNL     1       8.071  43.539  54.762  1.00  0.00    -0.648 OA
ENDBRANCH   8   9
ENDBRANCH   7   8
ENDBRANCH   6   7
ENDBRANCH   3   6
ENDBRANCH   1   2
BRANCH   1  12
HETATM   12  C7  UNL     1       2.815  45.704  58.878  1.00  0.00     0.077 C 
BRANCH  12  13
HETATM   13  C8  UNL     1       2.572  47.058  59.328  1.00  0.00    -0.056 A 
HETATM   14  C9  UNL     1       1.462  47.761  58.829  1.00  0.00     0.007 A 
HETATM   15  C10 UNL     1       1.143  49.037  59.174  1.00  0.00     0.001 A 
HETATM   16  C11 UNL     1       1.941  49.719  60.088  1.00  0.00     0.000 A 
HETATM   17  C12 UNL     1       3.029  49.067  60.598  1.00  0.00     0.001 A 
HETATM   18  C13 UNL     1       3.346  47.742  60.221  1.00  0.00     0.007 A 
ENDBRANCH  12  13
ENDBRANCH   1  12
BRANCH   1  19
HETATM   19  P1  UNL     1       2.193  45.257  56.284  1.00  0.00     0.273 P 
HETATM   20  O4  UNL     1       1.907  46.134  54.960  1.00  0.00    -0.645 OA
HETATM   21  O5  UNL     1       1.012  43.955  56.638  1.00  0.00    -0.645 OA
BRANCH  19  22
HETATM   22  O6  UNL     1       2.838  44.130  55.465  1.00  0.00    -0.301 OA
BRANCH  22  23
HETATM   23  C14 UNL     1       2.181  43.015  55.063  1.00  0.00     0.281 C 
BRANCH  23  24
HETATM   24  C15 UNL     1       2.359  43.036  53.539  1.00  0.00     0.241 C 
HETATM   25  O7  UNL     1       3.046  42.149  52.994  1.00  0.00    -0.271 OA
HETATM   26  N2  UNL     1       1.737  44.037  52.803  1.00  0.00    -0.359 N 
ATOM     27  H2  UNL     1       1.267  44.789  53.307  1.00  0.00     0.162 HD
BRANCH  26  28
HETATM   28  C16 UNL     1       1.722  44.064  51.339  1.00  0.00     0.127 C 
BRANCH  28  29
HETATM   29  C17 UNL     1       0.836  45.140  50.854  1.00  0.00     0.058 C 
BRANCH  29  30
HETATM   30  C18 UNL     1       0.547  44.884  49.442  1.00  0.00    -0.057 A 
HETATM   31  C19 UNL     1       1.389  44.979  48.392  1.00  0.00     0.007 A 
HETATM   32  C20 UNL     1       0.967  44.661  47.107  1.00  0.00     0.001 A 
HETATM   33  C21 UNL     1      -0.337  44.236  46.876  1.00  0.00     0.000 A 
HETATM   34  C22 UNL     1      -1.178  44.150  47.982  1.00  0.00     0.001 A 
HETATM   35  C23 UNL     1      -0.792  44.453  49.256  1.00  0.00     0.007 A 
ENDBRANCH  29  30
ENDBRANCH  28  29
ENDBRANCH  26  28
ENDBRANCH  23  24
ENDBRANCH  22  23
ENDBRANCH  19  22
ENDBRANCH   1  19
TORSDOF 14
ENDMDL
