MODEL 20
REMARK VINA RESULT: -8.012956707      1.746      3.531
REMARK  14 active torsions:
REMARK  status: ('A' for Active; 'I' for Inactive)
REMARK    1  A    between atoms: C1_2  and  C2_4 
REMARK    2  A    between atoms: C2_4  and  C3_5 
REMARK    3  A    between atoms: C3_5  and  C4_6 
REMARK    4  A    between atoms: C4_6  and  C5_7 
REMARK       I    between atoms: C5_7  and  N1_9 
REMARK    5  A    between atoms: N1_9  and  C6_11 
REMARK    6  A    between atoms: C6_11  and  C7_12 
REMARK    7  A    between atoms: C6_11  and  P1_19 
REMARK    8  A    between atoms: C7_12  and  C8_13 
REMARK    9  A    between atoms: P1_19  and  O6_22 
REMARK   10  A    between atoms: O6_22  and  C14_23 
REMARK   11  A    between atoms: C14_23  and  C15_24 
REMARK       I    between atoms: C15_24  and  N2_26 
REMARK   12  A    between atoms: N2_26  and  C16_28 
REMARK   13  A    between atoms: C16_28  and  C17_29 
REMARK   14  A    between atoms: C17_29  and  C18_30 
ROOT
HETATM    1  C6  UNL     1       2.377  45.782  57.705  1.00  0.00     0.209 C 
ENDROOT
BRANCH   1   2
HETATM    2  N1  UNL     1       0.981  46.281  57.789  1.00  0.00    -0.344 N 
HETATM    3  C5  UNL     1      -0.031  45.464  58.361  1.00  0.00     0.218 C 
HETATM    4  O3  UNL     1       0.264  44.270  58.708  1.00  0.00    -0.274 OA
ATOM      5  H1  UNL     1       0.749  47.209  57.437  1.00  0.00     0.163 HD
BRANCH   3   6
HETATM    6  C4  UNL     1      -1.412  45.940  58.587  1.00  0.00     0.103 C 
BRANCH   6   7
HETATM    7  C3  UNL     1      -1.764  45.947  60.040  1.00  0.00     0.020 C 
BRANCH   7   8
HETATM    8  C2  UNL     1      -0.762  46.776  60.816  1.00  0.00     0.113 C 
BRANCH   8   9
HETATM    9  C1  UNL     1      -1.407  47.453  61.950  1.00  0.00     0.172 C 
HETATM   10  O1  UNL     1      -2.493  47.001  62.465  1.00  0.00    -0.648 OA
HETATM   11  O2  UNL     1      -0.899  48.617  62.555  1.00  0.00    -0.648 OA
ENDBRANCH   8   9
ENDBRANCH   7   8
ENDBRANCH   6   7
ENDBRANCH   3   6
ENDBRANCH   1   2
BRANCH   1  12
HETATM   12  C7  UNL     1       3.197  46.724  58.533  1.00  0.00     0.077 C 
BRANCH  12  13
HETATM   13  C8  UNL     1       2.538  47.887  59.088  1.00  0.00    -0.056 A 
HETATM   14  C9  UNL     1       2.851  48.297  60.396  1.00  0.00     0.007 A 
HETATM   15  C10 UNL     1       2.288  49.366  61.020  1.00  0.00     0.001 A 
HETATM   16  C11 UNL     1       1.343  50.133  60.347  1.00  0.00     0.000 A 
HETATM   17  C12 UNL     1       1.014  49.766  59.071  1.00  0.00     0.001 A 
HETATM   18  C13 UNL     1       1.607  48.648  58.443  1.00  0.00     0.007 A 
ENDBRANCH  12  13
ENDBRANCH   1  12
BRANCH   1  19
HETATM   19  P1  UNL     1       3.003  45.344  56.216  1.00  0.00     0.273 P 
HETATM   20  O4  UNL     1       4.291  44.430  55.890  1.00  0.00    -0.645 OA
HETATM   21  O5  UNL     1       2.252  46.177  54.816  1.00  0.00    -0.645 OA
BRANCH  19  22
HETATM   22  O6  UNL     1       2.036  44.235  55.777  1.00  0.00    -0.301 OA
BRANCH  22  23
HETATM   23  C14 UNL     1       2.406  42.946  55.573  1.00  0.00     0.281 C 
BRANCH  23  24
HETATM   24  C15 UNL     1       2.040  42.709  54.101  1.00  0.00     0.241 C 
HETATM   25  O7  UNL     1       1.677  41.572  53.740  1.00  0.00    -0.271 OA
HETATM   26  N2  UNL     1       2.111  43.773  53.210  1.00  0.00    -0.359 N 
ATOM     27  H2  UNL     1       2.505  44.655  53.538  1.00  0.00     0.162 HD
BRANCH  26  28
HETATM   28  C16 UNL     1       1.647  43.690  51.824  1.00  0.00     0.127 C 
BRANCH  28  29
HETATM   29  C17 UNL     1       1.421  45.041  51.276  1.00  0.00     0.058 C 
BRANCH  29  30
HETATM   30  C18 UNL     1       1.136  44.907  49.847  1.00  0.00    -0.057 A 
HETATM   31  C19 UNL     1       0.088  44.290  49.264  1.00  0.00     0.007 A 
HETATM   32  C20 UNL     1      -0.061  44.284  47.882  1.00  0.00     0.001 A 
HETATM   33  C21 UNL     1       0.874  44.917  47.068  1.00  0.00     0.000 A 
HETATM   34  C22 UNL     1       1.943  45.543  47.704  1.00  0.00     0.001 A 
HETATM   35  C23 UNL     1       2.113  45.567  49.058  1.00  0.00     0.007 A 
ENDBRANCH  29  30
ENDBRANCH  28  29
ENDBRANCH  26  28
ENDBRANCH  23  24
ENDBRANCH  22  23
ENDBRANCH  19  22
ENDBRANCH   1  19
TORSDOF 14
ENDMDL
