MODEL 8
REMARK VINA RESULT: -8.200212263      1.782      2.488
REMARK  14 active torsions:
REMARK  status: ('A' for Active; 'I' for Inactive)
REMARK    1  A    between atoms: C1_2  and  C2_4 
REMARK    2  A    between atoms: C2_4  and  C3_5 
REMARK    3  A    between atoms: C3_5  and  C4_6 
REMARK    4  A    between atoms: C4_6  and  C5_7 
REMARK       I    between atoms: C5_7  and  N1_9 
REMARK    5  A    between atoms: N1_9  and  C6_11 
REMARK    6  A    between atoms: C6_11  and  C7_12 
REMARK    7  A    between atoms: C6_11  and  P1_19 
REMARK    8  A    between atoms: C7_12  and  C8_13 
REMARK    9  A    between atoms: P1_19  and  O6_22 
REMARK   10  A    between atoms: O6_22  and  C14_23 
REMARK   11  A    between atoms: C14_23  and  C15_24 
REMARK       I    between atoms: C15_24  and  N2_26 
REMARK   12  A    between atoms: N2_26  and  C16_28 
REMARK   13  A    between atoms: C16_28  and  C17_29 
REMARK   14  A    between atoms: C17_29  and  C18_30 
ROOT
HETATM    1  C6  UNL     1       2.240  45.043  56.577  1.00  0.00     0.209 C 
ENDROOT
BRANCH   1   2
HETATM    2  N1  UNL     1       3.127  45.616  57.621  1.00  0.00    -0.344 N 
HETATM    3  C5  UNL     1       3.813  46.836  57.377  1.00  0.00     0.218 C 
HETATM    4  O3  UNL     1       3.726  47.371  56.220  1.00  0.00    -0.274 OA
ATOM      5  H1  UNL     1       3.244  45.134  58.512  1.00  0.00     0.163 HD
BRANCH   3   6
HETATM    6  C4  UNL     1       4.615  47.525  58.410  1.00  0.00     0.103 C 
BRANCH   6   7
HETATM    7  C3  UNL     1       6.080  47.312  58.207  1.00  0.00     0.020 C 
BRANCH   7   8
HETATM    8  C2  UNL     1       6.792  48.645  58.108  1.00  0.00     0.113 C 
BRANCH   8   9
HETATM    9  C1  UNL     1       7.440  48.799  56.798  1.00  0.00     0.172 C 
HETATM   10  O1  UNL     1       8.702  49.017  56.700  1.00  0.00    -0.648 OA
HETATM   11  O2  UNL     1       6.753  48.713  55.573  1.00  0.00    -0.648 OA
ENDBRANCH   8   9
ENDBRANCH   7   8
ENDBRANCH   6   7
ENDBRANCH   3   6
ENDBRANCH   1   2
BRANCH   1  12
HETATM   12  C7  UNL     1       0.844  45.193  57.103  1.00  0.00     0.077 C 
BRANCH  12  13
HETATM   13  C8  UNL     1       0.630  44.999  58.521  1.00  0.00    -0.056 A 
HETATM   14  C9  UNL     1       0.882  43.739  59.090  1.00  0.00     0.007 A 
HETATM   15  C10 UNL     1       0.708  43.441  60.405  1.00  0.00     0.001 A 
HETATM   16  C11 UNL     1       0.261  44.429  61.277  1.00  0.00     0.000 A 
HETATM   17  C12 UNL     1       0.007  45.669  60.761  1.00  0.00     0.001 A 
HETATM   18  C13 UNL     1       0.190  45.956  59.389  1.00  0.00     0.007 A 
ENDBRANCH  12  13
ENDBRANCH   1  12
BRANCH   1  19
HETATM   19  P1  UNL     1       2.633  43.571  55.885  1.00  0.00     0.273 P 
HETATM   20  O4  UNL     1       1.730  42.240  55.760  1.00  0.00    -0.645 OA
HETATM   21  O5  UNL     1       4.354  43.404  55.409  1.00  0.00    -0.645 OA
BRANCH  19  22
HETATM   22  O6  UNL     1       2.490  43.875  54.386  1.00  0.00    -0.301 OA
BRANCH  22  23
HETATM   23  C14 UNL     1       2.095  42.963  53.464  1.00  0.00     0.281 C 
BRANCH  23  24
HETATM   24  C15 UNL     1       2.070  43.775  52.161  1.00  0.00     0.241 C 
HETATM   25  O7  UNL     1       2.501  43.256  51.112  1.00  0.00    -0.271 OA
HETATM   26  N2  UNL     1       1.554  45.064  52.183  1.00  0.00    -0.359 N 
ATOM     27  H2  UNL     1       1.305  45.473  53.084  1.00  0.00     0.162 HD
BRANCH  26  28
HETATM   28  C16 UNL     1       1.351  45.866  50.975  1.00  0.00     0.127 C 
BRANCH  28  29
HETATM   29  C17 UNL     1       0.009  45.617  50.412  1.00  0.00     0.058 C 
BRANCH  29  30
HETATM   30  C18 UNL     1       0.179  44.946  49.123  1.00  0.00    -0.057 A 
HETATM   31  C19 UNL     1       1.248  44.985  48.300  1.00  0.00     0.007 A 
HETATM   32  C20 UNL     1       1.268  44.254  47.119  1.00  0.00     0.001 A 
HETATM   33  C21 UNL     1       0.181  43.464  46.758  1.00  0.00     0.000 A 
HETATM   34  C22 UNL     1      -0.904  43.448  47.630  1.00  0.00     0.001 A 
HETATM   35  C23 UNL     1      -0.952  44.153  48.798  1.00  0.00     0.007 A 
ENDBRANCH  29  30
ENDBRANCH  28  29
ENDBRANCH  26  28
ENDBRANCH  23  24
ENDBRANCH  22  23
ENDBRANCH  19  22
ENDBRANCH   1  19
TORSDOF 14
ENDMDL
