MODEL 10
REMARK VINA RESULT: -8.114417151      2.621      4.214
REMARK  14 active torsions:
REMARK  status: ('A' for Active; 'I' for Inactive)
REMARK    1  A    between atoms: C1_2  and  C2_4 
REMARK    2  A    between atoms: C2_4  and  C3_5 
REMARK    3  A    between atoms: C3_5  and  C4_6 
REMARK    4  A    between atoms: C4_6  and  C5_7 
REMARK       I    between atoms: C5_7  and  N1_9 
REMARK    5  A    between atoms: N1_9  and  C6_11 
REMARK    6  A    between atoms: C6_11  and  C7_12 
REMARK    7  A    between atoms: C6_11  and  P1_19 
REMARK    8  A    between atoms: C7_12  and  C8_13 
REMARK    9  A    between atoms: P1_19  and  O6_22 
REMARK   10  A    between atoms: O6_22  and  C14_23 
REMARK   11  A    between atoms: C14_23  and  C15_24 
REMARK       I    between atoms: C15_24  and  N2_26 
REMARK   12  A    between atoms: N2_26  and  C16_28 
REMARK   13  A    between atoms: C16_28  and  C17_29 
REMARK   14  A    between atoms: C17_29  and  C18_30 
ROOT
HETATM    1  C6  UNL     1       1.878  45.598  57.967  1.00  0.00     0.209 C 
ENDROOT
BRANCH   1   2
HETATM    2  N1  UNL     1       0.397  45.704  57.944  1.00  0.00    -0.344 N 
HETATM    3  C5  UNL     1      -0.331  45.729  59.164  1.00  0.00     0.218 C 
HETATM    4  O3  UNL     1       0.300  45.563  60.262  1.00  0.00    -0.274 OA
ATOM      5  H1  UNL     1      -0.097  45.758  57.054  1.00  0.00     0.163 HD
BRANCH   3   6
HETATM    6  C4  UNL     1      -1.791  45.954  59.221  1.00  0.00     0.103 C 
BRANCH   6   7
HETATM    7  C3  UNL     1      -2.328  45.752  60.601  1.00  0.00     0.020 C 
BRANCH   7   8
HETATM    8  C2  UNL     1      -3.643  46.485  60.762  1.00  0.00     0.113 C 
BRANCH   8   9
HETATM    9  C1  UNL     1      -4.733  45.547  61.068  1.00  0.00     0.172 C 
HETATM   10  O1  UNL     1      -4.514  44.461  61.717  1.00  0.00    -0.648 OA
HETATM   11  O2  UNL     1      -6.072  45.759  60.693  1.00  0.00    -0.648 OA
ENDBRANCH   8   9
ENDBRANCH   7   8
ENDBRANCH   6   7
ENDBRANCH   3   6
ENDBRANCH   1   2
BRANCH   1  12
HETATM   12  C7  UNL     1       2.389  46.972  57.654  1.00  0.00     0.077 C 
BRANCH  12  13
HETATM   13  C8  UNL     1       2.358  47.963  58.707  1.00  0.00    -0.056 A 
HETATM   14  C9  UNL     1       1.303  48.891  58.749  1.00  0.00     0.007 A 
HETATM   15  C10 UNL     1       1.177  49.868  59.685  1.00  0.00     0.001 A 
HETATM   16  C11 UNL     1       2.133  49.981  60.691  1.00  0.00     0.000 A 
HETATM   17  C12 UNL     1       3.174  49.094  60.685  1.00  0.00     0.001 A 
HETATM   18  C13 UNL     1       3.288  48.089  59.698  1.00  0.00     0.007 A 
ENDBRANCH  12  13
ENDBRANCH   1  12
BRANCH   1  19
HETATM   19  P1  UNL     1       2.620  44.318  57.184  1.00  0.00     0.273 P 
HETATM   20  O4  UNL     1       2.182  42.766  57.146  1.00  0.00    -0.645 OA
HETATM   21  O5  UNL     1       4.219  44.705  56.471  1.00  0.00    -0.645 OA
BRANCH  19  22
HETATM   22  O6  UNL     1       2.179  44.535  55.729  1.00  0.00    -0.301 OA
BRANCH  22  23
HETATM   23  C14 UNL     1       2.217  43.572  54.776  1.00  0.00     0.281 C 
BRANCH  23  24
HETATM   24  C15 UNL     1       1.998  44.361  53.477  1.00  0.00     0.241 C 
HETATM   25  O7  UNL     1       1.869  45.601  53.532  1.00  0.00    -0.271 OA
HETATM   26  N2  UNL     1       1.963  43.674  52.270  1.00  0.00    -0.359 N 
ATOM     27  H2  UNL     1       1.978  42.654  52.292  1.00  0.00     0.162 HD
BRANCH  26  28
HETATM   28  C16 UNL     1       1.906  44.341  50.969  1.00  0.00     0.127 C 
BRANCH  28  29
HETATM   29  C17 UNL     1       0.509  44.653  50.611  1.00  0.00     0.058 C 
BRANCH  29  30
HETATM   30  C18 UNL     1       0.347  44.417  49.176  1.00  0.00    -0.057 A 
HETATM   31  C19 UNL     1       1.311  44.278  48.243  1.00  0.00     0.007 A 
HETATM   32  C20 UNL     1       0.991  44.016  46.917  1.00  0.00     0.001 A 
HETATM   33  C21 UNL     1      -0.337  43.890  46.522  1.00  0.00     0.000 A 
HETATM   34  C22 UNL     1      -1.306  44.040  47.511  1.00  0.00     0.001 A 
HETATM   35  C23 UNL     1      -1.021  44.295  48.822  1.00  0.00     0.007 A 
ENDBRANCH  29  30
ENDBRANCH  28  29
ENDBRANCH  26  28
ENDBRANCH  23  24
ENDBRANCH  22  23
ENDBRANCH  19  22
ENDBRANCH   1  19
TORSDOF 14
ENDMDL
