MODEL 2
REMARK VINA RESULT: -5.145850412      0.762      1.232
REMARK  3 active torsions:
REMARK  status: ('A' for Active; 'I' for Inactive)
REMARK    1  A    between atoms: C1_2  and  C2_4 
REMARK    2  A    between atoms: C2_4  and  O3_5 
REMARK    3  A    between atoms: O3_5  and  P1_6 
ROOT
HETATM    1  O3  UNL     1      38.863  -3.621  -6.970  1.00  0.00    -0.272 OA
ENDROOT
BRANCH   1   2
HETATM    2  C2  UNL     1      37.948  -3.352  -6.002  1.00  0.00     0.295 C 
BRANCH   2   3
HETATM    3  C1  UNL     1      38.270  -2.012  -5.443  1.00  0.00     0.198 C 
HETATM    4  O1  UNL     1      37.497  -1.014  -5.585  1.00  0.00    -0.646 OA
HETATM    5  O2  UNL     1      39.436  -1.773  -4.732  1.00  0.00    -0.646 OA
ENDBRANCH   2   3
ENDBRANCH   1   2
BRANCH   1   6
HETATM    6  P1  UNL     1      38.037  -3.898  -8.392  1.00  0.00     0.422 P 
HETATM    7  O4  UNL     1      37.810  -5.348  -7.990  1.00  0.00    -0.617 OA
HETATM    8  O5  UNL     1      36.462  -3.554  -8.541  1.00  0.00    -0.617 OA
HETATM    9  O6  UNL     1      38.893  -4.351  -9.751  1.00  0.00    -0.617 OA
ENDBRANCH   1   6
TORSDOF 3
ENDMDL
