MODEL 5
REMARK VINA RESULT: -4.874033129      2.691      4.545
REMARK  3 active torsions:
REMARK  status: ('A' for Active; 'I' for Inactive)
REMARK    1  A    between atoms: C1_2  and  C2_4 
REMARK    2  A    between atoms: C2_4  and  O3_5 
REMARK    3  A    between atoms: O3_5  and  P1_6 
ROOT
HETATM    1  O3  UNL     1      38.615  -3.663  -9.111  1.00  0.00    -0.272 OA
ENDROOT
BRANCH   1   2
HETATM    2  C2  UNL     1      38.136  -4.647  -9.917  1.00  0.00     0.295 C 
BRANCH   2   3
HETATM    3  C1  UNL     1      37.451  -3.992 -11.062  1.00  0.00     0.198 C 
HETATM    4  O1  UNL     1      36.997  -2.808 -10.995  1.00  0.00    -0.646 OA
HETATM    5  O2  UNL     1      37.266  -4.638 -12.275  1.00  0.00    -0.646 OA
ENDBRANCH   2   3
ENDBRANCH   1   2
BRANCH   1   6
HETATM    6  P1  UNL     1      37.816  -3.762  -7.651  1.00  0.00     0.422 P 
HETATM    7  O4  UNL     1      37.836  -5.281  -7.731  1.00  0.00    -0.617 OA
HETATM    8  O5  UNL     1      38.609  -3.693  -6.241  1.00  0.00    -0.617 OA
HETATM    9  O6  UNL     1      36.148  -3.730  -7.636  1.00  0.00    -0.617 OA
ENDBRANCH   1   6
TORSDOF 3
ENDMDL
