MODEL 8
REMARK VINA RESULT: -4.777407203      0.701      1.612
REMARK  3 active torsions:
REMARK  status: ('A' for Active; 'I' for Inactive)
REMARK    1  A    between atoms: C1_2  and  C2_4 
REMARK    2  A    between atoms: C2_4  and  O3_5 
REMARK    3  A    between atoms: O3_5  and  P1_6 
ROOT
HETATM    1  O3  UNL     1      37.068  -2.926  -7.153  1.00  0.00    -0.272 OA
ENDROOT
BRANCH   1   2
HETATM    2  C2  UNL     1      37.836  -3.231  -6.073  1.00  0.00     0.295 C 
BRANCH   2   3
HETATM    3  C1  UNL     1      38.237  -1.949  -5.435  1.00  0.00     0.198 C 
HETATM    4  O1  UNL     1      37.518  -0.904  -5.498  1.00  0.00    -0.646 OA
HETATM    5  O2  UNL     1      39.425  -1.819  -4.731  1.00  0.00    -0.646 OA
ENDBRANCH   2   3
ENDBRANCH   1   2
BRANCH   1   6
HETATM    6  P1  UNL     1      37.525  -3.929  -8.404  1.00  0.00     0.422 P 
HETATM    7  O4  UNL     1      38.954  -3.416  -8.309  1.00  0.00    -0.617 OA
HETATM    8  O5  UNL     1      37.923  -5.478  -8.151  1.00  0.00    -0.617 OA
HETATM    9  O6  UNL     1      37.376  -3.385  -9.975  1.00  0.00    -0.617 OA
ENDBRANCH   1   6
TORSDOF 3
ENDMDL
