MODEL 1
REMARK VINA RESULT: -5.258404647      0.000      0.000
REMARK  3 active torsions:
REMARK  status: ('A' for Active; 'I' for Inactive)
REMARK    1  A    between atoms: C1_2  and  C2_4 
REMARK    2  A    between atoms: C2_4  and  O3_5 
REMARK    3  A    between atoms: O3_5  and  P1_6 
ROOT
HETATM    1  O3  UNL     1      37.231  -3.181  -7.262  1.00  0.00    -0.272 OA
ENDROOT
BRANCH   1   2
HETATM    2  C2  UNL     1      37.598  -3.370  -5.967  1.00  0.00     0.295 C 
BRANCH   2   3
HETATM    3  C1  UNL     1      38.157  -2.084  -5.470  1.00  0.00     0.198 C 
HETATM    4  O1  UNL     1      37.533  -0.984  -5.580  1.00  0.00    -0.646 OA
HETATM    5  O2  UNL     1      39.398  -2.012  -4.856  1.00  0.00    -0.646 OA
ENDBRANCH   2   3
ENDBRANCH   1   2
BRANCH   1   6
HETATM    6  P1  UNL     1      38.363  -3.932  -8.229  1.00  0.00     0.422 P 
HETATM    7  O4  UNL     1      37.807  -5.294  -7.841  1.00  0.00    -0.617 OA
HETATM    8  O5  UNL     1      38.122  -4.139  -9.816  1.00  0.00    -0.617 OA
HETATM    9  O6  UNL     1      39.860  -4.299  -7.589  1.00  0.00    -0.617 OA
ENDBRANCH   1   6
TORSDOF 3
ENDMDL
