MODEL 7
REMARK VINA RESULT: -4.859710097      0.681      1.803
REMARK  3 active torsions:
REMARK  status: ('A' for Active; 'I' for Inactive)
REMARK    1  A    between atoms: C1_2  and  C2_4 
REMARK    2  A    between atoms: C2_4  and  O3_5 
REMARK    3  A    between atoms: O3_5  and  P1_6 
ROOT
HETATM    1  O3  UNL     1      37.377  -3.347  -7.366  1.00  0.00    -0.272 OA
ENDROOT
BRANCH   1   2
HETATM    2  C2  UNL     1      37.797  -3.591  -6.096  1.00  0.00     0.295 C 
BRANCH   2   3
HETATM    3  C1  UNL     1      38.236  -2.295  -5.514  1.00  0.00     0.198 C 
HETATM    4  O1  UNL     1      39.324  -2.174  -4.871  1.00  0.00    -0.646 OA
HETATM    5  O2  UNL     1      37.481  -1.139  -5.640  1.00  0.00    -0.646 OA
ENDBRANCH   2   3
ENDBRANCH   1   2
BRANCH   1   6
HETATM    6  P1  UNL     1      38.392  -4.163  -8.406  1.00  0.00     0.422 P 
HETATM    7  O4  UNL     1      37.783  -3.431  -9.593  1.00  0.00    -0.617 OA
HETATM    8  O5  UNL     1      39.901  -3.652  -8.697  1.00  0.00    -0.617 OA
HETATM    9  O6  UNL     1      37.917  -5.646  -9.007  1.00  0.00    -0.617 OA
ENDBRANCH   1   6
TORSDOF 3
ENDMDL
