MODEL 3
REMARK VINA RESULT: -8.265912767      2.213      3.457
REMARK  7 active torsions:
REMARK  status: ('A' for Active; 'I' for Inactive)
REMARK    1  A    between atoms: C2_2  and  C4_4 
REMARK    2  A    between atoms: C4_4  and  C5_5 
REMARK    3  A    between atoms: C5_5  and  C6_6 
REMARK    4  A    between atoms: C5_5  and  C8_13 
REMARK    5  A    between atoms: C6_6  and  C7_7 
REMARK       I    between atoms: C7_7  and  N1_9 
REMARK    6  A    between atoms: N1_9  and  O2_11 
REMARK       I    between atoms: C8_13  and  N2_15 
REMARK    7  A    between atoms: N2_15  and  C9_17 
ROOT
HETATM    1  C9  UNL     1      48.833 -41.121  48.911  1.00  0.00     0.180 C 
HETATM    2  C10 UNL     1      48.824 -42.007  50.130  1.00  0.00     0.075 C 
HETATM    3  C11 UNL     1      49.219 -43.432  49.865  1.00  0.00    -0.028 A 
HETATM    4  C12 UNL     1      50.439 -43.961  49.545  1.00  0.00     0.099 A 
HETATM    5  N3  UNL     1      50.273 -45.285  49.400  1.00  0.00    -0.356 N 
HETATM    6  C13 UNL     1      48.952 -45.636  49.620  1.00  0.00     0.045 A 
HETATM    7  C14 UNL     1      48.268 -46.858  49.590  1.00  0.00     0.030 A 
HETATM    8  C15 UNL     1      46.920 -46.886  49.858  1.00  0.00     0.002 A 
HETATM    9  C16 UNL     1      46.258 -45.737  50.149  1.00  0.00     0.001 A 
HETATM   10  C17 UNL     1      46.894 -44.505  50.190  1.00  0.00     0.014 A 
HETATM   11  C18 UNL     1      48.270 -44.484  49.916  1.00  0.00    -0.002 A 
HETATM   12  C19 UNL     1      51.268 -46.313  49.057  1.00  0.00     0.128 C 
HETATM   13  C20 UNL     1      51.904 -46.233  47.727  1.00  0.00     0.020 C 
HETATM   14  C21 UNL     1      50.996 -46.044  46.565  1.00  0.00     0.002 C 
HETATM   15  C22 UNL     1      51.082 -44.587  46.089  1.00  0.00     0.002 C 
HETATM   16  C23 UNL     1      49.731 -44.045  45.738  1.00  0.00     0.020 C 
HETATM   17  C24 UNL     1      49.585 -42.670  46.377  1.00  0.00     0.122 C 
HETATM   18  N4  UNL     1      48.260 -42.458  46.881  1.00  0.00    -0.359 N 
ATOM     19  H4  UNL     1      47.514 -42.934  46.372  1.00  0.00     0.162 HD
HETATM   20  C25 UNL     1      47.846 -41.686  47.976  1.00  0.00     0.240 C 
HETATM   21  O4  UNL     1      46.581 -41.472  48.161  1.00  0.00    -0.271 OA
ENDROOT
BRANCH   1  22
HETATM   22  N2  UNL     1      48.610 -39.740  49.216  1.00  0.00    -0.347 N 
HETATM   23  C8  UNL     1      49.684 -38.833  49.582  1.00  0.00     0.223 C 
HETATM   24  O3  UNL     1      50.806 -39.383  49.599  1.00  0.00    -0.273 OA
ATOM     25  H2  UNL     1      47.657 -39.377  49.174  1.00  0.00     0.163 HD
BRANCH  23  26
HETATM   26  C5  UNL     1      49.388 -37.422  49.888  1.00  0.00     0.087 C 
BRANCH  26  27
HETATM   27  C4  UNL     1      48.870 -37.180  51.277  1.00  0.00     0.018 C 
BRANCH  27  28
HETATM   28  C2  UNL     1      48.479 -35.788  51.605  1.00  0.00    -0.022 C 
HETATM   29  C1  UNL     1      47.047 -35.721  52.083  1.00  0.00     0.009 C 
HETATM   30  C3  UNL     1      49.322 -35.209  52.741  1.00  0.00     0.009 C 
ENDBRANCH  27  28
ENDBRANCH  26  27
BRANCH  26  31
HETATM   31  C6  UNL     1      48.593 -36.713  48.842  1.00  0.00     0.119 C 
BRANCH  31  32
HETATM   32  C7  UNL     1      49.117 -36.754  47.482  1.00  0.00     0.241 C 
HETATM   33  O1  UNL     1      48.744 -37.641  46.684  1.00  0.00    -0.271 OA
HETATM   34  N1  UNL     1      50.070 -35.796  46.993  1.00  0.00    -0.237 N 
ATOM     35  H1  UNL     1      50.408 -35.053  47.605  1.00  0.00     0.197 HD
BRANCH  34  36
HETATM   36  O2  UNL     1      50.508 -35.882  45.743  1.00  0.00    -0.287 OA
ATOM     37  H2  UNL     1      51.362 -35.531  45.518  1.00  0.00     0.244 HD
ENDBRANCH  34  36
ENDBRANCH  31  32
ENDBRANCH  26  31
ENDBRANCH  23  26
ENDBRANCH   1  22
TORSDOF 7
ENDMDL
