MODEL 2
REMARK VINA RESULT: -8.289397432      1.780      3.274
REMARK  7 active torsions:
REMARK  status: ('A' for Active; 'I' for Inactive)
REMARK    1  A    between atoms: C2_2  and  C4_4 
REMARK    2  A    between atoms: C4_4  and  C5_5 
REMARK    3  A    between atoms: C5_5  and  C6_6 
REMARK    4  A    between atoms: C5_5  and  C8_13 
REMARK    5  A    between atoms: C6_6  and  C7_7 
REMARK       I    between atoms: C7_7  and  N1_9 
REMARK    6  A    between atoms: N1_9  and  O2_11 
REMARK       I    between atoms: C8_13  and  N2_15 
REMARK    7  A    between atoms: N2_15  and  C9_17 
ROOT
HETATM    1  C9  UNL     1      47.922 -42.663  49.549  1.00  0.00     0.180 C 
HETATM    2  C10 UNL     1      47.706 -43.430  48.270  1.00  0.00     0.075 C 
HETATM    3  C11 UNL     1      47.235 -44.843  48.466  1.00  0.00    -0.028 A 
HETATM    4  C12 UNL     1      46.027 -45.315  48.900  1.00  0.00     0.099 A 
HETATM    5  N3  UNL     1      46.104 -46.655  48.911  1.00  0.00    -0.356 N 
HETATM    6  C13 UNL     1      47.355 -47.074  48.490  1.00  0.00     0.045 A 
HETATM    7  C14 UNL     1      47.937 -48.337  48.328  1.00  0.00     0.030 A 
HETATM    8  C15 UNL     1      49.234 -48.433  47.883  1.00  0.00     0.002 A 
HETATM    9  C16 UNL     1      49.944 -47.310  47.604  1.00  0.00     0.001 A 
HETATM   10  C17 UNL     1      49.408 -46.039  47.749  1.00  0.00     0.014 A 
HETATM   11  C18 UNL     1      48.083 -45.949  48.203  1.00  0.00    -0.002 A 
HETATM   12  C19 UNL     1      45.081 -47.640  49.297  1.00  0.00     0.128 C 
HETATM   13  C20 UNL     1      44.626 -47.640  50.702  1.00  0.00     0.020 C 
HETATM   14  C21 UNL     1      45.685 -47.621  51.745  1.00  0.00     0.002 C 
HETATM   15  C22 UNL     1      45.776 -46.212  52.347  1.00  0.00     0.002 C 
HETATM   16  C23 UNL     1      47.199 -45.798  52.560  1.00  0.00     0.020 C 
HETATM   17  C24 UNL     1      47.373 -44.384  52.023  1.00  0.00     0.122 C 
HETATM   18  N4  UNL     1      48.637 -44.217  51.368  1.00  0.00    -0.359 N 
ATOM     19  H4  UNL     1      49.400 -44.788  51.732  1.00  0.00     0.162 HD
HETATM   20  C25 UNL     1      48.970 -43.378  50.295  1.00  0.00     0.240 C 
HETATM   21  O4  UNL     1      50.215 -43.234  49.963  1.00  0.00    -0.271 OA
ENDROOT
BRANCH   1  22
HETATM   22  N2  UNL     1      48.214 -41.278  49.332  1.00  0.00    -0.347 N 
HETATM   23  C8  UNL     1      48.116 -40.280  50.384  1.00  0.00     0.223 C 
HETATM   24  O3  UNL     1      47.756 -40.759  51.481  1.00  0.00    -0.273 OA
ATOM     25  H2  UNL     1      48.503 -40.978  48.401  1.00  0.00     0.163 HD
BRANCH  23  26
HETATM   26  C5  UNL     1      48.427 -38.869  50.095  1.00  0.00     0.087 C 
BRANCH  26  27
HETATM   27  C4  UNL     1      49.466 -38.663  49.030  1.00  0.00     0.018 C 
BRANCH  27  28
HETATM   28  C2  UNL     1      49.027 -37.954  47.804  1.00  0.00    -0.022 C 
HETATM   29  C1  UNL     1      49.377 -36.486  47.866  1.00  0.00     0.009 C 
HETATM   30  C3  UNL     1      49.720 -38.493  46.553  1.00  0.00     0.009 C 
ENDBRANCH  27  28
ENDBRANCH  26  27
BRANCH  26  31
HETATM   31  C6  UNL     1      48.662 -38.025  51.304  1.00  0.00     0.119 C 
BRANCH  31  32
HETATM   32  C7  UNL     1      47.605 -37.088  51.664  1.00  0.00     0.241 C 
HETATM   33  O1  UNL     1      47.690 -36.403  52.706  1.00  0.00    -0.271 OA
HETATM   34  N1  UNL     1      46.431 -36.902  50.856  1.00  0.00    -0.237 N 
ATOM     35  H1  UNL     1      46.312 -37.438  49.996  1.00  0.00     0.197 HD
BRANCH  34  36
HETATM   36  O2  UNL     1      45.503 -36.031  51.233  1.00  0.00    -0.287 OA
ATOM     37  H2  UNL     1      44.723 -35.915  50.704  1.00  0.00     0.244 HD
ENDBRANCH  34  36
ENDBRANCH  31  32
ENDBRANCH  26  31
ENDBRANCH  23  26
ENDBRANCH   1  22
TORSDOF 7
ENDMDL
