MODEL 1
REMARK VINA RESULT: -8.313907192      0.000      0.000
REMARK  7 active torsions:
REMARK  status: ('A' for Active; 'I' for Inactive)
REMARK    1  A    between atoms: C2_2  and  C4_4 
REMARK    2  A    between atoms: C4_4  and  C5_5 
REMARK    3  A    between atoms: C5_5  and  C6_6 
REMARK    4  A    between atoms: C5_5  and  C8_13 
REMARK    5  A    between atoms: C6_6  and  C7_7 
REMARK       I    between atoms: C7_7  and  N1_9 
REMARK    6  A    between atoms: N1_9  and  O2_11 
REMARK       I    between atoms: C8_13  and  N2_15 
REMARK    7  A    between atoms: N2_15  and  C9_17 
ROOT
HETATM    1  C9  UNL     1      48.310 -42.396  50.274  1.00  0.00     0.180 C 
HETATM    2  C10 UNL     1      47.406 -43.182  51.190  1.00  0.00     0.075 C 
HETATM    3  C11 UNL     1      47.684 -44.657  51.220  1.00  0.00    -0.028 A 
HETATM    4  C12 UNL     1      48.742 -45.342  51.750  1.00  0.00     0.099 A 
HETATM    5  N3  UNL     1      48.530 -46.647  51.513  1.00  0.00    -0.356 N 
HETATM    6  C13 UNL     1      47.342 -46.830  50.827  1.00  0.00     0.045 A 
HETATM    7  C14 UNL     1      46.679 -47.966  50.347  1.00  0.00     0.030 A 
HETATM    8  C15 UNL     1      45.482 -47.823  49.685  1.00  0.00     0.002 A 
HETATM    9  C16 UNL     1      44.949 -46.588  49.499  1.00  0.00     0.001 A 
HETATM   10  C17 UNL     1      45.570 -45.436  49.958  1.00  0.00     0.014 A 
HETATM   11  C18 UNL     1      46.791 -45.590  50.633  1.00  0.00    -0.002 A 
HETATM   12  C19 UNL     1      49.366 -47.803  51.874  1.00  0.00     0.128 C 
HETATM   13  C20 UNL     1      50.708 -47.895  51.265  1.00  0.00     0.020 C 
HETATM   14  C21 UNL     1      50.787 -47.692  49.795  1.00  0.00     0.002 C 
HETATM   15  C22 UNL     1      51.351 -46.294  49.507  1.00  0.00     0.002 C 
HETATM   16  C23 UNL     1      50.624 -45.632  48.378  1.00  0.00     0.020 C 
HETATM   17  C24 UNL     1      50.290 -44.206  48.793  1.00  0.00     0.122 C 
HETATM   18  N4  UNL     1      48.992 -43.808  48.331  1.00  0.00    -0.359 N 
ATOM     19  H4  UNL     1      48.688 -44.234  47.455  1.00  0.00     0.162 HD
HETATM   20  C25 UNL     1      48.083 -42.915  48.916  1.00  0.00     0.240 C 
HETATM   21  O4  UNL     1      47.035 -42.547  48.247  1.00  0.00    -0.271 OA
ENDROOT
BRANCH   1  22
HETATM   22  N2  UNL     1      48.132 -40.980  50.385  1.00  0.00    -0.347 N 
HETATM   23  C8  UNL     1      48.973 -40.024  49.686  1.00  0.00     0.223 C 
HETATM   24  O3  UNL     1      49.854 -40.569  48.986  1.00  0.00    -0.273 OA
ATOM     25  H2  UNL     1      47.382 -40.626  50.980  1.00  0.00     0.163 HD
BRANCH  23  26
HETATM   26  C5  UNL     1      48.740 -38.579  49.845  1.00  0.00     0.087 C 
BRANCH  26  27
HETATM   27  C4  UNL     1      49.593 -37.707  48.968  1.00  0.00     0.018 C 
BRANCH  27  28
HETATM   28  C2  UNL     1      48.912 -37.040  47.833  1.00  0.00    -0.022 C 
HETATM   29  C1  UNL     1      49.636 -35.778  47.426  1.00  0.00     0.009 C 
HETATM   30  C3  UNL     1      48.884 -37.922  46.585  1.00  0.00     0.009 C 
ENDBRANCH  27  28
ENDBRANCH  26  27
BRANCH  26  31
HETATM   31  C6  UNL     1      48.697 -38.109  51.262  1.00  0.00     0.119 C 
BRANCH  31  32
HETATM   32  C7  UNL     1      47.660 -37.141  51.599  1.00  0.00     0.241 C 
HETATM   33  O1  UNL     1      47.795 -36.382  52.584  1.00  0.00    -0.271 OA
HETATM   34  N1  UNL     1      46.452 -37.007  50.833  1.00  0.00    -0.237 N 
ATOM     35  H1  UNL     1      46.292 -37.603  50.021  1.00  0.00     0.197 HD
BRANCH  34  36
HETATM   36  O2  UNL     1      45.544 -36.104  51.187  1.00  0.00    -0.287 OA
ATOM     37  H2  UNL     1      44.706 -36.079  50.741  1.00  0.00     0.244 HD
ENDBRANCH  34  36
ENDBRANCH  31  32
ENDBRANCH  26  31
ENDBRANCH  23  26
ENDBRANCH   1  22
TORSDOF 7
ENDMDL
