MODEL 2
REMARK VINA RESULT: -7.495705486      1.322      2.912
REMARK  7 active torsions:
REMARK  status: ('A' for Active; 'I' for Inactive)
REMARK    1  A    between atoms: C2_2  and  C4_4 
REMARK    2  A    between atoms: C5_5  and  C6_6 
REMARK    3  A    between atoms: C5_5  and  C8_15 
REMARK    4  A    between atoms: C6_6  and  S1_7 
REMARK    5  A    between atoms: S1_7  and  N1_9 
REMARK    6  A    between atoms: S1_7  and  N2_12 
REMARK       I    between atoms: C8_15  and  N3_17 
REMARK    7  A    between atoms: N3_17  and  C9_19 
ROOT
HETATM    1  C9  UNL     1      49.054 -41.247  48.798  1.00  0.00     0.084 C 
HETATM    2  C10 UNL     1      49.123 -42.087  50.048  1.00  0.00     0.104 C 
HETATM    3  C11 UNL     1      49.435 -43.529  49.804  1.00  0.00    -0.024 A 
HETATM    4  C12 UNL     1      50.466 -44.121  49.110  1.00  0.00     0.099 A 
HETATM    5  N4  UNL     1      50.248 -45.438  49.149  1.00  0.00    -0.356 N 
HETATM    6  C13 UNL     1      49.101 -45.733  49.856  1.00  0.00     0.045 A 
HETATM    7  C14 UNL     1      48.475 -46.952  50.163  1.00  0.00     0.030 A 
HETATM    8  C15 UNL     1      47.312 -46.912  50.905  1.00  0.00     0.002 A 
HETATM    9  C16 UNL     1      46.772 -45.727  51.338  1.00  0.00     0.001 A 
HETATM   10  C17 UNL     1      47.387 -44.522  51.036  1.00  0.00     0.014 A 
HETATM   11  C18 UNL     1      48.572 -44.548  50.280  1.00  0.00    -0.001 A 
HETATM   12  C19 UNL     1      51.038 -46.518  48.514  1.00  0.00     0.128 C 
HETATM   13  C20 UNL     1      50.607 -46.696  47.051  1.00  0.00     0.020 C 
HETATM   14  C21 UNL     1      50.954 -45.487  46.225  1.00  0.00     0.002 C 
HETATM   15  C22 UNL     1      49.725 -44.671  45.845  1.00  0.00     0.002 C 
HETATM   16  C23 UNL     1      50.044 -43.453  45.066  1.00  0.00     0.020 C 
HETATM   17  C24 UNL     1      49.923 -42.144  45.758  1.00  0.00     0.123 C 
HETATM   18  N5  UNL     1      48.616 -41.884  46.336  1.00  0.00    -0.356 N 
ATOM     19  H5  UNL     1      47.848 -41.647  45.709  1.00  0.00     0.162 HD
HETATM   20  C25 UNL     1      48.359 -41.941  47.704  1.00  0.00     0.264 C 
HETATM   21  O2  UNL     1      47.389 -42.696  48.077  1.00  0.00    -0.266 OA
ENDROOT
BRANCH   1  22
HETATM   22  N3  UNL     1      48.783 -39.869  48.972  1.00  0.00    -0.322 N 
HETATM   23  C8  UNL     1      49.754 -38.877  49.281  1.00  0.00     0.252 C 
HETATM   24  O1  UNL     1      50.919 -39.296  49.393  1.00  0.00    -0.268 OA
ATOM     25  H3  UNL     1      47.816 -39.563  48.867  1.00  0.00     0.169 HD
BRANCH  23  26
HETATM   26  C5  UNL     1      49.462 -37.428  49.473  1.00  0.00     0.017 C 
HETATM   27  C4  UNL     1      49.462 -36.921  50.830  1.00  0.00    -0.009 C 
BRANCH  27  28
HETATM   28  C2  UNL     1      48.367 -36.961  51.781  1.00  0.00     0.001 C 
HETATM   29  C1  UNL     1      47.097 -36.245  51.374  1.00  0.00     0.013 C 
HETATM   30  C3  UNL     1      48.619 -36.592  53.215  1.00  0.00     0.013 C 
ENDBRANCH  27  28
BRANCH  26  31
HETATM   31  C6  UNL     1      48.518 -36.911  48.442  1.00  0.00     0.137 C 
BRANCH  31  32
HETATM   32  S1  UNL     1      49.134 -36.874  46.832  1.00  0.00    -0.113 SA
HETATM   33  C7  UNL     1      49.063 -35.412  45.911  1.00  0.00     0.111 C 
BRANCH  32  34
HETATM   34  N1  UNL     1      48.334 -37.967  45.994  1.00  0.00    -0.377 N 
ATOM     35  H12 UNL     1      48.614 -38.939  45.867  1.00  0.00     0.164 HD
ATOM     36  H11 UNL     1      47.502 -37.512  45.618  1.00  0.00     0.164 HD
ENDBRANCH  32  34
BRANCH  32  37
HETATM   37  N2  UNL     1      50.607 -37.461  46.870  1.00  0.00    -0.377 N 
ATOM     38  H22 UNL     1      51.204 -37.510  47.695  1.00  0.00     0.164 HD
ATOM     39  H21 UNL     1      50.837 -37.775  45.927  1.00  0.00     0.164 HD
ENDBRANCH  32  37
ENDBRANCH  31  32
ENDBRANCH  26  31
ENDBRANCH  23  26
ENDBRANCH   1  22
TORSDOF 7
ENDMDL
