MODEL 1
REMARK VINA RESULT: -7.502259125      0.000      0.000
REMARK  7 active torsions:
REMARK  status: ('A' for Active; 'I' for Inactive)
REMARK    1  A    between atoms: C2_2  and  C4_4 
REMARK    2  A    between atoms: C5_5  and  C6_6 
REMARK    3  A    between atoms: C5_5  and  C8_15 
REMARK    4  A    between atoms: C6_6  and  S1_7 
REMARK    5  A    between atoms: S1_7  and  N1_9 
REMARK    6  A    between atoms: S1_7  and  N2_12 
REMARK       I    between atoms: C8_15  and  N3_17 
REMARK    7  A    between atoms: N3_17  and  C9_19 
ROOT
HETATM    1  C9  UNL     1      48.884 -41.256  48.396  1.00  0.00     0.084 C 
HETATM    2  C10 UNL     1      49.041 -41.951  49.724  1.00  0.00     0.104 C 
HETATM    3  C11 UNL     1      49.471 -43.380  49.624  1.00  0.00    -0.024 A 
HETATM    4  C12 UNL     1      50.539 -43.954  48.973  1.00  0.00     0.099 A 
HETATM    5  N4  UNL     1      50.434 -45.273  49.153  1.00  0.00    -0.356 N 
HETATM    6  C13 UNL     1      49.326 -45.587  49.912  1.00  0.00     0.045 A 
HETATM    7  C14 UNL     1      48.811 -46.814  50.357  1.00  0.00     0.030 A 
HETATM    8  C15 UNL     1      47.658 -46.793  51.117  1.00  0.00     0.002 A 
HETATM    9  C16 UNL     1      47.025 -45.618  51.437  1.00  0.00     0.001 A 
HETATM   10  C17 UNL     1      47.532 -44.405  50.998  1.00  0.00     0.014 A 
HETATM   11  C18 UNL     1      48.704 -44.411  50.223  1.00  0.00    -0.001 A 
HETATM   12  C19 UNL     1      51.304 -46.345  48.616  1.00  0.00     0.128 C 
HETATM   13  C20 UNL     1      50.870 -46.711  47.189  1.00  0.00     0.020 C 
HETATM   14  C21 UNL     1      51.103 -45.571  46.234  1.00  0.00     0.002 C 
HETATM   15  C22 UNL     1      49.804 -44.904  45.799  1.00  0.00     0.002 C 
HETATM   16  C23 UNL     1      50.007 -43.752  44.892  1.00  0.00     0.020 C 
HETATM   17  C24 UNL     1      49.786 -42.393  45.446  1.00  0.00     0.123 C 
HETATM   18  N5  UNL     1      48.469 -42.182  46.023  1.00  0.00    -0.356 N 
ATOM     19  H5  UNL     1      47.675 -42.078  45.392  1.00  0.00     0.162 HD
HETATM   20  C25 UNL     1      48.235 -42.117  47.395  1.00  0.00     0.264 C 
HETATM   21  O2  UNL     1      47.338 -42.907  47.866  1.00  0.00    -0.266 OA
ENDROOT
BRANCH   1  22
HETATM   22  N3  UNL     1      48.499 -39.894  48.432  1.00  0.00    -0.322 N 
HETATM   23  C8  UNL     1      49.374 -38.792  48.231  1.00  0.00     0.252 C 
HETATM   24  O1  UNL     1      50.559 -39.093  48.005  1.00  0.00    -0.268 OA
ATOM     25  H3  UNL     1      47.518 -39.688  48.616  1.00  0.00     0.169 HD
BRANCH  23  26
HETATM   26  C5  UNL     1      48.966 -37.359  48.280  1.00  0.00     0.017 C 
HETATM   27  C4  UNL     1      48.861 -36.652  47.021  1.00  0.00    -0.009 C 
BRANCH  27  28
HETATM   28  C2  UNL     1      49.933 -36.011  46.282  1.00  0.00     0.001 C 
HETATM   29  C1  UNL     1      50.079 -34.517  46.471  1.00  0.00     0.013 C 
HETATM   30  C3  UNL     1      50.071 -36.267  44.809  1.00  0.00     0.013 C 
ENDBRANCH  27  28
BRANCH  26  31
HETATM   31  C6  UNL     1      49.449 -36.686  49.520  1.00  0.00     0.137 C 
BRANCH  31  32
HETATM   32  S1  UNL     1      48.387 -36.787  50.874  1.00  0.00    -0.113 SA
HETATM   33  C7  UNL     1      48.391 -35.541  52.073  1.00  0.00     0.111 C 
BRANCH  32  34
HETATM   34  N1  UNL     1      48.723 -38.142  51.640  1.00  0.00    -0.377 N 
ATOM     35  H12 UNL     1      49.281 -38.911  51.270  1.00  0.00     0.164 HD
ATOM     36  H11 UNL     1      48.279 -38.090  52.557  1.00  0.00     0.164 HD
ENDBRANCH  32  34
BRANCH  32  37
HETATM   37  N2  UNL     1      46.925 -37.047  50.317  1.00  0.00    -0.377 N 
ATOM     38  H22 UNL     1      46.314 -36.341  49.906  1.00  0.00     0.164 HD
ATOM     39  H21 UNL     1      46.717 -38.038  50.445  1.00  0.00     0.164 HD
ENDBRANCH  32  37
ENDBRANCH  31  32
ENDBRANCH  26  31
ENDBRANCH  23  26
ENDBRANCH   1  22
TORSDOF 7
ENDMDL
