MODEL 3
REMARK VINA RESULT: -7.450704677      1.944      2.946
REMARK  7 active torsions:
REMARK  status: ('A' for Active; 'I' for Inactive)
REMARK    1  A    between atoms: C2_2  and  C4_4 
REMARK    2  A    between atoms: C5_5  and  C6_6 
REMARK    3  A    between atoms: C5_5  and  C8_15 
REMARK    4  A    between atoms: C6_6  and  S1_7 
REMARK    5  A    between atoms: S1_7  and  N1_9 
REMARK    6  A    between atoms: S1_7  and  N2_12 
REMARK       I    between atoms: C8_15  and  N3_17 
REMARK    7  A    between atoms: N3_17  and  C9_19 
ROOT
HETATM    1  C9  UNL     1      48.450 -43.216  49.118  1.00  0.00     0.084 C 
HETATM    2  C10 UNL     1      47.585 -43.678  50.263  1.00  0.00     0.104 C 
HETATM    3  C11 UNL     1      47.875 -45.069  50.731  1.00  0.00    -0.024 A 
HETATM    4  C12 UNL     1      49.054 -45.658  51.124  1.00  0.00     0.099 A 
HETATM    5  N4  UNL     1      48.775 -46.936  51.392  1.00  0.00    -0.356 N 
HETATM    6  C13 UNL     1      47.437 -47.206  51.192  1.00  0.00     0.045 A 
HETATM    7  C14 UNL     1      46.685 -48.382  51.341  1.00  0.00     0.030 A 
HETATM    8  C15 UNL     1      45.336 -48.327  51.055  1.00  0.00     0.002 A 
HETATM    9  C16 UNL     1      44.733 -47.166  50.638  1.00  0.00     0.001 A 
HETATM   10  C17 UNL     1      45.473 -46.004  50.491  1.00  0.00     0.014 A 
HETATM   11  C18 UNL     1      46.848 -46.046  50.777  1.00  0.00    -0.001 A 
HETATM   12  C19 UNL     1      49.705 -48.011  51.807  1.00  0.00     0.128 C 
HETATM   13  C20 UNL     1      50.379 -48.630  50.574  1.00  0.00     0.020 C 
HETATM   14  C21 UNL     1      51.283 -47.642  49.888  1.00  0.00     0.002 C 
HETATM   15  C22 UNL     1      50.709 -47.151  48.565  1.00  0.00     0.002 C 
HETATM   16  C23 UNL     1      51.560 -46.146  47.890  1.00  0.00     0.020 C 
HETATM   17  C24 UNL     1      51.095 -44.736  47.894  1.00  0.00     0.123 C 
HETATM   18  N5  UNL     1      49.769 -44.536  47.335  1.00  0.00    -0.356 N 
ATOM     19  H5  UNL     1      49.657 -44.591  46.323  1.00  0.00     0.162 HD
HETATM   20  C25 UNL     1      48.643 -44.271  48.111  1.00  0.00     0.264 C 
HETATM   21  O2  UNL     1      47.629 -45.040  47.938  1.00  0.00    -0.266 OA
ENDROOT
BRANCH   1  22
HETATM   22  N3  UNL     1      48.233 -41.898  48.649  1.00  0.00    -0.322 N 
HETATM   23  C8  UNL     1      49.257 -40.982  48.284  1.00  0.00     0.252 C 
HETATM   24  O1  UNL     1      50.417 -41.414  48.396  1.00  0.00    -0.268 OA
ATOM     25  H3  UNL     1      47.268 -41.582  48.566  1.00  0.00     0.169 HD
BRANCH  23  26
HETATM   26  C5  UNL     1      49.024 -39.591  47.800  1.00  0.00     0.017 C 
HETATM   27  C4  UNL     1      48.900 -39.395  46.371  1.00  0.00    -0.009 C 
BRANCH  27  28
HETATM   28  C2  UNL     1      49.975 -39.229  45.411  1.00  0.00     0.001 C 
HETATM   29  C1  UNL     1      49.865 -38.045  44.475  1.00  0.00     0.013 C 
HETATM   30  C3  UNL     1      50.399 -40.397  44.566  1.00  0.00     0.013 C 
ENDBRANCH  27  28
BRANCH  26  31
HETATM   31  C6  UNL     1      49.683 -38.581  48.677  1.00  0.00     0.137 C 
BRANCH  31  32
HETATM   32  S1  UNL     1      49.111 -38.534  50.302  1.00  0.00    -0.113 SA
HETATM   33  C7  UNL     1      49.415 -37.145  51.288  1.00  0.00     0.111 C 
BRANCH  32  34
HETATM   34  N1  UNL     1      49.757 -39.772  51.068  1.00  0.00    -0.377 N 
ATOM     35  H12 UNL     1      50.672 -39.779  51.520  1.00  0.00     0.164 HD
ATOM     36  H11 UNL     1      49.089 -40.542  51.018  1.00  0.00     0.164 HD
ENDBRANCH  32  34
BRANCH  32  37
HETATM   37  N2  UNL     1      47.567 -38.897  50.278  1.00  0.00    -0.377 N 
ATOM     38  H22 UNL     1      47.124 -39.553  49.635  1.00  0.00     0.164 HD
ATOM     39  H21 UNL     1      47.112 -38.359  51.015  1.00  0.00     0.164 HD
ENDBRANCH  32  37
ENDBRANCH  31  32
ENDBRANCH  26  31
ENDBRANCH  23  26
ENDBRANCH   1  22
TORSDOF 7
ENDMDL
