MODEL 5
REMARK VINA RESULT: -8.002937087      0.329      1.082
REMARK  7 active torsions:
REMARK  status: ('A' for Active; 'I' for Inactive)
REMARK    1  A    between atoms: N1_1  and  C1_5 
REMARK    2  A    between atoms: C2_6  and  O1_7 
REMARK    3  A    between atoms: C3_10  and  C4_11 
REMARK    4  A    between atoms: C4_11  and  O3_12 
REMARK    5  A    between atoms: O3_12  and  P1_13 
REMARK    6  A    between atoms: C5_17  and  O7_18 
REMARK    7  A    between atoms: C6_20  and  O8_21 
ROOT
HETATM    1  C1  UNL     1      28.193  15.447  -2.294  1.00  0.00     0.269 C 
HETATM    2  C2  UNL     1      28.060  15.996  -3.691  1.00  0.00     0.290 C 
HETATM    3  O2  UNL     1      28.784  17.140  -3.912  1.00  0.00    -0.349 OA
HETATM    4  C3  UNL     1      28.565  18.139  -2.994  1.00  0.00     0.180 C 
HETATM    5  C5  UNL     1      29.030  17.635  -1.641  1.00  0.00     0.180 C 
HETATM    6  C6  UNL     1      28.042  16.541  -1.246  1.00  0.00     0.184 C 
ENDROOT
BRANCH   4   7
HETATM    7  C4  UNL     1      29.410  19.345  -3.433  1.00  0.00     0.217 C 
BRANCH   7   8
HETATM    8  O3  UNL     1      30.667  18.926  -3.606  1.00  0.00    -0.280 OA
BRANCH   8   9
HETATM    9  P1  UNL     1      31.894  19.495  -2.739  1.00  0.00     0.422 P 
HETATM   10  O4  UNL     1      31.525  20.960  -2.992  1.00  0.00    -0.617 OA
HETATM   11  O5  UNL     1      31.920  19.573  -1.108  1.00  0.00    -0.617 OA
HETATM   12  O6  UNL     1      33.376  19.853  -3.532  1.00  0.00    -0.617 OA
ENDBRANCH   8   9
ENDBRANCH   7   8
ENDBRANCH   4   7
BRANCH   5  13
HETATM   13  O7  UNL     1      29.121  18.623  -0.698  1.00  0.00    -0.390 OA
ATOM     14  H7  UNL     1      28.380  19.218  -0.707  1.00  0.00     0.210 HD
ENDBRANCH   5  13
BRANCH   2  15
HETATM   15  O1  UNL     1      26.735  16.148  -4.073  1.00  0.00    -0.369 OA
ATOM     16  H1  UNL     1      26.434  17.044  -3.982  1.00  0.00     0.212 HD
ENDBRANCH   2  15
BRANCH   6  17
HETATM   17  O8  UNL     1      28.292  16.023  -0.001  1.00  0.00    -0.391 OA
ATOM     18  H8  UNL     1      28.964  16.539   0.430  1.00  0.00     0.210 HD
ENDBRANCH   6  17
BRANCH   1  19
HETATM   19  N1  UNL     1      27.182  14.425  -2.088  1.00  0.00    -0.068 N 
ATOM     20  H13 UNL     1      27.433  13.776  -1.343  1.00  0.00     0.275 HD
ATOM     21  H12 UNL     1      26.330  14.800  -1.670  1.00  0.00     0.275 HD
ATOM     22  H11 UNL     1      27.003  13.950  -2.972  1.00  0.00     0.275 HD
ENDBRANCH   1  19
TORSDOF 7
ENDMDL
