MODEL 20
REMARK VINA RESULT: -7.088513051      3.227      5.483
REMARK  7 active torsions:
REMARK  status: ('A' for Active; 'I' for Inactive)
REMARK    1  A    between atoms: N1_1  and  C1_5 
REMARK    2  A    between atoms: C2_6  and  O1_7 
REMARK    3  A    between atoms: C3_10  and  C4_11 
REMARK    4  A    between atoms: C4_11  and  O3_12 
REMARK    5  A    between atoms: O3_12  and  P1_13 
REMARK    6  A    between atoms: C5_17  and  O7_18 
REMARK    7  A    between atoms: C6_20  and  O8_21 
ROOT
HETATM    1  C1  UNL     1      31.536  20.403  -2.910  1.00  0.00     0.269 C 
HETATM    2  C2  UNL     1      30.053  20.140  -2.912  1.00  0.00     0.290 C 
HETATM    3  O2  UNL     1      29.692  18.970  -2.294  1.00  0.00    -0.349 OA
HETATM    4  C3  UNL     1      30.364  17.859  -2.743  1.00  0.00     0.180 C 
HETATM    5  C5  UNL     1      31.834  18.041  -2.414  1.00  0.00     0.180 C 
HETATM    6  C6  UNL     1      32.324  19.166  -3.320  1.00  0.00     0.184 C 
ENDROOT
BRANCH   4   7
HETATM    7  C4  UNL     1      29.793  16.651  -1.983  1.00  0.00     0.217 C 
BRANCH   7   8
HETATM    8  O3  UNL     1      28.849  16.093  -2.747  1.00  0.00    -0.280 OA
BRANCH   8   9
HETATM    9  P1  UNL     1      27.285  16.183  -2.389  1.00  0.00     0.422 P 
HETATM   10  O4  UNL     1      27.017  17.308  -3.392  1.00  0.00    -0.617 OA
HETATM   11  O5  UNL     1      26.148  15.148  -2.937  1.00  0.00    -0.617 OA
HETATM   12  O6  UNL     1      26.772  17.293  -1.182  1.00  0.00    -0.617 OA
ENDBRANCH   8   9
ENDBRANCH   7   8
ENDBRANCH   4   7
BRANCH   5  13
HETATM   13  O7  UNL     1      32.567  16.894  -2.560  1.00  0.00    -0.390 OA
ATOM     14  H7  UNL     1      32.057  16.104  -2.426  1.00  0.00     0.210 HD
ENDBRANCH   5  13
BRANCH   2  15
HETATM   15  O1  UNL     1      29.502  20.239  -4.181  1.00  0.00    -0.369 OA
ATOM     16  H1  UNL     1      29.344  19.388  -4.572  1.00  0.00     0.212 HD
ENDBRANCH   2  15
BRANCH   6  17
HETATM   17  O8  UNL     1      33.667  19.410  -3.186  1.00  0.00    -0.391 OA
ATOM     18  H8  UNL     1      34.020  18.874  -2.486  1.00  0.00     0.210 HD
ENDBRANCH   6  17
BRANCH   1  19
HETATM   19  N1  UNL     1      31.826  21.496  -3.822  1.00  0.00    -0.068 N 
ATOM     20  H13 UNL     1      31.529  21.293  -4.776  1.00  0.00     0.275 HD
ATOM     21  H12 UNL     1      31.231  22.308  -3.656  1.00  0.00     0.275 HD
ATOM     22  H11 UNL     1      32.818  21.724  -3.764  1.00  0.00     0.275 HD
ENDBRANCH   1  19
TORSDOF 7
ENDMDL
