MODEL 11
REMARK VINA RESULT: -7.755521273      1.284      1.641
REMARK  7 active torsions:
REMARK  status: ('A' for Active; 'I' for Inactive)
REMARK    1  A    between atoms: N1_1  and  C1_5 
REMARK    2  A    between atoms: C2_6  and  O1_7 
REMARK    3  A    between atoms: C3_10  and  C4_11 
REMARK    4  A    between atoms: C4_11  and  O3_12 
REMARK    5  A    between atoms: O3_12  and  P1_13 
REMARK    6  A    between atoms: C5_17  and  O7_18 
REMARK    7  A    between atoms: C6_20  and  O8_21 
ROOT
HETATM    1  C1  UNL     1      27.179  15.773  -2.527  1.00  0.00     0.269 C 
HETATM    2  C2  UNL     1      27.850  15.513  -3.851  1.00  0.00     0.290 C 
HETATM    3  O2  UNL     1      28.989  16.248  -4.054  1.00  0.00    -0.349 OA
HETATM    4  C3  UNL     1      28.835  17.601  -3.865  1.00  0.00     0.180 C 
HETATM    5  C5  UNL     1      28.475  17.828  -2.410  1.00  0.00     0.180 C 
HETATM    6  C6  UNL     1      27.068  17.264  -2.240  1.00  0.00     0.184 C 
ENDROOT
BRANCH   4   7
HETATM    7  C4  UNL     1      30.188  18.256  -4.188  1.00  0.00     0.217 C 
BRANCH   7   8
HETATM    8  O3  UNL     1      31.028  17.982  -3.185  1.00  0.00    -0.280 OA
BRANCH   8   9
HETATM    9  P1  UNL     1      32.010  19.087  -2.556  1.00  0.00     0.422 P 
HETATM   10  O4  UNL     1      31.241  20.263  -3.165  1.00  0.00    -0.617 OA
HETATM   11  O5  UNL     1      31.961  19.596  -1.005  1.00  0.00    -0.617 OA
HETATM   12  O6  UNL     1      33.349  19.632  -3.484  1.00  0.00    -0.617 OA
ENDBRANCH   8   9
ENDBRANCH   7   8
ENDBRANCH   4   7
BRANCH   5  13
HETATM   13  O7  UNL     1      28.562  19.140  -2.029  1.00  0.00    -0.390 OA
ATOM     14  H7  UNL     1      28.326  19.283  -1.120  1.00  0.00     0.210 HD
ENDBRANCH   5  13
BRANCH   2  15
HETATM   15  O1  UNL     1      26.970  15.628  -4.918  1.00  0.00    -0.369 OA
ATOM     16  H1  UNL     1      26.530  16.470  -4.932  1.00  0.00     0.212 HD
ENDBRANCH   2  15
BRANCH   6  17
HETATM   17  O8  UNL     1      26.567  17.453  -0.977  1.00  0.00    -0.391 OA
ATOM     18  H8  UNL     1      26.040  18.244  -0.958  1.00  0.00     0.210 HD
ENDBRANCH   6  17
BRANCH   1  19
HETATM   19  N1  UNL     1      25.857  15.173  -2.538  1.00  0.00    -0.068 N 
ATOM     20  H13 UNL     1      25.884  14.181  -2.773  1.00  0.00     0.275 HD
ATOM     21  H12 UNL     1      25.461  15.088  -1.602  1.00  0.00     0.275 HD
ATOM     22  H11 UNL     1      25.255  15.704  -3.167  1.00  0.00     0.275 HD
ENDBRANCH   1  19
TORSDOF 7
ENDMDL
