MODEL 10
REMARK VINA RESULT: -7.795021766      1.649      2.042
REMARK  7 active torsions:
REMARK  status: ('A' for Active; 'I' for Inactive)
REMARK    1  A    between atoms: N1_1  and  C1_5 
REMARK    2  A    between atoms: C2_6  and  O1_7 
REMARK    3  A    between atoms: C3_10  and  C4_11 
REMARK    4  A    between atoms: C4_11  and  O3_12 
REMARK    5  A    between atoms: O3_12  and  P1_13 
REMARK    6  A    between atoms: C5_17  and  O7_18 
REMARK    7  A    between atoms: C6_20  and  O8_21 
ROOT
HETATM    1  C1  UNL     1      28.526  16.332  -1.307  1.00  0.00     0.269 C 
HETATM    2  C2  UNL     1      29.735  15.914  -2.103  1.00  0.00     0.290 C 
HETATM    3  O2  UNL     1      30.274  16.916  -2.868  1.00  0.00    -0.349 OA
HETATM    4  C3  UNL     1      29.373  17.555  -3.686  1.00  0.00     0.180 C 
HETATM    5  C5  UNL     1      28.349  18.241  -2.803  1.00  0.00     0.180 C 
HETATM    6  C6  UNL     1      27.540  17.120  -2.160  1.00  0.00     0.184 C 
ENDROOT
BRANCH   4   7
HETATM    7  C4  UNL     1      30.162  18.596  -4.497  1.00  0.00     0.217 C 
BRANCH   7   8
HETATM    8  O3  UNL     1      31.388  18.683  -3.971  1.00  0.00    -0.280 OA
BRANCH   8   9
HETATM    9  P1  UNL     1      31.903  19.994  -3.197  1.00  0.00     0.422 P 
HETATM   10  O4  UNL     1      33.380  19.614  -3.328  1.00  0.00    -0.617 OA
HETATM   11  O5  UNL     1      32.017  21.480  -3.865  1.00  0.00    -0.617 OA
HETATM   12  O6  UNL     1      32.150  19.912  -1.499  1.00  0.00    -0.617 OA
ENDBRANCH   8   9
ENDBRANCH   7   8
ENDBRANCH   4   7
BRANCH   5  13
HETATM   13  O7  UNL     1      27.562  19.132  -3.480  1.00  0.00    -0.390 OA
ATOM     14  H7  UNL     1      27.535  19.992  -3.076  1.00  0.00     0.210 HD
ENDBRANCH   5  13
BRANCH   2  15
HETATM   15  O1  UNL     1      29.503  14.769  -2.850  1.00  0.00    -0.369 OA
ATOM     16  H1  UNL     1      30.292  14.447  -3.270  1.00  0.00     0.212 HD
ENDBRANCH   2  15
BRANCH   6  17
HETATM   17  O8  UNL     1      26.519  17.585  -1.371  1.00  0.00    -0.391 OA
ATOM     18  H8  UNL     1      25.881  16.894  -1.235  1.00  0.00     0.210 HD
ENDBRANCH   6  17
BRANCH   1  19
HETATM   19  N1  UNL     1      27.878  15.148  -0.771  1.00  0.00    -0.068 N 
ATOM     20  H13 UNL     1      27.907  14.363  -1.421  1.00  0.00     0.275 HD
ATOM     21  H12 UNL     1      28.410  14.724  -0.011  1.00  0.00     0.275 HD
ATOM     22  H11 UNL     1      26.926  15.386  -0.492  1.00  0.00     0.275 HD
ENDBRANCH   1  19
TORSDOF 7
ENDMDL
