MODEL 9
REMARK VINA RESULT: -7.795183382      1.544      1.711
REMARK  7 active torsions:
REMARK  status: ('A' for Active; 'I' for Inactive)
REMARK    1  A    between atoms: N1_1  and  C1_5 
REMARK    2  A    between atoms: C2_6  and  O1_7 
REMARK    3  A    between atoms: C3_10  and  C4_11 
REMARK    4  A    between atoms: C4_11  and  O3_12 
REMARK    5  A    between atoms: O3_12  and  P1_13 
REMARK    6  A    between atoms: C5_17  and  O7_18 
REMARK    7  A    between atoms: C6_20  and  O8_21 
ROOT
HETATM    1  C1  UNL     1      28.435  15.721  -1.578  1.00  0.00     0.269 C 
HETATM    2  C2  UNL     1      27.544  16.910  -1.828  1.00  0.00     0.290 C 
HETATM    3  O2  UNL     1      28.218  18.047  -2.193  1.00  0.00    -0.349 OA
HETATM    4  C3  UNL     1      29.240  18.399  -1.344  1.00  0.00     0.180 C 
HETATM    5  C5  UNL     1      30.279  17.295  -1.386  1.00  0.00     0.180 C 
HETATM    6  C6  UNL     1      29.630  16.091  -0.710  1.00  0.00     0.184 C 
ENDROOT
BRANCH   4   7
HETATM    7  C4  UNL     1      29.835  19.712  -1.878  1.00  0.00     0.217 C 
BRANCH   7   8
HETATM    8  O3  UNL     1      30.455  19.444  -3.031  1.00  0.00    -0.280 OA
BRANCH   8   9
HETATM    9  P1  UNL     1      31.882  20.078  -3.411  1.00  0.00     0.422 P 
HETATM   10  O4  UNL     1      32.199  20.483  -1.969  1.00  0.00    -0.617 OA
HETATM   11  O5  UNL     1      33.240  19.212  -3.680  1.00  0.00    -0.617 OA
HETATM   12  O6  UNL     1      31.973  21.754  -3.779  1.00  0.00    -0.617 OA
ENDBRANCH   8   9
ENDBRANCH   7   8
ENDBRANCH   4   7
BRANCH   5  13
HETATM   13  O7  UNL     1      31.465  17.647  -0.801  1.00  0.00    -0.390 OA
ATOM     14  H7  UNL     1      32.196  17.110  -1.084  1.00  0.00     0.210 HD
ENDBRANCH   5  13
BRANCH   2  15
HETATM   15  O1  UNL     1      26.674  17.147  -0.774  1.00  0.00    -0.369 OA
ATOM     16  H1  UNL     1      26.203  17.966  -0.873  1.00  0.00     0.212 HD
ENDBRANCH   2  15
BRANCH   6  17
HETATM   17  O8  UNL     1      30.476  15.017  -0.610  1.00  0.00    -0.391 OA
ATOM     18  H8  UNL     1      31.334  15.254  -0.944  1.00  0.00     0.210 HD
ENDBRANCH   6  17
BRANCH   1  19
HETATM   19  N1  UNL     1      27.661  14.676  -0.932  1.00  0.00    -0.068 N 
ATOM     20  H13 UNL     1      26.935  15.051  -0.323  1.00  0.00     0.275 HD
ATOM     21  H12 UNL     1      27.057  14.179  -1.587  1.00  0.00     0.275 HD
ATOM     22  H11 UNL     1      28.296  14.048  -0.438  1.00  0.00     0.275 HD
ENDBRANCH   1  19
TORSDOF 7
ENDMDL
