MODEL 1
REMARK VINA RESULT: -8.273560678      0.000      0.000
REMARK  7 active torsions:
REMARK  status: ('A' for Active; 'I' for Inactive)
REMARK    1  A    between atoms: N1_1  and  C1_5 
REMARK    2  A    between atoms: C2_6  and  O1_7 
REMARK    3  A    between atoms: C3_10  and  C4_11 
REMARK    4  A    between atoms: C4_11  and  O3_12 
REMARK    5  A    between atoms: O3_12  and  P1_13 
REMARK    6  A    between atoms: C5_17  and  O7_18 
REMARK    7  A    between atoms: C6_20  and  O8_21 
ROOT
HETATM    1  C1  UNL     1      28.209  15.474  -2.273  1.00  0.00     0.269 C 
HETATM    2  C2  UNL     1      28.019  16.006  -3.670  1.00  0.00     0.290 C 
HETATM    3  O2  UNL     1      28.741  17.139  -3.939  1.00  0.00    -0.349 OA
HETATM    4  C3  UNL     1      28.572  18.153  -3.026  1.00  0.00     0.180 C 
HETATM    5  C5  UNL     1      29.092  17.663  -1.689  1.00  0.00     0.180 C 
HETATM    6  C6  UNL     1      28.114  16.584  -1.235  1.00  0.00     0.184 C 
ENDROOT
BRANCH   4   7
HETATM    7  C4  UNL     1      29.407  19.345  -3.519  1.00  0.00     0.217 C 
BRANCH   7   8
HETATM    8  O3  UNL     1      30.695  18.991  -3.477  1.00  0.00    -0.280 OA
BRANCH   8   9
HETATM    9  P1  UNL     1      31.875  20.055  -3.237  1.00  0.00     0.422 P 
HETATM   10  O4  UNL     1      31.841  19.901  -1.714  1.00  0.00    -0.617 OA
HETATM   11  O5  UNL     1      33.464  19.737  -3.436  1.00  0.00    -0.617 OA
HETATM   12  O6  UNL     1      31.466  21.701  -2.964  1.00  0.00    -0.617 OA
ENDBRANCH   8   9
ENDBRANCH   7   8
ENDBRANCH   4   7
BRANCH   5  13
HETATM   13  O7  UNL     1      29.233  18.663  -0.765  1.00  0.00    -0.390 OA
ATOM     14  H7  UNL     1      29.182  18.354   0.133  1.00  0.00     0.210 HD
ENDBRANCH   5  13
BRANCH   2  15
HETATM   15  O1  UNL     1      26.679  16.164  -3.995  1.00  0.00    -0.369 OA
ATOM     16  H1  UNL     1      26.518  16.044  -4.924  1.00  0.00     0.212 HD
ENDBRANCH   2  15
BRANCH   6  17
HETATM   17  O8  UNL     1      28.415  16.080   0.005  1.00  0.00    -0.391 OA
ATOM     18  H8  UNL     1      29.357  15.991   0.093  1.00  0.00     0.210 HD
ENDBRANCH   6  17
BRANCH   1  19
HETATM   19  N1  UNL     1      27.199  14.464  -2.008  1.00  0.00    -0.068 N 
ATOM     20  H13 UNL     1      26.480  14.437  -2.730  1.00  0.00     0.275 HD
ATOM     21  H12 UNL     1      27.558  13.516  -2.128  1.00  0.00     0.275 HD
ATOM     22  H11 UNL     1      26.811  14.617  -1.078  1.00  0.00     0.275 HD
ENDBRANCH   1  19
TORSDOF 7
ENDMDL
