MODEL 19
REMARK VINA RESULT: -7.116099523      3.175      5.407
REMARK  7 active torsions:
REMARK  status: ('A' for Active; 'I' for Inactive)
REMARK    1  A    between atoms: N1_1  and  C1_5 
REMARK    2  A    between atoms: C2_6  and  O1_7 
REMARK    3  A    between atoms: C3_10  and  C4_11 
REMARK    4  A    between atoms: C4_11  and  O3_12 
REMARK    5  A    between atoms: O3_12  and  P1_13 
REMARK    6  A    between atoms: C5_17  and  O7_18 
REMARK    7  A    between atoms: C6_20  and  O8_21 
ROOT
HETATM    1  C1  UNL     1      31.926  19.255  -3.526  1.00  0.00     0.269 C 
HETATM    2  C2  UNL     1      32.219  17.816  -3.190  1.00  0.00     0.290 C 
HETATM    3  O2  UNL     1      31.143  17.129  -2.688  1.00  0.00    -0.349 OA
HETATM    4  C3  UNL     1      30.524  17.741  -1.624  1.00  0.00     0.180 C 
HETATM    5  C5  UNL     1      29.956  19.059  -2.113  1.00  0.00     0.180 C 
HETATM    6  C6  UNL     1      31.162  19.947  -2.404  1.00  0.00     0.184 C 
ENDROOT
BRANCH   4   7
HETATM    7  C4  UNL     1      29.391  16.808  -1.167  1.00  0.00     0.217 C 
BRANCH   7   8
HETATM    8  O3  UNL     1      28.615  16.555  -2.225  1.00  0.00    -0.280 OA
BRANCH   8   9
HETATM    9  P1  UNL     1      27.017  16.425  -2.112  1.00  0.00     0.422 P 
HETATM   10  O4  UNL     1      26.753  17.585  -3.076  1.00  0.00    -0.617 OA
HETATM   11  O5  UNL     1      26.120  15.306  -2.893  1.00  0.00    -0.617 OA
HETATM   12  O6  UNL     1      26.189  17.365  -0.937  1.00  0.00    -0.617 OA
ENDBRANCH   8   9
ENDBRANCH   7   8
ENDBRANCH   4   7
BRANCH   5  13
HETATM   13  O7  UNL     1      29.085  19.634  -1.228  1.00  0.00    -0.390 OA
ATOM     14  H7  UNL     1      28.332  20.034  -1.649  1.00  0.00     0.210 HD
ENDBRANCH   5  13
BRANCH   2  15
HETATM   15  O1  UNL     1      33.335  17.681  -2.378  1.00  0.00    -0.369 OA
ATOM     16  H1  UNL     1      33.106  17.448  -1.486  1.00  0.00     0.212 HD
ENDBRANCH   2  15
BRANCH   6  17
HETATM   17  O8  UNL     1      30.809  21.211  -2.800  1.00  0.00    -0.391 OA
ATOM     18  H8  UNL     1      29.913  21.209  -3.116  1.00  0.00     0.210 HD
ENDBRANCH   6  17
BRANCH   1  19
HETATM   19  N1  UNL     1      33.178  19.950  -3.770  1.00  0.00    -0.068 N 
ATOM     20  H13 UNL     1      33.134  20.933  -3.503  1.00  0.00     0.275 HD
ATOM     21  H12 UNL     1      33.915  19.659  -3.127  1.00  0.00     0.275 HD
ATOM     22  H11 UNL     1      33.443  19.824  -4.747  1.00  0.00     0.275 HD
ENDBRANCH   1  19
TORSDOF 7
ENDMDL
