MODEL 7
REMARK VINA RESULT: -7.637529941      4.202      6.485
REMARK  7 active torsions:
REMARK  status: ('A' for Active; 'I' for Inactive)
REMARK    1  A    between atoms: N2_7  and  C3_8 
REMARK    2  A    between atoms: C5_10  and  O3_11 
REMARK    3  A    between atoms: C6_13  and  C7_14 
REMARK    4  A    between atoms: C7_14  and  O4_15 
REMARK    5  A    between atoms: O4_15  and  P1_16 
REMARK    6  A    between atoms: C9_22  and  C10_23 
REMARK    7  A    between atoms: C10_23  and  O9_24 
ROOT
HETATM    1  C3  UNL     1      25.555  15.178   8.614  1.00  0.00     0.235 C 
HETATM    2  C4  UNL     1      25.264  15.068   7.131  1.00  0.00     0.088 C 
HETATM    3  C5  UNL     1      24.102  14.084   7.180  1.00  0.00     0.153 C 
HETATM    4  C6  UNL     1      24.597  13.211   8.300  1.00  0.00     0.177 C 
HETATM    5  O8  UNL     1      25.556  13.821   9.004  1.00  0.00    -0.356 OA
ENDROOT
BRANCH   1   6
HETATM    6  N2  UNL     1      26.769  15.865   8.854  1.00  0.00    -0.282 N 
HETATM    7  C2  UNL     1      26.707  17.100   9.375  1.00  0.00     0.331 A 
HETATM    8  N1  UNL     1      27.756  17.850   9.727  1.00  0.00    -0.275 N 
HETATM    9  O2  UNL     1      25.555  17.629   9.572  1.00  0.00    -0.246 OA
HETATM   10  C1  UNL     1      28.954  17.347   9.542  1.00  0.00     0.259 A 
ATOM     11  H1  UNL     1      27.629  18.781  10.124  1.00  0.00     0.173 HD
HETATM   12  O1  UNL     1      29.969  18.025   9.866  1.00  0.00    -0.267 OA
HETATM   13  C9  UNL     1      29.098  16.074   8.986  1.00  0.00     0.049 A 
HETATM   14  C8  UNL     1      27.971  15.346   8.662  1.00  0.00     0.113 A 
BRANCH  13  15
HETATM   15  C10 UNL     1      30.479  15.575   8.855  1.00  0.00     0.210 C 
BRANCH  15  16
HETATM   16  O9  UNL     1      30.903  15.089  10.132  1.00  0.00    -0.396 OA
ATOM     17  H9  UNL     1      31.853  15.077  10.145  1.00  0.00     0.209 HD
ENDBRANCH  15  16
ENDBRANCH  13  15
ENDBRANCH   1   6
BRANCH   3  18
HETATM   18  O3  UNL     1      22.980  14.831   7.604  1.00  0.00    -0.393 OA
ATOM     19  H3  UNL     1      22.968  14.766   8.552  1.00  0.00     0.210 HD
ENDBRANCH   3  18
BRANCH   4  20
HETATM   20  C7  UNL     1      25.067  11.876   7.768  1.00  0.00     0.217 C 
BRANCH  20  21
HETATM   21  O4  UNL     1      24.035  10.992   8.023  1.00  0.00    -0.280 OA
BRANCH  21  22
HETATM   22  P1  UNL     1      24.320  10.046   9.375  1.00  0.00     0.422 P 
HETATM   23  O5  UNL     1      22.820   9.812   9.468  1.00  0.00    -0.617 OA
HETATM   24  O6  UNL     1      25.826   9.974   8.863  1.00  0.00    -0.617 OA
HETATM   25  O7  UNL     1      24.642  10.726  10.774  1.00  0.00    -0.617 OA
ENDBRANCH  21  22
ENDBRANCH  20  21
ENDBRANCH   4  20
TORSDOF 7
ENDMDL
