MODEL 6
REMARK VINA RESULT: -8.056093192      5.878      8.283
REMARK  7 active torsions:
REMARK  status: ('A' for Active; 'I' for Inactive)
REMARK    1  A    between atoms: N2_7  and  C3_8 
REMARK    2  A    between atoms: C5_10  and  O3_11 
REMARK    3  A    between atoms: C6_13  and  C7_14 
REMARK    4  A    between atoms: C7_14  and  O4_15 
REMARK    5  A    between atoms: O4_15  and  P1_16 
REMARK    6  A    between atoms: C9_22  and  C10_23 
REMARK    7  A    between atoms: C10_23  and  O9_24 
ROOT
HETATM    1  C3  UNL     1      26.872  16.409   8.545  1.00  0.00     0.235 C 
HETATM    2  C4  UNL     1      28.326  16.823   8.668  1.00  0.00     0.088 C 
HETATM    3  C5  UNL     1      28.439  16.876  10.187  1.00  0.00     0.153 C 
HETATM    4  C6  UNL     1      27.078  17.437  10.492  1.00  0.00     0.177 C 
HETATM    5  O8  UNL     1      26.249  17.294   9.453  1.00  0.00    -0.356 OA
ENDROOT
BRANCH   1   6
HETATM    6  N2  UNL     1      26.416  16.512   7.209  1.00  0.00    -0.282 N 
HETATM    7  C2  UNL     1      25.341  15.795   6.850  1.00  0.00     0.331 A 
HETATM    8  N1  UNL     1      24.743  15.833   5.655  1.00  0.00    -0.275 N 
HETATM    9  O2  UNL     1      24.813  15.001   7.709  1.00  0.00    -0.246 OA
HETATM   10  C1  UNL     1      25.250  16.633   4.745  1.00  0.00     0.259 A 
ATOM     11  H1  UNL     1      23.921  15.262   5.457  1.00  0.00     0.173 HD
HETATM   12  O1  UNL     1      24.710  16.699   3.607  1.00  0.00    -0.267 OA
HETATM   13  C9  UNL     1      26.381  17.396   5.041  1.00  0.00     0.049 A 
HETATM   14  C8  UNL     1      26.938  17.321   6.302  1.00  0.00     0.113 A 
BRANCH  13  15
HETATM   15  C10 UNL     1      26.855  18.295   3.973  1.00  0.00     0.210 C 
BRANCH  15  16
HETATM   16  O9  UNL     1      25.937  19.388   3.867  1.00  0.00    -0.396 OA
ATOM     17  H9  UNL     1      25.078  19.081   4.135  1.00  0.00     0.209 HD
ENDBRANCH  15  16
ENDBRANCH  13  15
ENDBRANCH   1   6
BRANCH   3  18
HETATM   18  O3  UNL     1      28.520  15.532  10.616  1.00  0.00    -0.393 OA
ATOM     19  H3  UNL     1      28.258  15.535  11.529  1.00  0.00     0.210 HD
ENDBRANCH   3  18
BRANCH   4  20
HETATM   20  C7  UNL     1      27.181  18.883  10.922  1.00  0.00     0.217 C 
BRANCH  20  21
HETATM   21  O4  UNL     1      27.280  18.852  12.301  1.00  0.00    -0.280 OA
BRANCH  21  22
HETATM   22  P1  UNL     1      26.409  20.080  13.035  1.00  0.00     0.422 P 
HETATM   23  O5  UNL     1      27.727  20.646  13.543  1.00  0.00    -0.617 OA
HETATM   24  O6  UNL     1      25.227  19.670  12.051  1.00  0.00    -0.617 OA
HETATM   25  O7  UNL     1      25.619  19.803  14.385  1.00  0.00    -0.617 OA
ENDBRANCH  21  22
ENDBRANCH  20  21
ENDBRANCH   4  20
TORSDOF 7
ENDMDL
