MODEL 8
REMARK VINA RESULT: -7.618648276      5.424      8.160
REMARK  7 active torsions:
REMARK  status: ('A' for Active; 'I' for Inactive)
REMARK    1  A    between atoms: N2_7  and  C3_8 
REMARK    2  A    between atoms: C5_10  and  O3_11 
REMARK    3  A    between atoms: C6_13  and  C7_14 
REMARK    4  A    between atoms: C7_14  and  O4_15 
REMARK    5  A    between atoms: O4_15  and  P1_16 
REMARK    6  A    between atoms: C9_22  and  C10_23 
REMARK    7  A    between atoms: C10_23  and  O9_24 
ROOT
HETATM    1  C3  UNL     1      28.543  16.982   9.118  1.00  0.00     0.235 C 
HETATM    2  C4  UNL     1      29.091  18.267   8.530  1.00  0.00     0.088 C 
HETATM    3  C5  UNL     1      29.908  18.754   9.720  1.00  0.00     0.153 C 
HETATM    4  C6  UNL     1      28.978  18.324  10.820  1.00  0.00     0.177 C 
HETATM    5  O8  UNL     1      28.096  17.419  10.385  1.00  0.00    -0.356 OA
ENDROOT
BRANCH   1   6
HETATM    6  N2  UNL     1      27.536  16.424   8.295  1.00  0.00    -0.282 N 
HETATM    7  C2  UNL     1      27.163  15.154   8.522  1.00  0.00     0.331 A 
HETATM    8  N1  UNL     1      26.183  14.505   7.886  1.00  0.00    -0.275 N 
HETATM    9  O2  UNL     1      27.777  14.484   9.427  1.00  0.00    -0.246 OA
HETATM   10  C1  UNL     1      25.528  15.155   6.951  1.00  0.00     0.259 A 
ATOM     11  H1  UNL     1      25.951  13.539   8.118  1.00  0.00     0.173 HD
HETATM   12  O1  UNL     1      24.594  14.576   6.331  1.00  0.00    -0.267 OA
HETATM   13  C9  UNL     1      25.874  16.473   6.646  1.00  0.00     0.049 A 
HETATM   14  C8  UNL     1      26.886  17.089   7.355  1.00  0.00     0.113 A 
BRANCH  13  15
HETATM   15  C10 UNL     1      25.058  17.135   5.612  1.00  0.00     0.210 C 
BRANCH  15  16
HETATM   16  O9  UNL     1      25.276  16.460   4.369  1.00  0.00    -0.396 OA
ATOM     17  H9  UNL     1      24.642  15.756   4.298  1.00  0.00     0.209 HD
ENDBRANCH  15  16
ENDBRANCH  13  15
ENDBRANCH   1   6
BRANCH   3  18
HETATM   18  O3  UNL     1      31.079  17.961   9.735  1.00  0.00    -0.393 OA
ATOM     19  H3  UNL     1      31.145  17.613  10.616  1.00  0.00     0.210 HD
ENDBRANCH   3  18
BRANCH   4  20
HETATM   20  C7  UNL     1      28.285  19.522  11.430  1.00  0.00     0.217 C 
BRANCH  20  21
HETATM   21  O4  UNL     1      27.584  19.030  12.515  1.00  0.00    -0.280 OA
BRANCH  21  22
HETATM   22  P1  UNL     1      26.424  20.102  13.071  1.00  0.00     0.422 P 
HETATM   23  O5  UNL     1      27.553  20.976  13.599  1.00  0.00    -0.617 OA
HETATM   24  O6  UNL     1      25.433  19.369  12.063  1.00  0.00    -0.617 OA
HETATM   25  O7  UNL     1      25.604  19.779  14.393  1.00  0.00    -0.617 OA
ENDBRANCH  21  22
ENDBRANCH  20  21
ENDBRANCH   4  20
TORSDOF 7
ENDMDL
