MODEL 4
REMARK VINA RESULT: -8.656261606      1.264      1.752
REMARK  7 active torsions:
REMARK  status: ('A' for Active; 'I' for Inactive)
REMARK    1  A    between atoms: N2_7  and  C3_8 
REMARK    2  A    between atoms: C5_10  and  O3_11 
REMARK    3  A    between atoms: C6_13  and  C7_14 
REMARK    4  A    between atoms: C7_14  and  O4_15 
REMARK    5  A    between atoms: O4_15  and  P1_16 
REMARK    6  A    between atoms: C9_22  and  C10_23 
REMARK    7  A    between atoms: C10_23  and  O9_24 
ROOT
HETATM    1  C3  UNL     1      24.545  11.422   8.434  1.00  0.00     0.235 C 
HETATM    2  C4  UNL     1      23.739  12.234   9.429  1.00  0.00     0.088 C 
HETATM    3  C5  UNL     1      23.391  13.427   8.548  1.00  0.00     0.153 C 
HETATM    4  C6  UNL     1      24.686  13.532   7.793  1.00  0.00     0.177 C 
HETATM    5  O8  UNL     1      25.400  12.406   7.892  1.00  0.00    -0.356 OA
ENDROOT
BRANCH   1   6
HETATM    6  N2  UNL     1      25.208  10.342   9.064  1.00  0.00    -0.282 N 
HETATM    7  C2  UNL     1      24.489   9.254   9.382  1.00  0.00     0.331 A 
HETATM    8  N1  UNL     1      24.975   8.127   9.912  1.00  0.00    -0.275 N 
HETATM    9  O2  UNL     1      23.225   9.264   9.162  1.00  0.00    -0.246 OA
HETATM   10  C1  UNL     1      26.264   8.074  10.154  1.00  0.00     0.259 A 
ATOM     11  H1  UNL     1      24.365   7.336  10.121  1.00  0.00     0.173 HD
HETATM   12  O1  UNL     1      26.760   7.025  10.650  1.00  0.00    -0.267 OA
HETATM   13  C9  UNL     1      27.074   9.175   9.867  1.00  0.00     0.049 A 
HETATM   14  C8  UNL     1      26.508  10.302   9.304  1.00  0.00     0.113 A 
BRANCH  13  15
HETATM   15  C10 UNL     1      28.514   9.009  10.133  1.00  0.00     0.210 C 
BRANCH  15  16
HETATM   16  O9  UNL     1      28.699   8.906  11.549  1.00  0.00    -0.396 OA
ATOM     17  H9  UNL     1      28.108   9.519  11.971  1.00  0.00     0.209 HD
ENDBRANCH  15  16
ENDBRANCH  13  15
ENDBRANCH   1   6
BRANCH   3  18
HETATM   18  O3  UNL     1      22.360  12.985   7.688  1.00  0.00    -0.393 OA
ATOM     19  H3  UNL     1      22.681  13.126   6.805  1.00  0.00     0.210 HD
ENDBRANCH   3  18
BRANCH   4  20
HETATM   20  C7  UNL     1      25.481  14.732   8.261  1.00  0.00     0.217 C 
BRANCH  20  21
HETATM   21  O4  UNL     1      25.468  15.619   7.201  1.00  0.00    -0.280 OA
BRANCH  21  22
HETATM   22  P1  UNL     1      26.624  16.821   7.356  1.00  0.00     0.422 P 
HETATM   23  O5  UNL     1      25.501  17.793   7.685  1.00  0.00    -0.617 OA
HETATM   24  O6  UNL     1      27.673  15.631   7.493  1.00  0.00    -0.617 OA
HETATM   25  O7  UNL     1      27.272  17.479   6.063  1.00  0.00    -0.617 OA
ENDBRANCH  21  22
ENDBRANCH  20  21
ENDBRANCH   4  20
TORSDOF 7
ENDMDL
