MODEL 5
REMARK VINA RESULT: -8.277366411      1.162      1.599
REMARK  7 active torsions:
REMARK  status: ('A' for Active; 'I' for Inactive)
REMARK    1  A    between atoms: N2_7  and  C3_8 
REMARK    2  A    between atoms: C5_10  and  O3_11 
REMARK    3  A    between atoms: C6_13  and  C7_14 
REMARK    4  A    between atoms: C7_14  and  O4_15 
REMARK    5  A    between atoms: O4_15  and  P1_16 
REMARK    6  A    between atoms: C9_22  and  C10_23 
REMARK    7  A    between atoms: C10_23  and  O9_24 
ROOT
HETATM    1  C3  UNL     1      24.470  11.238   8.545  1.00  0.00     0.235 C 
HETATM    2  C4  UNL     1      23.501  11.918   9.492  1.00  0.00     0.088 C 
HETATM    3  C5  UNL     1      23.103  13.106   8.625  1.00  0.00     0.153 C 
HETATM    4  C6  UNL     1      24.440  13.378   7.994  1.00  0.00     0.177 C 
HETATM    5  O8  UNL     1      25.258  12.328   8.116  1.00  0.00    -0.356 OA
ENDROOT
BRANCH   1   6
HETATM    6  N2  UNL     1      25.190  10.206   9.194  1.00  0.00    -0.282 N 
HETATM    7  C2  UNL     1      24.533   9.082   9.517  1.00  0.00     0.331 A 
HETATM    8  N1  UNL     1      25.078   7.991  10.065  1.00  0.00    -0.275 N 
HETATM    9  O2  UNL     1      23.273   9.015   9.284  1.00  0.00    -0.246 OA
HETATM   10  C1  UNL     1      26.366   8.016  10.320  1.00  0.00     0.259 A 
ATOM     11  H1  UNL     1      24.514   7.168  10.276  1.00  0.00     0.173 HD
HETATM   12  O1  UNL     1      26.917   7.003  10.833  1.00  0.00    -0.267 OA
HETATM   13  C9  UNL     1      27.112   9.160  10.029  1.00  0.00     0.049 A 
HETATM   14  C8  UNL     1      26.488  10.246   9.447  1.00  0.00     0.113 A 
BRANCH  13  15
HETATM   15  C10 UNL     1      28.557   9.082  10.311  1.00  0.00     0.210 C 
BRANCH  15  16
HETATM   16  O9  UNL     1      28.729   8.931  11.723  1.00  0.00    -0.396 OA
ATOM     17  H9  UNL     1      29.284   8.174  11.875  1.00  0.00     0.209 HD
ENDBRANCH  15  16
ENDBRANCH  13  15
ENDBRANCH   1   6
BRANCH   3  18
HETATM   18  O3  UNL     1      22.203  12.598   7.661  1.00  0.00    -0.393 OA
ATOM     19  H3  UNL     1      22.742  12.257   6.957  1.00  0.00     0.210 HD
ENDBRANCH   3  18
BRANCH   4  20
HETATM   20  C7  UNL     1      25.058  14.632   8.572  1.00  0.00     0.217 C 
BRANCH  20  21
HETATM   21  O4  UNL     1      26.416  14.383   8.624  1.00  0.00    -0.280 OA
BRANCH  21  22
HETATM   22  P1  UNL     1      27.321  15.785   8.775  1.00  0.00     0.422 P 
HETATM   23  O5  UNL     1      26.116  16.560   8.262  1.00  0.00    -0.617 OA
HETATM   24  O6  UNL     1      28.266  14.932   9.731  1.00  0.00    -0.617 OA
HETATM   25  O7  UNL     1      28.433  16.139   7.697  1.00  0.00    -0.617 OA
ENDBRANCH  21  22
ENDBRANCH  20  21
ENDBRANCH   4  20
TORSDOF 7
ENDMDL
