MODEL 3
REMARK VINA RESULT: -8.752790572      1.158      1.310
REMARK  7 active torsions:
REMARK  status: ('A' for Active; 'I' for Inactive)
REMARK    1  A    between atoms: N2_7  and  C3_8 
REMARK    2  A    between atoms: C5_10  and  O3_11 
REMARK    3  A    between atoms: C6_13  and  C7_14 
REMARK    4  A    between atoms: C7_14  and  O4_15 
REMARK    5  A    between atoms: O4_15  and  P1_16 
REMARK    6  A    between atoms: C9_22  and  C10_23 
REMARK    7  A    between atoms: C10_23  and  O9_24 
ROOT
HETATM    1  C3  UNL     1      24.376  11.331   8.440  1.00  0.00     0.235 C 
HETATM    2  C4  UNL     1      23.706  12.239   9.452  1.00  0.00     0.088 C 
HETATM    3  C5  UNL     1      23.283  13.372   8.526  1.00  0.00     0.153 C 
HETATM    4  C6  UNL     1      24.486  13.383   7.624  1.00  0.00     0.177 C 
HETATM    5  O8  UNL     1      25.183  12.247   7.730  1.00  0.00    -0.356 OA
ENDROOT
BRANCH   1   6
HETATM    6  N2  UNL     1      25.086  10.283   9.074  1.00  0.00    -0.282 N 
HETATM    7  C2  UNL     1      24.406   9.184   9.434  1.00  0.00     0.331 A 
HETATM    8  N1  UNL     1      24.937   8.082   9.973  1.00  0.00    -0.275 N 
HETATM    9  O2  UNL     1      23.137   9.155   9.248  1.00  0.00    -0.246 OA
HETATM   10  C1  UNL     1      26.233   8.068  10.181  1.00  0.00     0.259 A 
ATOM     11  H1  UNL     1      24.354   7.280  10.215  1.00  0.00     0.173 HD
HETATM   12  O1  UNL     1      26.770   7.044  10.685  1.00  0.00    -0.267 OA
HETATM   13  C9  UNL     1      27.004   9.185   9.850  1.00  0.00     0.049 A 
HETATM   14  C8  UNL     1      26.393  10.284   9.279  1.00  0.00     0.113 A 
BRANCH  13  15
HETATM   15  C10 UNL     1      28.454   9.063  10.079  1.00  0.00     0.210 C 
BRANCH  15  16
HETATM   16  O9  UNL     1      28.674   8.918  11.486  1.00  0.00    -0.396 OA
ATOM     17  H9  UNL     1      29.253   9.617  11.770  1.00  0.00     0.209 HD
ENDBRANCH  15  16
ENDBRANCH  13  15
ENDBRANCH   1   6
BRANCH   3  18
HETATM   18  O3  UNL     1      22.152  12.895   7.823  1.00  0.00    -0.393 OA
ATOM     19  H3  UNL     1      22.028  13.493   7.096  1.00  0.00     0.210 HD
ENDBRANCH   3  18
BRANCH   4  20
HETATM   20  C7  UNL     1      25.352  14.591   7.905  1.00  0.00     0.217 C 
BRANCH  20  21
HETATM   21  O4  UNL     1      25.176  15.431   6.821  1.00  0.00    -0.280 OA
BRANCH  21  22
HETATM   22  P1  UNL     1      26.080  16.835   6.944  1.00  0.00     0.422 P 
HETATM   23  O5  UNL     1      27.295  15.971   7.246  1.00  0.00    -0.617 OA
HETATM   24  O6  UNL     1      24.888  17.532   6.151  1.00  0.00    -0.617 OA
HETATM   25  O7  UNL     1      25.979  17.740   8.246  1.00  0.00    -0.617 OA
ENDBRANCH  21  22
ENDBRANCH  20  21
ENDBRANCH   4  20
TORSDOF 7
ENDMDL
