MODEL 2
REMARK VINA RESULT: -9.102950088      0.549      1.163
REMARK  7 active torsions:
REMARK  status: ('A' for Active; 'I' for Inactive)
REMARK    1  A    between atoms: N2_7  and  C3_8 
REMARK    2  A    between atoms: C5_10  and  O3_11 
REMARK    3  A    between atoms: C6_13  and  C7_14 
REMARK    4  A    between atoms: C7_14  and  O4_15 
REMARK    5  A    between atoms: O4_15  and  P1_16 
REMARK    6  A    between atoms: C9_22  and  C10_23 
REMARK    7  A    between atoms: C10_23  and  O9_24 
ROOT
HETATM    1  C3  UNL     1      23.718  10.926   8.897  1.00  0.00     0.235 C 
HETATM    2  C4  UNL     1      23.712  12.158   9.780  1.00  0.00     0.088 C 
HETATM    3  C5  UNL     1      22.918  13.100   8.884  1.00  0.00     0.153 C 
HETATM    4  C6  UNL     1      23.475  12.667   7.557  1.00  0.00     0.177 C 
HETATM    5  O8  UNL     1      24.076  11.476   7.647  1.00  0.00    -0.356 OA
ENDROOT
BRANCH   1   6
HETATM    6  N2  UNL     1      24.609   9.941   9.388  1.00  0.00    -0.282 N 
HETATM    7  C2  UNL     1      24.110   8.736   9.703  1.00  0.00     0.331 A 
HETATM    8  N1  UNL     1      24.822   7.680  10.109  1.00  0.00    -0.275 N 
HETATM    9  O2  UNL     1      22.844   8.548   9.608  1.00  0.00    -0.246 OA
HETATM   10  C1  UNL     1      26.122   7.828  10.220  1.00  0.00     0.259 A 
ATOM     11  H1  UNL     1      24.371   6.790  10.324  1.00  0.00     0.173 HD
HETATM   12  O1  UNL     1      26.828   6.852  10.596  1.00  0.00    -0.267 OA
HETATM   13  C9  UNL     1      26.711   9.061   9.928  1.00  0.00     0.049 A 
HETATM   14  C8  UNL     1      25.917  10.104   9.497  1.00  0.00     0.113 A 
BRANCH  13  15
HETATM   15  C10 UNL     1      28.179   9.121  10.041  1.00  0.00     0.210 C 
BRANCH  15  16
HETATM   16  O9  UNL     1      28.531   8.913  11.412  1.00  0.00    -0.396 OA
ATOM     17  H9  UNL     1      28.895   8.039  11.496  1.00  0.00     0.209 HD
ENDBRANCH  15  16
ENDBRANCH  13  15
ENDBRANCH   1   6
BRANCH   3  18
HETATM   18  O3  UNL     1      21.568  12.697   9.000  1.00  0.00    -0.393 OA
ATOM     19  H3  UNL     1      21.350  12.782   9.921  1.00  0.00     0.210 HD
ENDBRANCH   3  18
BRANCH   4  20
HETATM   20  C7  UNL     1      24.411  13.718   7.002  1.00  0.00     0.217 C 
BRANCH  20  21
HETATM   21  O4  UNL     1      24.406  14.743   7.929  1.00  0.00    -0.280 OA
BRANCH  21  22
HETATM   22  P1  UNL     1      25.856  15.581   7.969  1.00  0.00     0.422 P 
HETATM   23  O5  UNL     1      25.520  16.132   6.591  1.00  0.00    -0.617 OA
HETATM   24  O6  UNL     1      25.820  15.334   9.541  1.00  0.00    -0.617 OA
HETATM   25  O7  UNL     1      27.226  14.822   7.702  1.00  0.00    -0.617 OA
ENDBRANCH  21  22
ENDBRANCH  20  21
ENDBRANCH   4  20
TORSDOF 7
ENDMDL
