MODEL 1
REMARK VINA RESULT: -9.232425538      0.000      0.000
REMARK  7 active torsions:
REMARK  status: ('A' for Active; 'I' for Inactive)
REMARK    1  A    between atoms: N2_7  and  C3_8 
REMARK    2  A    between atoms: C5_10  and  O3_11 
REMARK    3  A    between atoms: C6_13  and  C7_14 
REMARK    4  A    between atoms: C7_14  and  O4_15 
REMARK    5  A    between atoms: O4_15  and  P1_16 
REMARK    6  A    between atoms: C9_22  and  C10_23 
REMARK    7  A    between atoms: C10_23  and  O9_24 
ROOT
HETATM    1  C3  UNL     1      23.660  11.010   8.811  1.00  0.00     0.235 C 
HETATM    2  C4  UNL     1      23.672  12.250   9.683  1.00  0.00     0.088 C 
HETATM    3  C5  UNL     1      22.860  13.184   8.793  1.00  0.00     0.153 C 
HETATM    4  C6  UNL     1      23.392  12.738   7.459  1.00  0.00     0.177 C 
HETATM    5  O8  UNL     1      23.994  11.548   7.549  1.00  0.00    -0.356 OA
ENDROOT
BRANCH   1   6
HETATM    6  N2  UNL     1      24.560  10.030   9.294  1.00  0.00    -0.282 N 
HETATM    7  C2  UNL     1      24.059   8.848   9.685  1.00  0.00     0.331 A 
HETATM    8  N1  UNL     1      24.776   7.796  10.095  1.00  0.00    -0.275 N 
HETATM    9  O2  UNL     1      22.788   8.679   9.666  1.00  0.00    -0.246 OA
HETATM   10  C1  UNL     1      26.082   7.924  10.130  1.00  0.00     0.259 A 
ATOM     11  H1  UNL     1      24.323   6.924  10.371  1.00  0.00     0.173 HD
HETATM   12  O1  UNL     1      26.791   6.952  10.508  1.00  0.00    -0.267 OA
HETATM   13  C9  UNL     1      26.674   9.133   9.756  1.00  0.00     0.049 A 
HETATM   14  C8  UNL     1      25.874  10.173   9.326  1.00  0.00     0.113 A 
BRANCH  13  15
HETATM   15  C10 UNL     1      28.147   9.171   9.788  1.00  0.00     0.210 C 
BRANCH  15  16
HETATM   16  O9  UNL     1      28.569   9.047  11.150  1.00  0.00    -0.396 OA
ATOM     17  H9  UNL     1      29.462   9.366  11.215  1.00  0.00     0.209 HD
ENDBRANCH  15  16
ENDBRANCH  13  15
ENDBRANCH   1   6
BRANCH   3  18
HETATM   18  O3  UNL     1      21.513  12.783   8.939  1.00  0.00    -0.393 OA
ATOM     19  H3  UNL     1      21.534  11.842   9.067  1.00  0.00     0.210 HD
ENDBRANCH   3  18
BRANCH   4  20
HETATM   20  C7  UNL     1      24.317  13.784   6.877  1.00  0.00     0.217 C 
BRANCH  20  21
HETATM   21  O4  UNL     1      25.547  13.556   7.464  1.00  0.00    -0.280 OA
BRANCH  21  22
HETATM   22  P1  UNL     1      26.171  14.924   8.201  1.00  0.00     0.422 P 
HETATM   23  O5  UNL     1      27.199  14.032   8.880  1.00  0.00    -0.617 OA
HETATM   24  O6  UNL     1      25.396  15.740   7.074  1.00  0.00    -0.617 OA
HETATM   25  O7  UNL     1      25.422  15.578   9.440  1.00  0.00    -0.617 OA
ENDBRANCH  21  22
ENDBRANCH  20  21
ENDBRANCH   4  20
TORSDOF 7
ENDMDL
