MODEL 13
REMARK VINA RESULT: -8.562910814      1.582      2.480
REMARK  10 active torsions:
REMARK  status: ('A' for Active; 'I' for Inactive)
REMARK    1  A    between atoms: C3_3  and  O1_4 
REMARK    2  A    between atoms: C7_9  and  C8_10 
REMARK       I    between atoms: C8_10  and  N1_12 
REMARK    3  A    between atoms: N1_12  and  C9_14 
REMARK    4  A    between atoms: C9_14  and  C10_15 
REMARK    5  A    between atoms: C9_14  and  C17_22 
REMARK    6  A    between atoms: C10_15  and  C11_16 
REMARK    7  A    between atoms: C17_22  and  O3_23 
REMARK    8  A    between atoms: C17_22  and  C18_25 
REMARK       I    between atoms: C18_25  and  N2_27 
REMARK    9  A    between atoms: C23_33  and  C24_34 
REMARK       I    between atoms: C24_34  and  N3_36 
REMARK   10  A    between atoms: N3_36  and  C25_38 
ROOT
HETATM    1  C9  UNL     1      15.817  22.454  16.953  1.00  0.00     0.127 C 
ENDROOT
BRANCH   1   2
HETATM    2  N1  UNL     1      14.813  21.836  17.816  1.00  0.00    -0.349 N 
HETATM    3  C8  UNL     1      15.035  20.596  18.417  1.00  0.00     0.252 C 
HETATM    4  O2  UNL     1      16.179  20.060  18.135  1.00  0.00    -0.268 OA
ATOM      5  H1  UNL     1      13.930  22.321  17.982  1.00  0.00     0.163 HD
BRANCH   3   6
HETATM    6  C7  UNL     1      14.195  19.833  19.288  1.00  0.00     0.040 A 
HETATM    7  C2  UNL     1      12.982  19.322  18.976  1.00  0.00    -0.013 A 
HETATM    8  C1  UNL     1      12.331  19.616  17.695  1.00  0.00     0.052 C 
HETATM    9  C3  UNL     1      12.272  18.528  19.888  1.00  0.00     0.072 A 
HETATM   10  C4  UNL     1      12.771  18.237  21.126  1.00  0.00     0.037 A 
HETATM   11  C5  UNL     1      14.008  18.750  21.467  1.00  0.00     0.004 A 
HETATM   12  C6  UNL     1      14.698  19.529  20.563  1.00  0.00     0.018 A 
BRANCH   9  13
HETATM   13  O1  UNL     1      11.033  18.020  19.532  1.00  0.00    -0.360 OA
ATOM     14  H1  UNL     1      10.975  17.157  19.137  1.00  0.00     0.217 HD
ENDBRANCH   9  13
ENDBRANCH   3   6
ENDBRANCH   1   2
BRANCH   1  15
HETATM   15  C10 UNL     1      15.732  21.847  15.564  1.00  0.00     0.066 C 
BRANCH  15  16
HETATM   16  C11 UNL     1      14.388  21.579  15.089  1.00  0.00    -0.056 A 
HETATM   17  C12 UNL     1      14.106  20.344  14.529  1.00  0.00     0.007 A 
HETATM   18  C13 UNL     1      12.834  20.042  14.047  1.00  0.00     0.001 A 
HETATM   19  C14 UNL     1      11.835  20.977  14.124  1.00  0.00     0.000 A 
HETATM   20  C15 UNL     1      12.132  22.211  14.688  1.00  0.00     0.001 A 
HETATM   21  C16 UNL     1      13.398  22.521  15.170  1.00  0.00     0.007 A 
ENDBRANCH  15  16
ENDBRANCH   1  15
BRANCH   1  22
HETATM   22  C17 UNL     1      15.749  23.960  16.957  1.00  0.00     0.233 C 
BRANCH  22  23
HETATM   23  O3  UNL     1      15.921  24.460  15.660  1.00  0.00    -0.384 OA
ATOM     24  H3  UNL     1      15.908  25.410  15.667  1.00  0.00     0.210 HD
ENDBRANCH  22  23
BRANCH  22  25
HETATM   25  C18 UNL     1      16.647  24.593  17.935  1.00  0.00     0.252 C 
HETATM   26  O4  UNL     1      16.212  25.533  18.663  1.00  0.00    -0.270 OA
HETATM   27  N2  UNL     1      18.002  24.214  18.128  1.00  0.00    -0.326 N 
HETATM   28  C19 UNL     1      18.612  23.128  17.385  1.00  0.00     0.201 C 
HETATM   29  C23 UNL     1      18.946  24.823  19.057  1.00  0.00     0.198 C 
HETATM   30  S1  UNL     1      19.695  22.424  18.712  1.00  0.00    -0.137 SA
HETATM   31  C20 UNL     1      19.288  23.689  19.944  1.00  0.00     0.032 C 
HETATM   32  C21 UNL     1      20.327  23.875  20.978  1.00  0.00     0.029 C 
HETATM   33  C22 UNL     1      17.969  23.220  20.585  1.00  0.00     0.029 C 
BRANCH  29  34
HETATM   34  C24 UNL     1      19.999  25.433  18.260  1.00  0.00     0.242 C 
HETATM   35  O5  UNL     1      21.211  25.321  18.661  1.00  0.00    -0.271 OA
HETATM   36  N3  UNL     1      19.788  26.157  17.050  1.00  0.00    -0.351 N 
ATOM     37  H3  UNL     1      18.848  26.282  16.677  1.00  0.00     0.163 HD
BRANCH  36  38
HETATM   38  C25 UNL     1      20.934  26.710  16.362  1.00  0.00     0.022 C 
HETATM   39  C26 UNL     1      21.772  27.518  17.323  1.00  0.00     0.037 C 
HETATM   40  C27 UNL     1      20.448  27.681  15.293  1.00  0.00     0.037 C 
HETATM   41  C28 UNL     1      21.782  25.674  15.688  1.00  0.00     0.037 C 
ENDBRANCH  36  38
ENDBRANCH  29  34
ENDBRANCH  22  25
ENDBRANCH   1  22
TORSDOF 10
ENDMDL
