MODEL 1
REMARK VINA RESULT: -9.586948444      0.000      0.000
REMARK  10 active torsions:
REMARK  status: ('A' for Active; 'I' for Inactive)
REMARK    1  A    between atoms: C3_3  and  O1_4 
REMARK    2  A    between atoms: C7_9  and  C8_10 
REMARK       I    between atoms: C8_10  and  N1_12 
REMARK    3  A    between atoms: N1_12  and  C9_14 
REMARK    4  A    between atoms: C9_14  and  C10_15 
REMARK    5  A    between atoms: C9_14  and  C17_22 
REMARK    6  A    between atoms: C10_15  and  C11_16 
REMARK    7  A    between atoms: C17_22  and  O3_23 
REMARK    8  A    between atoms: C17_22  and  C18_25 
REMARK       I    between atoms: C18_25  and  N2_27 
REMARK    9  A    between atoms: C23_33  and  C24_34 
REMARK       I    between atoms: C24_34  and  N3_36 
REMARK   10  A    between atoms: N3_36  and  C25_38 
ROOT
HETATM    1  C9  UNL     1      15.655  22.051  17.807  1.00  0.00     0.127 C 
ENDROOT
BRANCH   1   2
HETATM    2  N1  UNL     1      14.476  21.362  18.326  1.00  0.00    -0.349 N 
HETATM    3  C8  UNL     1      14.385  19.969  18.314  1.00  0.00     0.252 C 
HETATM    4  O2  UNL     1      15.411  19.368  17.804  1.00  0.00    -0.268 OA
ATOM      5  H1  UNL     1      13.703  21.910  18.705  1.00  0.00     0.163 HD
BRANCH   3   6
HETATM    6  C7  UNL     1      13.335  19.112  18.774  1.00  0.00     0.040 A 
HETATM    7  C2  UNL     1      13.269  18.514  19.985  1.00  0.00    -0.013 A 
HETATM    8  C1  UNL     1      14.377  18.596  20.943  1.00  0.00     0.052 C 
HETATM    9  C3  UNL     1      12.156  17.747  20.357  1.00  0.00     0.072 A 
HETATM   10  C4  UNL     1      11.094  17.570  19.516  1.00  0.00     0.037 A 
HETATM   11  C5  UNL     1      11.140  18.171  18.272  1.00  0.00     0.004 A 
HETATM   12  C6  UNL     1      12.238  18.922  17.917  1.00  0.00     0.018 A 
BRANCH   9  13
HETATM   13  O1  UNL     1      12.123  17.151  21.608  1.00  0.00    -0.360 OA
ATOM     14  H1  UNL     1      11.332  17.204  22.132  1.00  0.00     0.217 HD
ENDBRANCH   9  13
ENDBRANCH   3   6
ENDBRANCH   1   2
BRANCH   1  15
HETATM   15  C10 UNL     1      15.218  23.154  16.858  1.00  0.00     0.066 C 
BRANCH  15  16
HETATM   16  C11 UNL     1      14.652  22.699  15.603  1.00  0.00    -0.056 A 
HETATM   17  C12 UNL     1      15.434  21.940  14.748  1.00  0.00     0.007 A 
HETATM   18  C13 UNL     1      14.941  21.489  13.525  1.00  0.00     0.001 A 
HETATM   19  C14 UNL     1      13.659  21.796  13.151  1.00  0.00     0.000 A 
HETATM   20  C15 UNL     1      12.886  22.557  14.017  1.00  0.00     0.001 A 
HETATM   21  C16 UNL     1      13.370  23.012  15.238  1.00  0.00     0.007 A 
ENDBRANCH  15  16
ENDBRANCH   1  15
BRANCH   1  22
HETATM   22  C17 UNL     1      16.584  22.526  18.895  1.00  0.00     0.233 C 
BRANCH  22  23
HETATM   23  O3  UNL     1      16.006  22.321  20.154  1.00  0.00    -0.384 OA
ATOM     24  H3  UNL     1      16.638  22.500  20.841  1.00  0.00     0.210 HD
ENDBRANCH  22  23
BRANCH  22  25
HETATM   25  C18 UNL     1      17.064  23.904  18.707  1.00  0.00     0.252 C 
HETATM   26  O4  UNL     1      16.346  24.872  19.092  1.00  0.00    -0.270 OA
HETATM   27  N2  UNL     1      18.309  24.234  18.109  1.00  0.00    -0.326 N 
HETATM   28  C19 UNL     1      19.242  23.219  17.659  1.00  0.00     0.201 C 
HETATM   29  C23 UNL     1      18.824  25.577  17.869  1.00  0.00     0.198 C 
HETATM   30  S1  UNL     1      20.835  24.049  18.107  1.00  0.00    -0.137 SA
HETATM   31  C20 UNL     1      20.064  25.587  18.677  1.00  0.00     0.032 C 
HETATM   32  C21 UNL     1      20.953  26.765  18.611  1.00  0.00     0.029 C 
HETATM   33  C22 UNL     1      19.641  25.312  20.132  1.00  0.00     0.029 C 
BRANCH  29  34
HETATM   34  C24 UNL     1      18.924  25.746  16.427  1.00  0.00     0.242 C 
HETATM   35  O5  UNL     1      18.019  25.222  15.687  1.00  0.00    -0.271 OA
HETATM   36  N3  UNL     1      19.964  26.458  15.762  1.00  0.00    -0.351 N 
ATOM     37  H3  UNL     1      20.714  26.899  16.293  1.00  0.00     0.163 HD
BRANCH  36  38
HETATM   38  C25 UNL     1      19.934  26.544  14.318  1.00  0.00     0.022 C 
HETATM   39  C26 UNL     1      20.217  25.190  13.715  1.00  0.00     0.037 C 
HETATM   40  C27 UNL     1      21.057  27.465  13.854  1.00  0.00     0.037 C 
HETATM   41  C28 UNL     1      18.645  27.086  13.780  1.00  0.00     0.037 C 
ENDBRANCH  36  38
ENDBRANCH  29  34
ENDBRANCH  22  25
ENDBRANCH   1  22
TORSDOF 10
ENDMDL
