MODEL 2
REMARK VINA RESULT: -9.527657217      1.280      1.721
REMARK  10 active torsions:
REMARK  status: ('A' for Active; 'I' for Inactive)
REMARK    1  A    between atoms: C3_3  and  O1_4 
REMARK    2  A    between atoms: C7_9  and  C8_10 
REMARK       I    between atoms: C8_10  and  N1_12 
REMARK    3  A    between atoms: N1_12  and  C9_14 
REMARK    4  A    between atoms: C9_14  and  C10_15 
REMARK    5  A    between atoms: C9_14  and  C17_22 
REMARK    6  A    between atoms: C10_15  and  C11_16 
REMARK    7  A    between atoms: C17_22  and  O3_23 
REMARK    8  A    between atoms: C17_22  and  C18_25 
REMARK       I    between atoms: C18_25  and  N2_27 
REMARK    9  A    between atoms: C23_33  and  C24_34 
REMARK       I    between atoms: C24_34  and  N3_36 
REMARK   10  A    between atoms: N3_36  and  C25_38 
ROOT
HETATM    1  C9  UNL     1      15.170  22.343  17.347  1.00  0.00     0.127 C 
ENDROOT
BRANCH   1   2
HETATM    2  N1  UNL     1      14.109  21.342  17.429  1.00  0.00    -0.349 N 
HETATM    3  C8  UNL     1      14.093  20.381  18.442  1.00  0.00     0.252 C 
HETATM    4  O2  UNL     1      15.086  20.456  19.269  1.00  0.00    -0.268 OA
ATOM      5  H1  UNL     1      13.365  21.344  16.731  1.00  0.00     0.163 HD
BRANCH   3   6
HETATM    6  C7  UNL     1      13.155  19.332  18.699  1.00  0.00     0.040 A 
HETATM    7  C2  UNL     1      12.142  18.954  17.887  1.00  0.00    -0.013 A 
HETATM    8  C1  UNL     1      11.821  19.696  16.663  1.00  0.00     0.052 C 
HETATM    9  C3  UNL     1      11.321  17.863  18.208  1.00  0.00     0.072 A 
HETATM   10  C4  UNL     1      11.508  17.137  19.350  1.00  0.00     0.037 A 
HETATM   11  C5  UNL     1      12.537  17.506  20.196  1.00  0.00     0.004 A 
HETATM   12  C6  UNL     1      13.337  18.579  19.871  1.00  0.00     0.018 A 
BRANCH   9  13
HETATM   13  O1  UNL     1      10.294  17.504  17.350  1.00  0.00    -0.360 OA
ATOM     14  H1  UNL     1       9.396  17.522  17.659  1.00  0.00     0.217 HD
ENDBRANCH   9  13
ENDBRANCH   3   6
ENDBRANCH   1   2
BRANCH   1  15
HETATM   15  C10 UNL     1      14.953  23.209  16.119  1.00  0.00     0.066 C 
BRANCH  15  16
HETATM   16  C11 UNL     1      14.464  22.507  14.948  1.00  0.00    -0.056 A 
HETATM   17  C12 UNL     1      15.360  21.797  14.167  1.00  0.00     0.007 A 
HETATM   18  C13 UNL     1      14.943  21.115  13.025  1.00  0.00     0.001 A 
HETATM   19  C14 UNL     1      13.623  21.141  12.658  1.00  0.00     0.000 A 
HETATM   20  C15 UNL     1      12.736  21.858  13.450  1.00  0.00     0.001 A 
HETATM   21  C16 UNL     1      13.143  22.541  14.590  1.00  0.00     0.007 A 
ENDBRANCH  15  16
ENDBRANCH   1  15
BRANCH   1  22
HETATM   22  C17 UNL     1      15.330  23.133  18.621  1.00  0.00     0.233 C 
BRANCH  22  23
HETATM   23  O3  UNL     1      14.086  23.594  19.070  1.00  0.00    -0.384 OA
ATOM     24  H3  UNL     1      14.142  23.866  19.979  1.00  0.00     0.210 HD
ENDBRANCH  22  23
BRANCH  22  25
HETATM   25  C18 UNL     1      16.336  24.203  18.533  1.00  0.00     0.252 C 
HETATM   26  O4  UNL     1      15.987  25.404  18.732  1.00  0.00    -0.270 OA
HETATM   27  N2  UNL     1      17.707  23.981  18.234  1.00  0.00    -0.326 N 
HETATM   28  C19 UNL     1      18.243  22.650  18.022  1.00  0.00     0.201 C 
HETATM   29  C23 UNL     1      18.740  25.001  18.104  1.00  0.00     0.198 C 
HETATM   30  S1  UNL     1      19.902  22.861  18.817  1.00  0.00    -0.137 SA
HETATM   31  C20 UNL     1      19.688  24.624  19.176  1.00  0.00     0.032 C 
HETATM   32  C21 UNL     1      20.958  25.369  19.303  1.00  0.00     0.029 C 
HETATM   33  C22 UNL     1      18.899  24.675  20.498  1.00  0.00     0.029 C 
BRANCH  29  34
HETATM   34  C24 UNL     1      19.195  24.975  16.722  1.00  0.00     0.242 C 
HETATM   35  O5  UNL     1      18.713  24.085  15.938  1.00  0.00    -0.271 OA
HETATM   36  N3  UNL     1      20.149  25.875  16.164  1.00  0.00    -0.351 N 
ATOM     37  H3  UNL     1      20.571  26.607  16.735  1.00  0.00     0.163 HD
BRANCH  36  38
HETATM   38  C25 UNL     1      20.508  25.730  14.770  1.00  0.00     0.022 C 
HETATM   39  C26 UNL     1      21.405  24.529  14.591  1.00  0.00     0.037 C 
HETATM   40  C27 UNL     1      21.323  26.944  14.340  1.00  0.00     0.037 C 
HETATM   41  C28 UNL     1      19.324  25.627  13.858  1.00  0.00     0.037 C 
ENDBRANCH  36  38
ENDBRANCH  29  34
ENDBRANCH  22  25
ENDBRANCH   1  22
TORSDOF 10
ENDMDL
