MODEL 7
REMARK VINA RESULT: -8.949763056      2.279      4.926
REMARK  10 active torsions:
REMARK  status: ('A' for Active; 'I' for Inactive)
REMARK    1  A    between atoms: C3_3  and  O1_4 
REMARK    2  A    between atoms: C7_9  and  C8_10 
REMARK       I    between atoms: C8_10  and  N1_12 
REMARK    3  A    between atoms: N1_12  and  C9_14 
REMARK    4  A    between atoms: C9_14  and  C10_15 
REMARK    5  A    between atoms: C9_14  and  C17_22 
REMARK    6  A    between atoms: C10_15  and  C11_16 
REMARK    7  A    between atoms: C17_22  and  O3_23 
REMARK    8  A    between atoms: C17_22  and  C18_25 
REMARK       I    between atoms: C18_25  and  N2_27 
REMARK    9  A    between atoms: C23_33  and  C24_34 
REMARK       I    between atoms: C24_34  and  N3_36 
REMARK   10  A    between atoms: N3_36  and  C25_38 
ROOT
HETATM    1  C9  UNL     1      15.593  21.958  18.497  1.00  0.00     0.127 C 
ENDROOT
BRANCH   1   2
HETATM    2  N1  UNL     1      15.274  21.191  17.295  1.00  0.00    -0.349 N 
HETATM    3  C8  UNL     1      14.457  21.718  16.293  1.00  0.00     0.252 C 
HETATM    4  O2  UNL     1      14.015  22.911  16.532  1.00  0.00    -0.268 OA
ATOM      5  H1  UNL     1      15.657  20.252  17.185  1.00  0.00     0.163 HD
BRANCH   3   6
HETATM    6  C7  UNL     1      14.034  21.141  15.054  1.00  0.00     0.040 A 
HETATM    7  C2  UNL     1      12.877  20.474  14.841  1.00  0.00    -0.013 A 
HETATM    8  C1  UNL     1      11.958  20.160  15.940  1.00  0.00     0.052 C 
HETATM    9  C3  UNL     1      12.531  20.007  13.564  1.00  0.00     0.072 A 
HETATM   10  C4  UNL     1      13.344  20.207  12.484  1.00  0.00     0.037 A 
HETATM   11  C5  UNL     1      14.532  20.885  12.678  1.00  0.00     0.004 A 
HETATM   12  C6  UNL     1      14.862  21.338  13.936  1.00  0.00     0.018 A 
BRANCH   9  13
HETATM   13  O1  UNL     1      11.336  19.329  13.384  1.00  0.00    -0.360 OA
ATOM     14  H1  UNL     1      11.039  18.718  14.048  1.00  0.00     0.217 HD
ENDBRANCH   9  13
ENDBRANCH   3   6
ENDBRANCH   1   2
BRANCH   1  15
HETATM   15  C10 UNL     1      14.584  21.635  19.585  1.00  0.00     0.066 C 
BRANCH  15  16
HETATM   16  C11 UNL     1      14.320  20.222  19.781  1.00  0.00    -0.056 A 
HETATM   17  C12 UNL     1      14.762  19.611  20.941  1.00  0.00     0.007 A 
HETATM   18  C13 UNL     1      14.545  18.253  21.171  1.00  0.00     0.001 A 
HETATM   19  C14 UNL     1      13.882  17.500  20.238  1.00  0.00     0.000 A 
HETATM   20  C15 UNL     1      13.445  18.127  19.078  1.00  0.00     0.001 A 
HETATM   21  C16 UNL     1      13.658  19.479  18.841  1.00  0.00     0.007 A 
ENDBRANCH  15  16
ENDBRANCH   1  15
BRANCH   1  22
HETATM   22  C17 UNL     1      17.026  21.793  18.936  1.00  0.00     0.233 C 
BRANCH  22  23
HETATM   23  O3  UNL     1      17.248  22.469  20.142  1.00  0.00    -0.384 OA
ATOM     24  H3  UNL     1      18.163  22.713  20.221  1.00  0.00     0.210 HD
ENDBRANCH  22  23
BRANCH  22  25
HETATM   25  C18 UNL     1      18.009  22.141  17.899  1.00  0.00     0.252 C 
HETATM   26  O4  UNL     1      18.692  21.225  17.354  1.00  0.00    -0.270 OA
HETATM   27  N2  UNL     1      18.254  23.467  17.451  1.00  0.00    -0.326 N 
HETATM   28  C19 UNL     1      17.513  24.603  17.966  1.00  0.00     0.201 C 
HETATM   29  C23 UNL     1      19.233  23.875  16.452  1.00  0.00     0.198 C 
HETATM   30  S1  UNL     1      17.378  25.605  16.415  1.00  0.00    -0.137 SA
HETATM   31  C20 UNL     1      18.380  24.482  15.406  1.00  0.00     0.032 C 
HETATM   32  C21 UNL     1      19.022  25.131  14.245  1.00  0.00     0.029 C 
HETATM   33  C22 UNL     1      17.409  23.382  14.940  1.00  0.00     0.029 C 
BRANCH  29  34
HETATM   34  C24 UNL     1      20.214  24.710  17.130  1.00  0.00     0.242 C 
HETATM   35  O5  UNL     1      20.646  24.335  18.276  1.00  0.00    -0.271 OA
HETATM   36  N3  UNL     1      20.740  25.930  16.613  1.00  0.00    -0.351 N 
ATOM     37  H3  UNL     1      20.437  26.284  15.706  1.00  0.00     0.163 HD
BRANCH  36  38
HETATM   38  C25 UNL     1      21.712  26.656  17.401  1.00  0.00     0.022 C 
HETATM   39  C26 UNL     1      21.056  27.218  18.639  1.00  0.00     0.037 C 
HETATM   40  C27 UNL     1      22.207  27.852  16.595  1.00  0.00     0.037 C 
HETATM   41  C28 UNL     1      22.906  25.834  17.780  1.00  0.00     0.037 C 
ENDBRANCH  36  38
ENDBRANCH  29  34
ENDBRANCH  22  25
ENDBRANCH   1  22
TORSDOF 10
ENDMDL
