MODEL 6
REMARK VINA RESULT: -9.031457528      2.980      8.873
REMARK  10 active torsions:
REMARK  status: ('A' for Active; 'I' for Inactive)
REMARK    1  A    between atoms: C3_3  and  O1_4 
REMARK    2  A    between atoms: C7_9  and  C8_10 
REMARK       I    between atoms: C8_10  and  N1_12 
REMARK    3  A    between atoms: N1_12  and  C9_14 
REMARK    4  A    between atoms: C9_14  and  C10_15 
REMARK    5  A    between atoms: C9_14  and  C17_22 
REMARK    6  A    between atoms: C10_15  and  C11_16 
REMARK    7  A    between atoms: C17_22  and  O3_23 
REMARK    8  A    between atoms: C17_22  and  C18_25 
REMARK       I    between atoms: C18_25  and  N2_27 
REMARK    9  A    between atoms: C23_33  and  C24_34 
REMARK       I    between atoms: C24_34  and  N3_36 
REMARK   10  A    between atoms: N3_36  and  C25_38 
ROOT
HETATM    1  C9  UNL     1      19.046  24.909  18.283  1.00  0.00     0.127 C 
ENDROOT
BRANCH   1   2
HETATM    2  N1  UNL     1      20.455  24.541  18.395  1.00  0.00    -0.349 N 
HETATM    3  C8  UNL     1      21.394  25.420  18.940  1.00  0.00     0.252 C 
HETATM    4  O2  UNL     1      20.908  26.560  19.314  1.00  0.00    -0.268 OA
ATOM      5  H1  UNL     1      20.760  23.624  18.068  1.00  0.00     0.163 HD
BRANCH   3   6
HETATM    6  C7  UNL     1      22.800  25.253  19.142  1.00  0.00     0.040 A 
HETATM    7  C2  UNL     1      23.783  25.839  18.421  1.00  0.00    -0.013 A 
HETATM    8  C1  UNL     1      23.485  26.645  17.232  1.00  0.00     0.052 C 
HETATM    9  C3  UNL     1      25.133  25.659  18.750  1.00  0.00     0.072 A 
HETATM   10  C4  UNL     1      25.515  24.886  19.810  1.00  0.00     0.037 A 
HETATM   11  C5  UNL     1      24.528  24.276  20.561  1.00  0.00     0.004 A 
HETATM   12  C6  UNL     1      23.205  24.460  20.229  1.00  0.00     0.018 A 
BRANCH   9  13
HETATM   13  O1  UNL     1      26.112  26.277  17.989  1.00  0.00    -0.360 OA
ATOM     14  H1  UNL     1      26.894  26.612  18.412  1.00  0.00     0.217 HD
ENDBRANCH   9  13
ENDBRANCH   3   6
ENDBRANCH   1   2
BRANCH   1  15
HETATM   15  C10 UNL     1      18.639  24.910  16.819  1.00  0.00     0.066 C 
BRANCH  15  16
HETATM   16  C11 UNL     1      19.584  25.541  15.918  1.00  0.00    -0.056 A 
HETATM   17  C12 UNL     1      19.712  26.919  15.935  1.00  0.00     0.007 A 
HETATM   18  C13 UNL     1      20.597  27.574  15.079  1.00  0.00     0.001 A 
HETATM   19  C14 UNL     1      21.360  26.851  14.202  1.00  0.00     0.000 A 
HETATM   20  C15 UNL     1      21.221  25.468  14.195  1.00  0.00     0.001 A 
HETATM   21  C16 UNL     1      20.341  24.808  15.044  1.00  0.00     0.007 A 
ENDBRANCH  15  16
ENDBRANCH   1  15
BRANCH   1  22
HETATM   22  C17 UNL     1      18.149  24.069  19.156  1.00  0.00     0.233 C 
BRANCH  22  23
HETATM   23  O3  UNL     1      18.674  23.979  20.452  1.00  0.00    -0.384 OA
ATOM     24  H3  UNL     1      18.017  23.647  21.053  1.00  0.00     0.210 HD
ENDBRANCH  22  23
BRANCH  22  25
HETATM   25  C18 UNL     1      17.823  22.754  18.582  1.00  0.00     0.252 C 
HETATM   26  O4  UNL     1      18.732  21.882  18.466  1.00  0.00    -0.270 OA
HETATM   27  N2  UNL     1      16.525  22.383  18.138  1.00  0.00    -0.326 N 
HETATM   28  C19 UNL     1      15.387  23.276  18.251  1.00  0.00     0.201 C 
HETATM   29  C23 UNL     1      16.149  21.110  17.535  1.00  0.00     0.198 C 
HETATM   30  S1  UNL     1      14.070  22.039  18.654  1.00  0.00    -0.137 SA
HETATM   31  C20 UNL     1      15.149  20.592  18.495  1.00  0.00     0.032 C 
HETATM   32  C21 UNL     1      14.432  19.340  18.177  1.00  0.00     0.029 C 
HETATM   33  C22 UNL     1      15.866  20.471  19.853  1.00  0.00     0.029 C 
BRANCH  29  34
HETATM   34  C24 UNL     1      15.732  21.390  16.169  1.00  0.00     0.242 C 
HETATM   35  O5  UNL     1      16.466  22.158  15.453  1.00  0.00    -0.271 OA
HETATM   36  N3  UNL     1      14.555  20.872  15.556  1.00  0.00    -0.351 N 
ATOM     37  H3  UNL     1      13.928  20.255  16.072  1.00  0.00     0.163 HD
BRANCH  36  38
HETATM   38  C25 UNL     1      14.266  21.237  14.186  1.00  0.00     0.022 C 
HETATM   39  C26 UNL     1      13.173  22.277  14.150  1.00  0.00     0.037 C 
HETATM   40  C27 UNL     1      13.724  20.016  13.452  1.00  0.00     0.037 C 
HETATM   41  C28 UNL     1      15.466  21.727  13.435  1.00  0.00     0.037 C 
ENDBRANCH  36  38
ENDBRANCH  29  34
ENDBRANCH  22  25
ENDBRANCH   1  22
TORSDOF 10
ENDMDL
