MODEL 8
REMARK VINA RESULT: -8.916257956      3.199      8.663
REMARK  10 active torsions:
REMARK  status: ('A' for Active; 'I' for Inactive)
REMARK    1  A    between atoms: C3_3  and  O1_4 
REMARK    2  A    between atoms: C7_9  and  C8_10 
REMARK       I    between atoms: C8_10  and  N1_12 
REMARK    3  A    between atoms: N1_12  and  C9_14 
REMARK    4  A    between atoms: C9_14  and  C10_15 
REMARK    5  A    between atoms: C9_14  and  C17_22 
REMARK    6  A    between atoms: C10_15  and  C11_16 
REMARK    7  A    between atoms: C17_22  and  O3_23 
REMARK    8  A    between atoms: C17_22  and  C18_25 
REMARK       I    between atoms: C18_25  and  N2_27 
REMARK    9  A    between atoms: C23_33  and  C24_34 
REMARK       I    between atoms: C24_34  and  N3_36 
REMARK   10  A    between atoms: N3_36  and  C25_38 
ROOT
HETATM    1  C9  UNL     1      19.690  24.603  18.015  1.00  0.00     0.127 C 
ENDROOT
BRANCH   1   2
HETATM    2  N1  UNL     1      20.992  24.245  18.572  1.00  0.00    -0.349 N 
HETATM    3  C8  UNL     1      21.870  25.220  19.051  1.00  0.00     0.252 C 
HETATM    4  O2  UNL     1      21.434  26.434  18.945  1.00  0.00    -0.268 OA
ATOM      5  H1  UNL     1      21.266  23.263  18.612  1.00  0.00     0.163 HD
BRANCH   3   6
HETATM    6  C7  UNL     1      23.170  25.080  19.632  1.00  0.00     0.040 A 
HETATM    7  C2  UNL     1      23.438  24.699  20.902  1.00  0.00    -0.013 A 
HETATM    8  C1  UNL     1      22.367  24.500  21.884  1.00  0.00     0.052 C 
HETATM    9  C3  UNL     1      24.756  24.529  21.348  1.00  0.00     0.072 A 
HETATM   10  C4  UNL     1      25.824  24.738  20.522  1.00  0.00     0.037 A 
HETATM   11  C5  UNL     1      25.575  25.129  19.220  1.00  0.00     0.004 A 
HETATM   12  C6  UNL     1      24.276  25.294  18.793  1.00  0.00     0.018 A 
BRANCH   9  13
HETATM   13  O1  UNL     1      24.991  24.136  22.655  1.00  0.00    -0.360 OA
ATOM     14  H1  UNL     1      25.155  24.794  23.321  1.00  0.00     0.217 HD
ENDBRANCH   9  13
ENDBRANCH   3   6
ENDBRANCH   1   2
BRANCH   1  15
HETATM   15  C10 UNL     1      19.648  24.223  16.545  1.00  0.00     0.066 C 
BRANCH  15  16
HETATM   16  C11 UNL     1      19.928  25.306  15.621  1.00  0.00    -0.056 A 
HETATM   17  C12 UNL     1      21.240  25.701  15.427  1.00  0.00     0.007 A 
HETATM   18  C13 UNL     1      21.560  26.744  14.559  1.00  0.00     0.001 A 
HETATM   19  C14 UNL     1      20.566  27.397  13.879  1.00  0.00     0.000 A 
HETATM   20  C15 UNL     1      19.254  26.989  14.084  1.00  0.00     0.001 A 
HETATM   21  C16 UNL     1      18.926  25.951  14.948  1.00  0.00     0.007 A 
ENDBRANCH  15  16
ENDBRANCH   1  15
BRANCH   1  22
HETATM   22  C17 UNL     1      18.538  24.049  18.814  1.00  0.00     0.233 C 
BRANCH  22  23
HETATM   23  O3  UNL     1      18.848  24.045  20.180  1.00  0.00    -0.384 OA
ATOM     24  H3  UNL     1      18.530  24.839  20.594  1.00  0.00     0.210 HD
ENDBRANCH  22  23
BRANCH  22  25
HETATM   25  C18 UNL     1      18.056  22.745  18.335  1.00  0.00     0.252 C 
HETATM   26  O4  UNL     1      18.862  21.771  18.263  1.00  0.00    -0.270 OA
HETATM   27  N2  UNL     1      16.716  22.491  17.938  1.00  0.00    -0.326 N 
HETATM   28  C19 UNL     1      15.686  23.510  18.007  1.00  0.00     0.201 C 
HETATM   29  C23 UNL     1      16.189  21.231  17.428  1.00  0.00     0.198 C 
HETATM   30  S1  UNL     1      14.250  22.456  18.513  1.00  0.00    -0.137 SA
HETATM   31  C20 UNL     1      15.160  20.891  18.436  1.00  0.00     0.032 C 
HETATM   32  C21 UNL     1      14.303  19.708  18.214  1.00  0.00     0.029 C 
HETATM   33  C22 UNL     1      15.891  20.781  19.787  1.00  0.00     0.029 C 
BRANCH  29  34
HETATM   34  C24 UNL     1      15.774  21.466  16.053  1.00  0.00     0.242 C 
HETATM   35  O5  UNL     1      16.514  22.201  15.309  1.00  0.00    -0.271 OA
HETATM   36  N3  UNL     1      14.592  20.936  15.458  1.00  0.00    -0.351 N 
ATOM     37  H3  UNL     1      13.960  20.344  15.996  1.00  0.00     0.163 HD
BRANCH  36  38
HETATM   38  C25 UNL     1      14.306  21.255  14.076  1.00  0.00     0.022 C 
HETATM   39  C26 UNL     1      13.186  22.263  14.001  1.00  0.00     0.037 C 
HETATM   40  C27 UNL     1      13.804  19.999  13.373  1.00  0.00     0.037 C 
HETATM   41  C28 UNL     1      15.499  21.756  13.322  1.00  0.00     0.037 C 
ENDBRANCH  36  38
ENDBRANCH  29  34
ENDBRANCH  22  25
ENDBRANCH   1  22
TORSDOF 10
ENDMDL
