MODEL 10
REMARK VINA RESULT: -9.374606783      2.959      9.284
REMARK  10 active torsions:
REMARK  status: ('A' for Active; 'I' for Inactive)
REMARK    1  A    between atoms: C3_3  and  O1_4 
REMARK    2  A    between atoms: C7_9  and  C8_10 
REMARK       I    between atoms: C8_10  and  N1_12 
REMARK    3  A    between atoms: N1_12  and  C9_14 
REMARK    4  A    between atoms: C9_14  and  C10_15 
REMARK    5  A    between atoms: C9_14  and  C17_22 
REMARK    6  A    between atoms: C10_15  and  C11_16 
REMARK    7  A    between atoms: C17_22  and  O3_23 
REMARK    8  A    between atoms: C17_22  and  C18_25 
REMARK       I    between atoms: C18_25  and  N2_27 
REMARK    9  A    between atoms: C23_33  and  C24_34 
REMARK       I    between atoms: C24_34  and  N3_36 
REMARK   10  A    between atoms: N3_36  and  C25_38 
ROOT
HETATM    1  C9  UNL     1      19.463  24.467  17.847  1.00  0.00     0.127 C 
ENDROOT
BRANCH   1   2
HETATM    2  N1  UNL     1      20.879  24.725  18.101  1.00  0.00    -0.349 N 
HETATM    3  C8  UNL     1      21.437  25.986  17.885  1.00  0.00     0.252 C 
HETATM    4  O2  UNL     1      20.605  26.873  17.441  1.00  0.00    -0.268 OA
ATOM      5  H1  UNL     1      21.471  23.968  18.443  1.00  0.00     0.163 HD
BRANCH   3   6
HETATM    6  C7  UNL     1      22.780  26.441  18.075  1.00  0.00     0.040 A 
HETATM    7  C2  UNL     1      23.621  26.867  17.105  1.00  0.00    -0.013 A 
HETATM    8  C1  UNL     1      23.258  26.787  15.686  1.00  0.00     0.052 C 
HETATM    9  C3  UNL     1      24.897  27.358  17.413  1.00  0.00     0.072 A 
HETATM   10  C4  UNL     1      25.347  27.428  18.701  1.00  0.00     0.037 A 
HETATM   11  C5  UNL     1      24.506  26.997  19.709  1.00  0.00     0.004 A 
HETATM   12  C6  UNL     1      23.254  26.516  19.396  1.00  0.00     0.018 A 
BRANCH   9  13
HETATM   13  O1  UNL     1      25.730  27.788  16.392  1.00  0.00    -0.360 OA
ATOM     14  H1  UNL     1      26.197  28.610  16.482  1.00  0.00     0.217 HD
ENDBRANCH   9  13
ENDBRANCH   3   6
ENDBRANCH   1   2
BRANCH   1  15
HETATM   15  C10 UNL     1      19.316  23.697  16.546  1.00  0.00     0.066 C 
BRANCH  15  16
HETATM   16  C11 UNL     1      19.061  24.513  15.373  1.00  0.00    -0.056 A 
HETATM   17  C12 UNL     1      17.761  24.891  15.087  1.00  0.00     0.007 A 
HETATM   18  C13 UNL     1      17.462  25.663  13.965  1.00  0.00     0.001 A 
HETATM   19  C14 UNL     1      18.467  26.062  13.124  1.00  0.00     0.000 A 
HETATM   20  C15 UNL     1      19.767  25.675  13.423  1.00  0.00     0.001 A 
HETATM   21  C16 UNL     1      20.073  24.905  14.539  1.00  0.00     0.007 A 
ENDBRANCH  15  16
ENDBRANCH   1  15
BRANCH   1  22
HETATM   22  C17 UNL     1      18.767  23.815  19.014  1.00  0.00     0.233 C 
BRANCH  22  23
HETATM   23  O3  UNL     1      19.665  23.615  20.070  1.00  0.00    -0.384 OA
ATOM     24  H3  UNL     1      19.815  22.687  20.206  1.00  0.00     0.210 HD
ENDBRANCH  22  23
BRANCH  22  25
HETATM   25  C18 UNL     1      18.027  22.594  18.658  1.00  0.00     0.252 C 
HETATM   26  O4  UNL     1      18.587  21.467  18.786  1.00  0.00    -0.270 OA
HETATM   27  N2  UNL     1      16.693  22.590  18.169  1.00  0.00    -0.326 N 
HETATM   28  C19 UNL     1      15.925  23.810  18.013  1.00  0.00     0.201 C 
HETATM   29  C23 UNL     1      15.922  21.418  17.773  1.00  0.00     0.198 C 
HETATM   30  S1  UNL     1      14.255  23.184  18.507  1.00  0.00    -0.137 SA
HETATM   31  C20 UNL     1      14.780  21.462  18.713  1.00  0.00     0.032 C 
HETATM   32  C21 UNL     1      13.688  20.479  18.559  1.00  0.00     0.029 C 
HETATM   33  C22 UNL     1      15.376  21.387  20.130  1.00  0.00     0.029 C 
BRANCH  29  34
HETATM   34  C24 UNL     1      15.662  21.539  16.346  1.00  0.00     0.242 C 
HETATM   35  O5  UNL     1      16.662  21.582  15.545  1.00  0.00    -0.271 OA
HETATM   36  N3  UNL     1      14.366  21.615  15.759  1.00  0.00    -0.351 N 
ATOM     37  H3  UNL     1      13.529  21.586  16.341  1.00  0.00     0.163 HD
BRANCH  36  38
HETATM   38  C25 UNL     1      14.260  21.734  14.321  1.00  0.00     0.022 C 
HETATM   39  C26 UNL     1      13.034  22.537  13.959  1.00  0.00     0.037 C 
HETATM   40  C27 UNL     1      14.058  20.347  13.723  1.00  0.00     0.037 C 
HETATM   41  C28 UNL     1      15.474  22.336  13.682  1.00  0.00     0.037 C 
ENDBRANCH  36  38
ENDBRANCH  29  34
ENDBRANCH  22  25
ENDBRANCH   1  22
TORSDOF 10
ENDMDL
