MODEL 8
REMARK VINA RESULT: -9.435864525      2.313      7.586
REMARK  10 active torsions:
REMARK  status: ('A' for Active; 'I' for Inactive)
REMARK    1  A    between atoms: C3_3  and  O1_4 
REMARK    2  A    between atoms: C7_9  and  C8_10 
REMARK       I    between atoms: C8_10  and  N1_12 
REMARK    3  A    between atoms: N1_12  and  C9_14 
REMARK    4  A    between atoms: C9_14  and  C10_15 
REMARK    5  A    between atoms: C9_14  and  C17_22 
REMARK    6  A    between atoms: C10_15  and  C11_16 
REMARK    7  A    between atoms: C17_22  and  O3_23 
REMARK    8  A    between atoms: C17_22  and  C18_25 
REMARK       I    between atoms: C18_25  and  N2_27 
REMARK    9  A    between atoms: C23_33  and  C24_34 
REMARK       I    between atoms: C24_34  and  N3_36 
REMARK   10  A    between atoms: N3_36  and  C25_38 
ROOT
HETATM    1  C9  UNL     1      17.051  24.602  14.622  1.00  0.00     0.127 C 
ENDROOT
BRANCH   1   2
HETATM    2  N1  UNL     1      17.871  24.123  15.732  1.00  0.00    -0.349 N 
HETATM    3  C8  UNL     1      17.801  24.714  16.995  1.00  0.00     0.252 C 
HETATM    4  O2  UNL     1      16.973  25.705  17.078  1.00  0.00    -0.268 OA
ATOM      5  H1  UNL     1      18.508  23.340  15.582  1.00  0.00     0.163 HD
BRANCH   3   6
HETATM    6  C7  UNL     1      18.505  24.396  18.199  1.00  0.00     0.040 A 
HETATM    7  C2  UNL     1      18.197  23.400  19.061  1.00  0.00    -0.013 A 
HETATM    8  C1  UNL     1      16.987  22.589  18.895  1.00  0.00     0.052 C 
HETATM    9  C3  UNL     1      18.999  23.133  20.179  1.00  0.00     0.072 A 
HETATM   10  C4  UNL     1      20.121  23.864  20.448  1.00  0.00     0.037 A 
HETATM   11  C5  UNL     1      20.454  24.889  19.582  1.00  0.00     0.004 A 
HETATM   12  C6  UNL     1      19.660  25.142  18.486  1.00  0.00     0.018 A 
BRANCH   9  13
HETATM   13  O1  UNL     1      18.654  22.102  21.039  1.00  0.00    -0.360 OA
ATOM     14  H1  UNL     1      17.829  22.140  21.509  1.00  0.00     0.217 HD
ENDBRANCH   9  13
ENDBRANCH   3   6
ENDBRANCH   1   2
BRANCH   1  15
HETATM   15  C10 UNL     1      17.947  25.224  13.564  1.00  0.00     0.066 C 
BRANCH  15  16
HETATM   16  C11 UNL     1      19.193  25.776  14.060  1.00  0.00    -0.056 A 
HETATM   17  C12 UNL     1      19.250  27.119  14.389  1.00  0.00     0.007 A 
HETATM   18  C13 UNL     1      20.428  27.700  14.858  1.00  0.00     0.001 A 
HETATM   19  C14 UNL     1      21.556  26.936  14.999  1.00  0.00     0.000 A 
HETATM   20  C15 UNL     1      21.485  25.590  14.664  1.00  0.00     0.001 A 
HETATM   21  C16 UNL     1      20.316  25.003  14.196  1.00  0.00     0.007 A 
ENDBRANCH  15  16
ENDBRANCH   1  15
BRANCH   1  22
HETATM   22  C17 UNL     1      16.123  23.545  14.079  1.00  0.00     0.233 C 
BRANCH  22  23
HETATM   23  O3  UNL     1      15.780  23.833  12.751  1.00  0.00    -0.384 OA
ATOM     24  H3  UNL     1      16.344  23.356  12.153  1.00  0.00     0.210 HD
ENDBRANCH  22  23
BRANCH  22  25
HETATM   25  C18 UNL     1      14.949  23.293  14.928  1.00  0.00     0.252 C 
HETATM   26  O4  UNL     1      14.434  24.248  15.580  1.00  0.00    -0.270 OA
HETATM   27  N2  UNL     1      14.333  22.021  15.072  1.00  0.00    -0.326 N 
HETATM   28  C19 UNL     1      14.801  20.852  14.352  1.00  0.00     0.201 C 
HETATM   29  C23 UNL     1      13.190  21.704  15.920  1.00  0.00     0.198 C 
HETATM   30  S1  UNL     1      13.175  20.035  14.009  1.00  0.00    -0.137 SA
HETATM   31  C20 UNL     1      12.188  21.241  14.934  1.00  0.00     0.032 C 
HETATM   32  C21 UNL     1      10.897  20.713  15.420  1.00  0.00     0.029 C 
HETATM   33  C22 UNL     1      11.959  22.410  13.959  1.00  0.00     0.029 C 
BRANCH  29  34
HETATM   34  C24 UNL     1      13.656  20.775  16.938  1.00  0.00     0.242 C 
HETATM   35  O5  UNL     1      14.894  20.444  16.942  1.00  0.00    -0.271 OA
HETATM   36  N3  UNL     1      12.833  20.193  17.946  1.00  0.00    -0.351 N 
ATOM     37  H3  UNL     1      11.840  20.415  17.998  1.00  0.00     0.163 HD
BRANCH  36  38
HETATM   38  C25 UNL     1      13.436  19.282  18.895  1.00  0.00     0.022 C 
HETATM   39  C26 UNL     1      12.370  18.674  19.773  1.00  0.00     0.037 C 
HETATM   40  C27 UNL     1      14.358  20.069  19.818  1.00  0.00     0.037 C 
HETATM   41  C28 UNL     1      14.247  18.201  18.249  1.00  0.00     0.037 C 
ENDBRANCH  36  38
ENDBRANCH  29  34
ENDBRANCH  22  25
ENDBRANCH   1  22
TORSDOF 10
ENDMDL
