MODEL 18
REMARK VINA RESULT: -8.833378064      2.281      4.199
REMARK  10 active torsions:
REMARK  status: ('A' for Active; 'I' for Inactive)
REMARK    1  A    between atoms: C3_3  and  O1_4 
REMARK    2  A    between atoms: C7_9  and  C8_10 
REMARK       I    between atoms: C8_10  and  N1_12 
REMARK    3  A    between atoms: N1_12  and  C9_14 
REMARK    4  A    between atoms: C9_14  and  C10_15 
REMARK    5  A    between atoms: C9_14  and  C17_22 
REMARK    6  A    between atoms: C10_15  and  C11_16 
REMARK    7  A    between atoms: C17_22  and  O3_23 
REMARK    8  A    between atoms: C17_22  and  C18_25 
REMARK       I    between atoms: C18_25  and  N2_27 
REMARK    9  A    between atoms: C23_33  and  C24_34 
REMARK       I    between atoms: C24_34  and  N3_36 
REMARK   10  A    between atoms: N3_36  and  C25_38 
ROOT
HETATM    1  C9  UNL     1      14.805  22.319  17.079  1.00  0.00     0.127 C 
ENDROOT
BRANCH   1   2
HETATM    2  N1  UNL     1      13.606  21.488  17.157  1.00  0.00    -0.349 N 
HETATM    3  C8  UNL     1      13.667  20.164  17.593  1.00  0.00     0.252 C 
HETATM    4  O2  UNL     1      14.856  19.754  17.900  1.00  0.00    -0.268 OA
ATOM      5  H1  UNL     1      12.705  21.885  16.888  1.00  0.00     0.163 HD
BRANCH   3   6
HETATM    6  C7  UNL     1      12.623  19.197  17.746  1.00  0.00     0.040 A 
HETATM    7  C2  UNL     1      11.583  19.010  16.903  1.00  0.00    -0.013 A 
HETATM    8  C1  UNL     1      11.350  19.901  15.761  1.00  0.00     0.052 C 
HETATM    9  C3  UNL     1      10.651  17.983  17.114  1.00  0.00     0.072 A 
HETATM   10  C4  UNL     1      10.753  17.131  18.177  1.00  0.00     0.037 A 
HETATM   11  C5  UNL     1      11.808  17.304  19.053  1.00  0.00     0.004 A 
HETATM   12  C6  UNL     1      12.717  18.316  18.836  1.00  0.00     0.018 A 
BRANCH   9  13
HETATM   13  O1  UNL     1       9.599  17.821  16.227  1.00  0.00    -0.360 OA
ATOM     14  H1  UNL     1       8.822  17.347  16.502  1.00  0.00     0.217 HD
ENDBRANCH   9  13
ENDBRANCH   3   6
ENDBRANCH   1   2
BRANCH   1  15
HETATM   15  C10 UNL     1      14.628  23.360  15.987  1.00  0.00     0.066 C 
BRANCH  15  16
HETATM   16  C11 UNL     1      14.779  22.863  14.632  1.00  0.00    -0.056 A 
HETATM   17  C12 UNL     1      14.122  21.702  14.264  1.00  0.00     0.007 A 
HETATM   18  C13 UNL     1      14.245  21.177  12.979  1.00  0.00     0.001 A 
HETATM   19  C14 UNL     1      15.028  21.815  12.053  1.00  0.00     0.000 A 
HETATM   20  C15 UNL     1      15.682  22.979  12.436  1.00  0.00     0.001 A 
HETATM   21  C16 UNL     1      15.566  23.508  13.715  1.00  0.00     0.007 A 
ENDBRANCH  15  16
ENDBRANCH   1  15
BRANCH   1  22
HETATM   22  C17 UNL     1      15.202  22.905  18.410  1.00  0.00     0.233 C 
BRANCH  22  23
HETATM   23  O3  UNL     1      14.066  23.162  19.188  1.00  0.00    -0.384 OA
ATOM     24  H3  UNL     1      14.318  23.402  20.073  1.00  0.00     0.210 HD
ENDBRANCH  22  23
BRANCH  22  25
HETATM   25  C18 UNL     1      16.095  24.069  18.304  1.00  0.00     0.252 C 
HETATM   26  O4  UNL     1      15.621  25.233  18.450  1.00  0.00    -0.270 OA
HETATM   27  N2  UNL     1      17.489  23.978  18.045  1.00  0.00    -0.326 N 
HETATM   28  C19 UNL     1      18.163  22.702  17.896  1.00  0.00     0.201 C 
HETATM   29  C23 UNL     1      18.415  25.094  17.900  1.00  0.00     0.198 C 
HETATM   30  S1  UNL     1      19.771  23.112  18.719  1.00  0.00    -0.137 SA
HETATM   31  C20 UNL     1      19.369  24.855  19.006  1.00  0.00     0.032 C 
HETATM   32  C21 UNL     1      20.552  25.730  19.133  1.00  0.00     0.029 C 
HETATM   33  C22 UNL     1      18.545  24.871  20.306  1.00  0.00     0.029 C 
BRANCH  29  34
HETATM   34  C24 UNL     1      18.907  25.066  16.530  1.00  0.00     0.242 C 
HETATM   35  O5  UNL     1      18.359  24.258  15.701  1.00  0.00    -0.271 OA
HETATM   36  N3  UNL     1      19.967  25.878  16.030  1.00  0.00    -0.351 N 
ATOM     37  H3  UNL     1      20.445  26.542  16.639  1.00  0.00     0.163 HD
BRANCH  36  38
HETATM   38  C25 UNL     1      20.350  25.743  14.642  1.00  0.00     0.022 C 
HETATM   39  C26 UNL     1      21.252  24.545  14.471  1.00  0.00     0.037 C 
HETATM   40  C27 UNL     1      21.170  26.961  14.234  1.00  0.00     0.037 C 
HETATM   41  C28 UNL     1      19.183  25.643  13.708  1.00  0.00     0.037 C 
ENDBRANCH  36  38
ENDBRANCH  29  34
ENDBRANCH  22  25
ENDBRANCH   1  22
TORSDOF 10
ENDMDL
