MODEL 11
REMARK VINA RESULT: -9.249406646      2.585      5.733
REMARK  10 active torsions:
REMARK  status: ('A' for Active; 'I' for Inactive)
REMARK    1  A    between atoms: C3_3  and  O1_4 
REMARK    2  A    between atoms: C7_9  and  C8_10 
REMARK       I    between atoms: C8_10  and  N1_12 
REMARK    3  A    between atoms: N1_12  and  C9_14 
REMARK    4  A    between atoms: C9_14  and  C10_15 
REMARK    5  A    between atoms: C9_14  and  C17_22 
REMARK    6  A    between atoms: C10_15  and  C11_16 
REMARK    7  A    between atoms: C17_22  and  O3_23 
REMARK    8  A    between atoms: C17_22  and  C18_25 
REMARK       I    between atoms: C18_25  and  N2_27 
REMARK    9  A    between atoms: C23_33  and  C24_34 
REMARK       I    between atoms: C24_34  and  N3_36 
REMARK   10  A    between atoms: N3_36  and  C25_38 
ROOT
HETATM    1  C9  UNL     1      15.862  22.246  18.597  1.00  0.00     0.127 C 
ENDROOT
BRANCH   1   2
HETATM    2  N1  UNL     1      15.594  21.587  17.321  1.00  0.00    -0.349 N 
HETATM    3  C8  UNL     1      14.951  22.256  16.278  1.00  0.00     0.252 C 
HETATM    4  O2  UNL     1      14.616  23.477  16.550  1.00  0.00    -0.268 OA
ATOM      5  H1  UNL     1      15.884  20.617  17.189  1.00  0.00     0.163 HD
BRANCH   3   6
HETATM    6  C7  UNL     1      14.606  21.799  14.967  1.00  0.00     0.040 A 
HETATM    7  C2  UNL     1      15.057  22.314  13.801  1.00  0.00    -0.013 A 
HETATM    8  C1  UNL     1      15.888  23.522  13.765  1.00  0.00     0.052 C 
HETATM    9  C3  UNL     1      14.705  21.743  12.570  1.00  0.00     0.072 A 
HETATM   10  C4  UNL     1      13.895  20.645  12.495  1.00  0.00     0.037 A 
HETATM   11  C5  UNL     1      13.421  20.103  13.674  1.00  0.00     0.004 A 
HETATM   12  C6  UNL     1      13.772  20.672  14.878  1.00  0.00     0.018 A 
BRANCH   9  13
HETATM   13  O1  UNL     1      15.188  22.297  11.395  1.00  0.00    -0.360 OA
ATOM     14  H1  UNL     1      15.090  21.823  10.577  1.00  0.00     0.217 HD
ENDBRANCH   9  13
ENDBRANCH   3   6
ENDBRANCH   1   2
BRANCH   1  15
HETATM   15  C10 UNL     1      15.157  21.493  19.712  1.00  0.00     0.066 C 
BRANCH  15  16
HETATM   16  C11 UNL     1      14.405  20.326  19.289  1.00  0.00    -0.056 A 
HETATM   17  C12 UNL     1      14.866  19.068  19.633  1.00  0.00     0.007 A 
HETATM   18  C13 UNL     1      14.187  17.916  19.240  1.00  0.00     0.001 A 
HETATM   19  C14 UNL     1      13.040  18.019  18.498  1.00  0.00     0.000 A 
HETATM   20  C15 UNL     1      12.589  19.289  18.159  1.00  0.00     0.001 A 
HETATM   21  C16 UNL     1      13.260  20.442  18.547  1.00  0.00     0.007 A 
ENDBRANCH  15  16
ENDBRANCH   1  15
BRANCH   1  22
HETATM   22  C17 UNL     1      17.333  22.459  18.851  1.00  0.00     0.233 C 
BRANCH  22  23
HETATM   23  O3  UNL     1      17.713  21.855  20.056  1.00  0.00    -0.384 OA
ATOM     24  H3  UNL     1      16.971  21.413  20.453  1.00  0.00     0.210 HD
ENDBRANCH  22  23
BRANCH  22  25
HETATM   25  C18 UNL     1      17.752  23.866  18.762  1.00  0.00     0.252 C 
HETATM   26  O4  UNL     1      16.883  24.783  18.845  1.00  0.00    -0.270 OA
HETATM   27  N2  UNL     1      19.099  24.282  18.586  1.00  0.00    -0.326 N 
HETATM   28  C19 UNL     1      20.195  23.335  18.514  1.00  0.00     0.201 C 
HETATM   29  C23 UNL     1      19.570  25.656  18.462  1.00  0.00     0.198 C 
HETATM   30  S1  UNL     1      21.492  24.302  19.416  1.00  0.00    -0.137 SA
HETATM   31  C20 UNL     1      20.473  25.785  19.628  1.00  0.00     0.032 C 
HETATM   32  C21 UNL     1      21.251  27.029  19.797  1.00  0.00     0.029 C 
HETATM   33  C22 UNL     1      19.616  25.512  20.877  1.00  0.00     0.029 C 
BRANCH  29  34
HETATM   34  C24 UNL     1      20.127  25.798  17.124  1.00  0.00     0.242 C 
HETATM   35  O5  UNL     1      21.356  26.141  17.008  1.00  0.00    -0.271 OA
HETATM   36  N3  UNL     1      19.403  25.584  15.915  1.00  0.00    -0.351 N 
ATOM     37  H3  UNL     1      18.421  25.310  15.939  1.00  0.00     0.163 HD
BRANCH  36  38
HETATM   38  C25 UNL     1      20.088  25.764  14.654  1.00  0.00     0.022 C 
HETATM   39  C26 UNL     1      20.583  27.184  14.534  1.00  0.00     0.037 C 
HETATM   40  C27 UNL     1      19.094  25.556  13.517  1.00  0.00     0.037 C 
HETATM   41  C28 UNL     1      21.222  24.806  14.451  1.00  0.00     0.037 C 
ENDBRANCH  36  38
ENDBRANCH  29  34
ENDBRANCH  22  25
ENDBRANCH   1  22
TORSDOF 10
ENDMDL
