MODEL 3
REMARK VINA RESULT: -9.781035967      2.356      4.416
REMARK  10 active torsions:
REMARK  status: ('A' for Active; 'I' for Inactive)
REMARK    1  A    between atoms: C3_3  and  O1_4 
REMARK    2  A    between atoms: C7_9  and  C8_10 
REMARK       I    between atoms: C8_10  and  N1_12 
REMARK    3  A    between atoms: N1_12  and  C9_14 
REMARK    4  A    between atoms: C9_14  and  C10_15 
REMARK    5  A    between atoms: C9_14  and  C17_22 
REMARK    6  A    between atoms: C10_15  and  C11_16 
REMARK    7  A    between atoms: C17_22  and  O3_23 
REMARK    8  A    between atoms: C17_22  and  C18_25 
REMARK       I    between atoms: C18_25  and  N2_27 
REMARK    9  A    between atoms: C23_33  and  C24_34 
REMARK       I    between atoms: C24_34  and  N3_36 
REMARK   10  A    between atoms: N3_36  and  C25_38 
ROOT
HETATM    1  C9  UNL     1      16.039  22.395  17.982  1.00  0.00     0.127 C 
ENDROOT
BRANCH   1   2
HETATM    2  N1  UNL     1      14.826  21.740  18.466  1.00  0.00    -0.349 N 
HETATM    3  C8  UNL     1      14.533  20.416  18.133  1.00  0.00     0.252 C 
HETATM    4  O2  UNL     1      15.410  19.848  17.369  1.00  0.00    -0.268 OA
ATOM      5  H1  UNL     1      14.180  22.261  19.059  1.00  0.00     0.163 HD
BRANCH   3   6
HETATM    6  C7  UNL     1      13.418  19.601  18.504  1.00  0.00     0.040 A 
HETATM    7  C2  UNL     1      13.335  18.817  19.603  1.00  0.00    -0.013 A 
HETATM    8  C1  UNL     1      14.481  18.627  20.498  1.00  0.00     0.052 C 
HETATM    9  C3  UNL     1      12.163  18.109  19.905  1.00  0.00     0.072 A 
HETATM   10  C4  UNL     1      11.057  18.181  19.106  1.00  0.00     0.037 A 
HETATM   11  C5  UNL     1      11.118  18.975  17.977  1.00  0.00     0.004 A 
HETATM   12  C6  UNL     1      12.275  19.666  17.690  1.00  0.00     0.018 A 
BRANCH   9  13
HETATM   13  O1  UNL     1      12.115  17.318  21.041  1.00  0.00    -0.360 OA
ATOM     14  H1  UNL     1      11.335  16.806  21.224  1.00  0.00     0.217 HD
ENDBRANCH   9  13
ENDBRANCH   3   6
ENDBRANCH   1   2
BRANCH   1  15
HETATM   15  C10 UNL     1      15.661  23.552  17.073  1.00  0.00     0.066 C 
BRANCH  15  16
HETATM   16  C11 UNL     1      15.150  23.170  15.770  1.00  0.00    -0.056 A 
HETATM   17  C12 UNL     1      16.046  22.841  14.767  1.00  0.00     0.007 A 
HETATM   18  C13 UNL     1      15.606  22.480  13.494  1.00  0.00     0.001 A 
HETATM   19  C14 UNL     1      14.265  22.447  13.220  1.00  0.00     0.000 A 
HETATM   20  C15 UNL     1      13.377  22.779  14.235  1.00  0.00     0.001 A 
HETATM   21  C16 UNL     1      13.807  23.141  15.506  1.00  0.00     0.007 A 
ENDBRANCH  15  16
ENDBRANCH   1  15
BRANCH   1  22
HETATM   22  C17 UNL     1      16.980  22.785  19.094  1.00  0.00     0.233 C 
BRANCH  22  23
HETATM   23  O3  UNL     1      16.395  22.528  20.340  1.00  0.00    -0.384 OA
ATOM     24  H3  UNL     1      16.956  22.842  21.040  1.00  0.00     0.210 HD
ENDBRANCH  22  23
BRANCH  22  25
HETATM   25  C18 UNL     1      17.497  24.158  18.980  1.00  0.00     0.252 C 
HETATM   26  O4  UNL     1      16.726  25.135  19.208  1.00  0.00    -0.270 OA
HETATM   27  N2  UNL     1      18.836  24.473  18.624  1.00  0.00    -0.326 N 
HETATM   28  C19 UNL     1      19.829  23.446  18.374  1.00  0.00     0.201 C 
HETATM   29  C23 UNL     1      19.396  25.810  18.466  1.00  0.00     0.198 C 
HETATM   30  S1  UNL     1      21.314  24.277  19.104  1.00  0.00    -0.137 SA
HETATM   31  C20 UNL     1      20.460  25.827  19.494  1.00  0.00     0.032 C 
HETATM   32  C21 UNL     1      21.354  26.999  19.581  1.00  0.00     0.029 C 
HETATM   33  C22 UNL     1      19.767  25.577  20.847  1.00  0.00     0.029 C 
BRANCH  29  34
HETATM   34  C24 UNL     1      19.769  25.955  17.067  1.00  0.00     0.242 C 
HETATM   35  O5  UNL     1      20.972  26.297  16.789  1.00  0.00    -0.271 OA
HETATM   36  N3  UNL     1      18.890  25.745  15.965  1.00  0.00    -0.351 N 
ATOM     37  H3  UNL     1      17.920  25.471  16.118  1.00  0.00     0.163 HD
BRANCH  36  38
HETATM   38  C25 UNL     1      19.402  25.927  14.623  1.00  0.00     0.022 C 
HETATM   39  C26 UNL     1      19.784  27.371  14.410  1.00  0.00     0.037 C 
HETATM   40  C27 UNL     1      18.291  25.623  13.625  1.00  0.00     0.037 C 
HETATM   41  C28 UNL     1      20.562  25.036  14.303  1.00  0.00     0.037 C 
ENDBRANCH  36  38
ENDBRANCH  29  34
ENDBRANCH  22  25
ENDBRANCH   1  22
TORSDOF 10
ENDMDL
