MODEL 2
REMARK VINA RESULT: -12.297808465      0.239      1.081
REMARK  11 active torsions:
REMARK  status: ('A' for Active; 'I' for Inactive)
REMARK    1  A    between atoms: C7_7  and  C8_8 
REMARK    2  A    between atoms: C8_8  and  N1_9 
REMARK       I    between atoms: N1_9  and  C9_11 
REMARK    3  A    between atoms: C9_11  and  C10_13 
REMARK       I    between atoms: N2_14  and  C11_15 
REMARK    4  A    between atoms: C11_15  and  C12_17 
REMARK    5  A    between atoms: C12_17  and  O3_18 
REMARK    6  A    between atoms: C12_17  and  C13_20 
REMARK    7  A    between atoms: C13_20  and  C14_21 
REMARK    8  A    between atoms: C13_20  and  N3_28 
REMARK    9  A    between atoms: C14_21  and  C15_22 
REMARK       I    between atoms: N3_28  and  C21_30 
REMARK   10  A    between atoms: C21_30  and  C22_32 
REMARK   11  A    between atoms: C26_36  and  O5_37 
ROOT
HETATM    1  C12 UNL     1      15.284  23.658  18.572  1.00  0.00     0.233 C 
ENDROOT
BRANCH   1   2
HETATM    2  C11 UNL     1      16.547  24.346  18.514  1.00  0.00     0.252 C 
HETATM    3  N2  UNL     1      17.786  23.749  18.937  1.00  0.00    -0.326 N 
HETATM    4  C10 UNL     1      19.079  24.432  18.862  1.00  0.00     0.198 C 
HETATM    5  C29 UNL     1      17.843  22.415  19.463  1.00  0.00     0.201 C 
HETATM    6  C30 UNL     1      19.886  24.099  20.068  1.00  0.00     0.032 C 
HETATM    7  S1  UNL     1      19.583  22.275  20.047  1.00  0.00    -0.137 SA
HETATM    8  C31 UNL     1      19.341  24.692  21.332  1.00  0.00     0.029 C 
HETATM    9  C32 UNL     1      21.326  24.434  19.935  1.00  0.00     0.029 C 
HETATM   10  O2  UNL     1      16.605  25.521  18.078  1.00  0.00    -0.270 OA
BRANCH   4  11
HETATM   11  C9  UNL     1      19.742  24.201  17.571  1.00  0.00     0.242 C 
HETATM   12  N1  UNL     1      20.274  25.306  16.857  1.00  0.00    -0.355 N 
ATOM     13  H1  UNL     1      20.179  26.232  17.273  1.00  0.00     0.162 HD
HETATM   14  O1  UNL     1      19.838  23.041  17.102  1.00  0.00    -0.271 OA
BRANCH  12  15
HETATM   15  C8  UNL     1      20.933  25.206  15.594  1.00  0.00     0.161 C 
BRANCH  15  16
HETATM   16  C7  UNL     1      20.733  26.363  14.696  1.00  0.00    -0.035 A 
HETATM   17  C2  UNL     1      21.743  27.324  14.686  1.00  0.00    -0.054 A 
HETATM   18  C1  UNL     1      22.959  27.177  15.529  1.00  0.00     0.049 C 
HETATM   19  C3  UNL     1      21.593  28.427  13.870  1.00  0.00     0.007 A 
HETATM   20  C4  UNL     1      20.474  28.561  13.093  1.00  0.00     0.001 A 
HETATM   21  C5  UNL     1      19.453  27.638  13.074  1.00  0.00     0.001 A 
HETATM   22  C6  UNL     1      19.626  26.533  13.907  1.00  0.00     0.009 A 
ENDBRANCH  15  16
ENDBRANCH  12  15
ENDBRANCH   4  11
ENDBRANCH   1   2
BRANCH   1  23
HETATM   23  O3  UNL     1      14.223  24.532  18.648  1.00  0.00    -0.384 OA
ATOM     24  H3  UNL     1      13.447  24.120  19.008  1.00  0.00     0.210 HD
ENDBRANCH   1  23
BRANCH   1  25
HETATM   25  C13 UNL     1      15.081  22.618  17.495  1.00  0.00     0.127 C 
BRANCH  25  26
HETATM   26  C14 UNL     1      14.815  23.301  16.200  1.00  0.00     0.066 C 
BRANCH  26  27
HETATM   27  C15 UNL     1      14.295  22.465  15.113  1.00  0.00    -0.056 A 
HETATM   28  C16 UNL     1      15.166  21.769  14.318  1.00  0.00     0.007 A 
HETATM   29  C17 UNL     1      14.764  20.958  13.256  1.00  0.00     0.001 A 
HETATM   30  C18 UNL     1      13.416  20.864  13.010  1.00  0.00     0.000 A 
HETATM   31  C19 UNL     1      12.495  21.552  13.792  1.00  0.00     0.001 A 
HETATM   32  C20 UNL     1      12.950  22.334  14.823  1.00  0.00     0.007 A 
ENDBRANCH  26  27
ENDBRANCH  25  26
BRANCH  25  33
HETATM   33  N3  UNL     1      14.030  21.684  17.864  1.00  0.00    -0.349 N 
HETATM   34  C21 UNL     1      14.211  20.346  18.220  1.00  0.00     0.252 C 
HETATM   35  O4  UNL     1      15.385  19.890  18.225  1.00  0.00    -0.268 OA
ATOM     36  H3  UNL     1      13.074  22.038  17.863  1.00  0.00     0.163 HD
BRANCH  34  37
HETATM   37  C22 UNL     1      13.149  19.417  18.596  1.00  0.00     0.040 A 
HETATM   38  C23 UNL     1      12.072  19.156  17.786  1.00  0.00     0.018 A 
HETATM   39  C24 UNL     1      11.130  18.250  18.237  1.00  0.00     0.004 A 
HETATM   40  C25 UNL     1      11.256  17.622  19.456  1.00  0.00     0.037 A 
HETATM   41  C26 UNL     1      12.346  17.882  20.281  1.00  0.00     0.072 A 
HETATM   42  C27 UNL     1      13.280  18.781  19.835  1.00  0.00    -0.013 A 
HETATM   43  C28 UNL     1      14.468  19.115  20.689  1.00  0.00     0.052 C 
BRANCH  41  44
HETATM   44  O5  UNL     1      12.457  17.244  21.495  1.00  0.00    -0.360 OA
ATOM     45  H5  UNL     1      11.874  16.526  21.709  1.00  0.00     0.217 HD
ENDBRANCH  41  44
ENDBRANCH  34  37
ENDBRANCH  25  33
ENDBRANCH   1  25
TORSDOF 11
ENDMDL
