MODEL 9
REMARK VINA RESULT: -10.382121423      2.553      4.777
REMARK  11 active torsions:
REMARK  status: ('A' for Active; 'I' for Inactive)
REMARK    1  A    between atoms: C7_7  and  C8_8 
REMARK    2  A    between atoms: C8_8  and  N1_9 
REMARK       I    between atoms: N1_9  and  C9_11 
REMARK    3  A    between atoms: C9_11  and  C10_13 
REMARK       I    between atoms: N2_14  and  C11_15 
REMARK    4  A    between atoms: C11_15  and  C12_17 
REMARK    5  A    between atoms: C12_17  and  O3_18 
REMARK    6  A    between atoms: C12_17  and  C13_20 
REMARK    7  A    between atoms: C13_20  and  C14_21 
REMARK    8  A    between atoms: C13_20  and  N3_28 
REMARK    9  A    between atoms: C14_21  and  C15_22 
REMARK       I    between atoms: N3_28  and  C21_30 
REMARK   10  A    between atoms: C21_30  and  C22_32 
REMARK   11  A    between atoms: C26_36  and  O5_37 
ROOT
HETATM    1  C12 UNL     1      17.075  23.928  18.263  1.00  0.00     0.233 C 
ENDROOT
BRANCH   1   2
HETATM    2  C11 UNL     1      18.488  24.193  18.182  1.00  0.00     0.252 C 
HETATM    3  N2  UNL     1      19.056  25.143  17.264  1.00  0.00    -0.326 N 
HETATM    4  C10 UNL     1      20.489  25.435  17.187  1.00  0.00     0.198 C 
HETATM    5  C29 UNL     1      18.242  25.891  16.347  1.00  0.00     0.201 C 
HETATM    6  C30 UNL     1      20.881  25.622  15.762  1.00  0.00     0.032 C 
HETATM    7  S1  UNL     1      19.487  26.739  15.288  1.00  0.00    -0.137 SA
HETATM    8  C31 UNL     1      20.821  24.359  14.958  1.00  0.00     0.029 C 
HETATM    9  C32 UNL     1      22.206  26.267  15.588  1.00  0.00     0.029 C 
HETATM   10  O2  UNL     1      19.287  23.585  18.934  1.00  0.00    -0.270 OA
BRANCH   4  11
HETATM   11  C9  UNL     1      20.872  26.523  18.098  1.00  0.00     0.242 C 
HETATM   12  N1  UNL     1      21.245  26.212  19.431  1.00  0.00    -0.355 N 
ATOM     13  H1  UNL     1      21.237  25.232  19.712  1.00  0.00     0.162 HD
HETATM   14  O1  UNL     1      20.869  27.714  17.704  1.00  0.00    -0.271 OA
BRANCH  12  15
HETATM   15  C8  UNL     1      21.630  27.183  20.406  1.00  0.00     0.161 C 
BRANCH  15  16
HETATM   16  C7  UNL     1      22.968  26.970  20.998  1.00  0.00    -0.035 A 
HETATM   17  C2  UNL     1      23.014  26.792  22.381  1.00  0.00    -0.054 A 
HETATM   18  C1  UNL     1      21.776  26.808  23.205  1.00  0.00     0.049 C 
HETATM   19  C3  UNL     1      24.244  26.600  22.978  1.00  0.00     0.007 A 
HETATM   20  C4  UNL     1      25.382  26.585  22.218  1.00  0.00     0.001 A 
HETATM   21  C5  UNL     1      25.382  26.757  20.852  1.00  0.00     0.001 A 
HETATM   22  C6  UNL     1      24.129  26.951  20.272  1.00  0.00     0.009 A 
ENDBRANCH  15  16
ENDBRANCH  12  15
ENDBRANCH   4  11
ENDBRANCH   1   2
BRANCH   1  23
HETATM   23  O3  UNL     1      16.336  25.088  18.339  1.00  0.00    -0.384 OA
ATOM     24  H3  UNL     1      15.506  25.012  17.885  1.00  0.00     0.210 HD
ENDBRANCH   1  23
BRANCH   1  25
HETATM   25  C13 UNL     1      16.546  22.993  17.201  1.00  0.00     0.127 C 
BRANCH  25  26
HETATM   26  C14 UNL     1      15.481  23.684  16.426  1.00  0.00     0.066 C 
BRANCH  26  27
HETATM   27  C15 UNL     1      14.813  22.896  15.385  1.00  0.00    -0.056 A 
HETATM   28  C16 UNL     1      13.456  22.993  15.229  1.00  0.00     0.007 A 
HETATM   29  C17 UNL     1      12.734  22.276  14.275  1.00  0.00     0.001 A 
HETATM   30  C18 UNL     1      13.440  21.432  13.453  1.00  0.00     0.000 A 
HETATM   31  C19 UNL     1      14.820  21.303  13.573  1.00  0.00     0.001 A 
HETATM   32  C20 UNL     1      15.476  22.035  14.531  1.00  0.00     0.007 A 
ENDBRANCH  26  27
ENDBRANCH  25  26
BRANCH  25  33
HETATM   33  N3  UNL     1      16.093  21.742  17.789  1.00  0.00    -0.349 N 
HETATM   34  C21 UNL     1      15.042  21.596  18.696  1.00  0.00     0.252 C 
HETATM   35  O4  UNL     1      14.421  22.633  19.051  1.00  0.00    -0.268 OA
ATOM     36  H3  UNL     1      16.587  20.894  17.512  1.00  0.00     0.163 HD
BRANCH  34  37
HETATM   37  C22 UNL     1      14.590  20.336  19.276  1.00  0.00     0.040 A 
HETATM   38  C23 UNL     1      15.024  19.883  20.498  1.00  0.00     0.018 A 
HETATM   39  C24 UNL     1      14.522  18.679  20.956  1.00  0.00     0.004 A 
HETATM   40  C25 UNL     1      13.615  17.947  20.221  1.00  0.00     0.037 A 
HETATM   41  C26 UNL     1      13.171  18.400  18.983  1.00  0.00     0.072 A 
HETATM   42  C27 UNL     1      13.670  19.594  18.528  1.00  0.00    -0.013 A 
HETATM   43  C28 UNL     1      13.241  20.125  17.191  1.00  0.00     0.052 C 
BRANCH  41  44
HETATM   44  O5  UNL     1      12.264  17.658  18.264  1.00  0.00    -0.360 OA
ATOM     45  H5  UNL     1      12.034  17.916  17.379  1.00  0.00     0.217 HD
ENDBRANCH  41  44
ENDBRANCH  34  37
ENDBRANCH  25  33
ENDBRANCH   1  25
TORSDOF 11
ENDMDL
