MODEL 10
REMARK VINA RESULT: -10.297374454      2.234     10.257
REMARK  11 active torsions:
REMARK  status: ('A' for Active; 'I' for Inactive)
REMARK    1  A    between atoms: C7_7  and  C8_8 
REMARK    2  A    between atoms: C8_8  and  N1_9 
REMARK       I    between atoms: N1_9  and  C9_11 
REMARK    3  A    between atoms: C9_11  and  C10_13 
REMARK       I    between atoms: N2_14  and  C11_15 
REMARK    4  A    between atoms: C11_15  and  C12_17 
REMARK    5  A    between atoms: C12_17  and  O3_18 
REMARK    6  A    between atoms: C12_17  and  C13_20 
REMARK    7  A    between atoms: C13_20  and  C14_21 
REMARK    8  A    between atoms: C13_20  and  N3_28 
REMARK    9  A    between atoms: C14_21  and  C15_22 
REMARK       I    between atoms: N3_28  and  C21_30 
REMARK   10  A    between atoms: C21_30  and  C22_32 
REMARK   11  A    between atoms: C26_36  and  O5_37 
ROOT
HETATM    1  C12 UNL     1      17.420  24.888  16.852  1.00  0.00     0.233 C 
ENDROOT
BRANCH   1   2
HETATM    2  C11 UNL     1      16.314  24.027  17.181  1.00  0.00     0.252 C 
HETATM    3  N2  UNL     1      15.778  23.056  16.266  1.00  0.00    -0.326 N 
HETATM    4  C10 UNL     1      14.667  22.161  16.596  1.00  0.00     0.198 C 
HETATM    5  C29 UNL     1      16.309  22.886  14.943  1.00  0.00     0.201 C 
HETATM    6  C30 UNL     1      13.781  22.009  15.409  1.00  0.00     0.032 C 
HETATM    7  S1  UNL     1      15.117  21.718  14.165  1.00  0.00    -0.137 SA
HETATM    8  C31 UNL     1      13.027  23.258  15.066  1.00  0.00     0.029 C 
HETATM    9  C32 UNL     1      12.841  20.864  15.507  1.00  0.00     0.029 C 
HETATM   10  O2  UNL     1      15.772  24.100  18.310  1.00  0.00    -0.270 OA
BRANCH   4  11
HETATM   11  C9  UNL     1      15.140  20.906  17.199  1.00  0.00     0.242 C 
HETATM   12  N1  UNL     1      14.195  19.995  17.737  1.00  0.00    -0.355 N 
ATOM     13  H1  UNL     1      13.208  20.245  17.681  1.00  0.00     0.162 HD
HETATM   14  O1  UNL     1      16.366  20.642  17.240  1.00  0.00    -0.271 OA
BRANCH  12  15
HETATM   15  C8  UNL     1      14.535  18.751  18.351  1.00  0.00     0.161 C 
BRANCH  15  16
HETATM   16  C7  UNL     1      14.019  18.576  19.725  1.00  0.00    -0.035 A 
HETATM   17  C2  UNL     1      12.885  17.777  19.867  1.00  0.00    -0.054 A 
HETATM   18  C1  UNL     1      12.243  17.130  18.691  1.00  0.00     0.049 C 
HETATM   19  C3  UNL     1      12.363  17.594  21.131  1.00  0.00     0.007 A 
HETATM   20  C4  UNL     1      12.955  18.189  22.212  1.00  0.00     0.001 A 
HETATM   21  C5  UNL     1      14.074  18.986  22.118  1.00  0.00     0.001 A 
HETATM   22  C6  UNL     1      14.583  19.157  20.831  1.00  0.00     0.009 A 
ENDBRANCH  15  16
ENDBRANCH  12  15
ENDBRANCH   4  11
ENDBRANCH   1   2
BRANCH   1  23
HETATM   23  O3  UNL     1      17.506  25.966  17.705  1.00  0.00    -0.384 OA
ATOM     24  H3  UNL     1      17.085  25.794  18.539  1.00  0.00     0.210 HD
ENDBRANCH   1  23
BRANCH   1  25
HETATM   25  C13 UNL     1      18.747  24.181  16.702  1.00  0.00     0.127 C 
BRANCH  25  26
HETATM   26  C14 UNL     1      18.867  23.136  17.755  1.00  0.00     0.066 C 
BRANCH  26  27
HETATM   27  C15 UNL     1      19.425  23.563  19.042  1.00  0.00    -0.056 A 
HETATM   28  C16 UNL     1      18.614  23.625  20.144  1.00  0.00     0.007 A 
HETATM   29  C17 UNL     1      19.053  24.028  21.405  1.00  0.00     0.001 A 
HETATM   30  C18 UNL     1      20.375  24.379  21.530  1.00  0.00     0.000 A 
HETATM   31  C19 UNL     1      21.236  24.331  20.438  1.00  0.00     0.001 A 
HETATM   32  C20 UNL     1      20.746  23.925  19.223  1.00  0.00     0.007 A 
ENDBRANCH  26  27
ENDBRANCH  25  26
BRANCH  25  33
HETATM   33  N3  UNL     1      19.848  25.131  16.725  1.00  0.00    -0.349 N 
HETATM   34  C21 UNL     1      20.693  25.432  15.656  1.00  0.00     0.252 C 
HETATM   35  O4  UNL     1      20.498  24.835  14.564  1.00  0.00    -0.268 OA
ATOM     36  H3  UNL     1      20.019  25.621  17.603  1.00  0.00     0.163 HD
BRANCH  34  37
HETATM   37  C22 UNL     1      21.792  26.392  15.686  1.00  0.00     0.040 A 
HETATM   38  C23 UNL     1      23.050  26.064  16.126  1.00  0.00     0.018 A 
HETATM   39  C24 UNL     1      24.020  27.050  16.103  1.00  0.00     0.004 A 
HETATM   40  C25 UNL     1      23.746  28.323  15.654  1.00  0.00     0.037 A 
HETATM   41  C26 UNL     1      22.472  28.662  15.206  1.00  0.00     0.072 A 
HETATM   42  C27 UNL     1      21.511  27.685  15.231  1.00  0.00    -0.013 A 
HETATM   43  C28 UNL     1      20.114  27.996  14.777  1.00  0.00     0.052 C 
BRANCH  41  44
HETATM   44  O5  UNL     1      22.217  29.937  14.761  1.00  0.00    -0.360 OA
ATOM     45  H5  UNL     1      22.068  30.638  15.385  1.00  0.00     0.217 HD
ENDBRANCH  41  44
ENDBRANCH  34  37
ENDBRANCH  25  33
ENDBRANCH   1  25
TORSDOF 11
ENDMDL
