MODEL 1
REMARK VINA RESULT: -12.465369708      0.000      0.000
REMARK  11 active torsions:
REMARK  status: ('A' for Active; 'I' for Inactive)
REMARK    1  A    between atoms: C7_7  and  C8_8 
REMARK    2  A    between atoms: C8_8  and  N1_9 
REMARK       I    between atoms: N1_9  and  C9_11 
REMARK    3  A    between atoms: C9_11  and  C10_13 
REMARK       I    between atoms: N2_14  and  C11_15 
REMARK    4  A    between atoms: C11_15  and  C12_17 
REMARK    5  A    between atoms: C12_17  and  O3_18 
REMARK    6  A    between atoms: C12_17  and  C13_20 
REMARK    7  A    between atoms: C13_20  and  C14_21 
REMARK    8  A    between atoms: C13_20  and  N3_28 
REMARK    9  A    between atoms: C14_21  and  C15_22 
REMARK       I    between atoms: N3_28  and  C21_30 
REMARK   10  A    between atoms: C21_30  and  C22_32 
REMARK   11  A    between atoms: C26_36  and  O5_37 
ROOT
HETATM    1  C12 UNL     1      15.270  23.678  18.554  1.00  0.00     0.233 C 
ENDROOT
BRANCH   1   2
HETATM    2  C11 UNL     1      16.536  24.362  18.498  1.00  0.00     0.252 C 
HETATM    3  N2  UNL     1      17.771  23.762  18.925  1.00  0.00    -0.326 N 
HETATM    4  C10 UNL     1      19.066  24.440  18.853  1.00  0.00     0.198 C 
HETATM    5  C29 UNL     1      17.823  22.428  19.453  1.00  0.00     0.201 C 
HETATM    6  C30 UNL     1      19.870  24.106  20.062  1.00  0.00     0.032 C 
HETATM    7  S1  UNL     1      19.561  22.283  20.042  1.00  0.00    -0.137 SA
HETATM    8  C31 UNL     1      19.323  24.703  21.323  1.00  0.00     0.029 C 
HETATM    9  C32 UNL     1      21.311  24.436  19.931  1.00  0.00     0.029 C 
HETATM   10  O2  UNL     1      16.599  25.536  18.060  1.00  0.00    -0.270 OA
BRANCH   4  11
HETATM   11  C9  UNL     1      19.733  24.206  17.564  1.00  0.00     0.242 C 
HETATM   12  N1  UNL     1      20.161  25.316  16.792  1.00  0.00    -0.355 N 
ATOM     13  H1  UNL     1      19.992  26.249  17.165  1.00  0.00     0.162 HD
HETATM   14  O1  UNL     1      19.921  23.037  17.148  1.00  0.00    -0.271 OA
BRANCH  12  15
HETATM   15  C8  UNL     1      20.812  25.212  15.524  1.00  0.00     0.161 C 
BRANCH  15  16
HETATM   16  C7  UNL     1      20.768  26.440  14.702  1.00  0.00    -0.035 A 
HETATM   17  C2  UNL     1      19.645  26.604  13.892  1.00  0.00    -0.054 A 
HETATM   18  C1  UNL     1      18.551  25.597  13.872  1.00  0.00     0.049 C 
HETATM   19  C3  UNL     1      19.565  27.732  13.099  1.00  0.00     0.007 A 
HETATM   20  C4  UNL     1      20.572  28.659  13.119  1.00  0.00     0.001 A 
HETATM   21  C5  UNL     1      21.698  28.535  13.902  1.00  0.00     0.001 A 
HETATM   22  C6  UNL     1      21.756  27.388  14.693  1.00  0.00     0.009 A 
ENDBRANCH  15  16
ENDBRANCH  12  15
ENDBRANCH   4  11
ENDBRANCH   1   2
BRANCH   1  23
HETATM   23  O3  UNL     1      14.212  24.556  18.624  1.00  0.00    -0.384 OA
ATOM     24  H3  UNL     1      13.807  24.558  19.483  1.00  0.00     0.210 HD
ENDBRANCH   1  23
BRANCH   1  25
HETATM   25  C13 UNL     1      15.068  22.636  17.478  1.00  0.00     0.127 C 
BRANCH  25  26
HETATM   26  C14 UNL     1      14.796  23.317  16.183  1.00  0.00     0.066 C 
BRANCH  26  27
HETATM   27  C15 UNL     1      14.288  22.476  15.095  1.00  0.00    -0.056 A 
HETATM   28  C16 UNL     1      15.169  21.799  14.294  1.00  0.00     0.007 A 
HETATM   29  C17 UNL     1      14.779  20.985  13.231  1.00  0.00     0.001 A 
HETATM   30  C18 UNL     1      13.432  20.866  12.988  1.00  0.00     0.000 A 
HETATM   31  C19 UNL     1      12.500  21.534  13.777  1.00  0.00     0.001 A 
HETATM   32  C20 UNL     1      12.945  22.321  14.809  1.00  0.00     0.007 A 
ENDBRANCH  26  27
ENDBRANCH  25  26
BRANCH  25  33
HETATM   33  N3  UNL     1      14.020  21.699  17.851  1.00  0.00    -0.349 N 
HETATM   34  C21 UNL     1      14.205  20.365  18.214  1.00  0.00     0.252 C 
HETATM   35  O4  UNL     1      15.381  19.913  18.223  1.00  0.00    -0.268 OA
ATOM     36  H3  UNL     1      13.063  22.050  17.848  1.00  0.00     0.163 HD
BRANCH  34  37
HETATM   37  C22 UNL     1      13.148  19.433  18.593  1.00  0.00     0.040 A 
HETATM   38  C23 UNL     1      12.076  19.157  17.781  1.00  0.00     0.018 A 
HETATM   39  C24 UNL     1      11.137  18.251  18.236  1.00  0.00     0.004 A 
HETATM   40  C25 UNL     1      11.260  17.636  19.463  1.00  0.00     0.037 A 
HETATM   41  C26 UNL     1      12.345  17.910  20.290  1.00  0.00     0.072 A 
HETATM   42  C27 UNL     1      13.275  18.810  19.840  1.00  0.00    -0.013 A 
HETATM   43  C28 UNL     1      14.457  19.160  20.696  1.00  0.00     0.052 C 
BRANCH  41  44
HETATM   44  O5  UNL     1      12.453  17.286  21.511  1.00  0.00    -0.360 OA
ATOM     45  H5  UNL     1      12.053  17.674  22.280  1.00  0.00     0.217 HD
ENDBRANCH  41  44
ENDBRANCH  34  37
ENDBRANCH  25  33
ENDBRANCH   1  25
TORSDOF 11
ENDMDL
