MODEL 3
REMARK VINA RESULT: -12.123738822      0.752      1.464
REMARK  11 active torsions:
REMARK  status: ('A' for Active; 'I' for Inactive)
REMARK    1  A    between atoms: C7_7  and  C8_8 
REMARK    2  A    between atoms: C8_8  and  N1_9 
REMARK       I    between atoms: N1_9  and  C9_11 
REMARK    3  A    between atoms: C9_11  and  C10_13 
REMARK       I    between atoms: N2_14  and  C11_15 
REMARK    4  A    between atoms: C11_15  and  C12_17 
REMARK    5  A    between atoms: C12_17  and  O3_18 
REMARK    6  A    between atoms: C12_17  and  C13_20 
REMARK    7  A    between atoms: C13_20  and  C14_21 
REMARK    8  A    between atoms: C13_20  and  N3_28 
REMARK    9  A    between atoms: C14_21  and  C15_22 
REMARK       I    between atoms: N3_28  and  C21_30 
REMARK   10  A    between atoms: C21_30  and  C22_32 
REMARK   11  A    between atoms: C26_36  and  O5_37 
ROOT
HETATM    1  C12 UNL     1      15.230  23.747  18.615  1.00  0.00     0.233 C 
ENDROOT
BRANCH   1   2
HETATM    2  C11 UNL     1      16.507  24.407  18.532  1.00  0.00     0.252 C 
HETATM    3  N2  UNL     1      17.739  23.785  18.939  1.00  0.00    -0.326 N 
HETATM    4  C10 UNL     1      19.045  24.437  18.839  1.00  0.00     0.198 C 
HETATM    5  C29 UNL     1      17.774  22.453  19.474  1.00  0.00     0.201 C 
HETATM    6  C30 UNL     1      19.865  24.094  20.035  1.00  0.00     0.032 C 
HETATM    7  S1  UNL     1      19.520  22.277  20.031  1.00  0.00    -0.137 SA
HETATM    8  C31 UNL     1      19.353  24.708  21.302  1.00  0.00     0.029 C 
HETATM    9  C32 UNL     1      21.309  24.395  19.876  1.00  0.00     0.029 C 
HETATM   10  O2  UNL     1      16.585  25.577  18.086  1.00  0.00    -0.270 OA
BRANCH   4  11
HETATM   11  C9  UNL     1      19.683  24.183  17.539  1.00  0.00     0.242 C 
HETATM   12  N1  UNL     1      20.093  25.282  16.741  1.00  0.00    -0.355 N 
ATOM     13  H1  UNL     1      19.932  26.221  17.104  1.00  0.00     0.162 HD
HETATM   14  O1  UNL     1      19.863  23.008  17.138  1.00  0.00    -0.271 OA
BRANCH  12  15
HETATM   15  C8  UNL     1      20.716  25.159  15.461  1.00  0.00     0.161 C 
BRANCH  15  16
HETATM   16  C7  UNL     1      20.702  26.391  14.644  1.00  0.00    -0.035 A 
HETATM   17  C2  UNL     1      19.571  26.600  13.855  1.00  0.00    -0.054 A 
HETATM   18  C1  UNL     1      18.439  25.635  13.853  1.00  0.00     0.049 C 
HETATM   19  C3  UNL     1      19.518  27.733  13.068  1.00  0.00     0.007 A 
HETATM   20  C4  UNL     1      20.560  28.622  13.072  1.00  0.00     0.001 A 
HETATM   21  C5  UNL     1      21.694  28.453  13.833  1.00  0.00     0.001 A 
HETATM   22  C6  UNL     1      21.725  27.301  14.619  1.00  0.00     0.009 A 
ENDBRANCH  15  16
ENDBRANCH  12  15
ENDBRANCH   4  11
ENDBRANCH   1   2
BRANCH   1  23
HETATM   23  O3  UNL     1      14.192  24.646  18.720  1.00  0.00    -0.384 OA
ATOM     24  H3  UNL     1      13.420  24.254  19.112  1.00  0.00     0.210 HD
ENDBRANCH   1  23
BRANCH   1  25
HETATM   25  C13 UNL     1      14.979  22.720  17.536  1.00  0.00     0.127 C 
BRANCH  25  26
HETATM   26  C14 UNL     1      14.483  23.406  16.313  1.00  0.00     0.066 C 
BRANCH  26  27
HETATM   27  C15 UNL     1      14.159  22.550  15.167  1.00  0.00    -0.056 A 
HETATM   28  C16 UNL     1      12.873  22.500  14.701  1.00  0.00     0.007 A 
HETATM   29  C17 UNL     1      12.470  21.709  13.626  1.00  0.00     0.001 A 
HETATM   30  C18 UNL     1      13.431  20.943  13.011  1.00  0.00     0.000 A 
HETATM   31  C19 UNL     1      14.751  20.963  13.449  1.00  0.00     0.001 A 
HETATM   32  C20 UNL     1      15.087  21.762  14.512  1.00  0.00     0.007 A 
ENDBRANCH  26  27
ENDBRANCH  25  26
BRANCH  25  33
HETATM   33  N3  UNL     1      14.073  21.683  18.006  1.00  0.00    -0.349 N 
HETATM   34  C21 UNL     1      14.434  20.388  18.381  1.00  0.00     0.252 C 
HETATM   35  O4  UNL     1      15.651  20.071  18.312  1.00  0.00    -0.268 OA
ATOM     36  H3  UNL     1      13.085  21.925  18.067  1.00  0.00     0.163 HD
BRANCH  34  37
HETATM   37  C22 UNL     1      13.519  19.356  18.858  1.00  0.00     0.040 A 
HETATM   38  C23 UNL     1      13.709  18.684  20.040  1.00  0.00     0.018 A 
HETATM   39  C24 UNL     1      12.773  17.732  20.399  1.00  0.00     0.004 A 
HETATM   40  C25 UNL     1      11.680  17.458  19.607  1.00  0.00     0.037 A 
HETATM   41  C26 UNL     1      11.481  18.136  18.408  1.00  0.00     0.072 A 
HETATM   42  C27 UNL     1      12.409  19.079  18.051  1.00  0.00    -0.013 A 
HETATM   43  C28 UNL     1      12.258  19.830  16.761  1.00  0.00     0.052 C 
BRANCH  41  44
HETATM   44  O5  UNL     1      10.383  17.850  17.631  1.00  0.00    -0.360 OA
ATOM     45  H5  UNL     1       9.509  18.014  17.965  1.00  0.00     0.217 HD
ENDBRANCH  41  44
ENDBRANCH  34  37
ENDBRANCH  25  33
ENDBRANCH   1  25
TORSDOF 11
ENDMDL
