MODEL 4
REMARK VINA RESULT: -11.859365082      0.479      1.015
REMARK  11 active torsions:
REMARK  status: ('A' for Active; 'I' for Inactive)
REMARK    1  A    between atoms: C7_7  and  C8_8 
REMARK    2  A    between atoms: C8_8  and  N1_9 
REMARK       I    between atoms: N1_9  and  C9_11 
REMARK    3  A    between atoms: C9_11  and  C10_13 
REMARK       I    between atoms: N2_14  and  C11_15 
REMARK    4  A    between atoms: C11_15  and  C12_17 
REMARK    5  A    between atoms: C12_17  and  O3_18 
REMARK    6  A    between atoms: C12_17  and  C13_20 
REMARK    7  A    between atoms: C13_20  and  C14_21 
REMARK    8  A    between atoms: C13_20  and  N3_28 
REMARK    9  A    between atoms: C14_21  and  C15_22 
REMARK       I    between atoms: N3_28  and  C21_30 
REMARK   10  A    between atoms: C21_30  and  C22_32 
REMARK   11  A    between atoms: C26_36  and  O5_37 
ROOT
HETATM    1  C12 UNL     1      15.377  23.679  18.554  1.00  0.00     0.233 C 
ENDROOT
BRANCH   1   2
HETATM    2  C11 UNL     1      16.612  24.417  18.484  1.00  0.00     0.252 C 
HETATM    3  N2  UNL     1      17.878  23.868  18.890  1.00  0.00    -0.326 N 
HETATM    4  C10 UNL     1      19.142  24.603  18.804  1.00  0.00     0.198 C 
HETATM    5  C29 UNL     1      17.994  22.535  19.408  1.00  0.00     0.201 C 
HETATM    6  C30 UNL     1      19.976  24.296  20.000  1.00  0.00     0.032 C 
HETATM    7  S1  UNL     1      19.745  22.462  19.972  1.00  0.00    -0.137 SA
HETATM    8  C31 UNL     1      19.422  24.861  21.272  1.00  0.00     0.029 C 
HETATM    9  C32 UNL     1      21.399  24.689  19.851  1.00  0.00     0.029 C 
HETATM   10  O2  UNL     1      16.618  25.595  18.053  1.00  0.00    -0.270 OA
BRANCH   4  11
HETATM   11  C9  UNL     1      19.799  24.405  17.504  1.00  0.00     0.242 C 
HETATM   12  N1  UNL     1      20.225  25.537  16.763  1.00  0.00    -0.355 N 
ATOM     13  H1  UNL     1      20.062  26.459  17.166  1.00  0.00     0.162 HD
HETATM   14  O1  UNL     1      19.981  23.249  17.053  1.00  0.00    -0.271 OA
BRANCH  12  15
HETATM   15  C8  UNL     1      20.868  25.469  15.489  1.00  0.00     0.161 C 
BRANCH  15  16
HETATM   16  C7  UNL     1      21.457  26.743  15.023  1.00  0.00    -0.035 A 
HETATM   17  C2  UNL     1      20.762  27.418  14.020  1.00  0.00    -0.054 A 
HETATM   18  C1  UNL     1      19.491  26.881  13.464  1.00  0.00     0.049 C 
HETATM   19  C3  UNL     1      21.279  28.607  13.548  1.00  0.00     0.007 A 
HETATM   20  C4  UNL     1      22.448  29.100  14.061  1.00  0.00     0.001 A 
HETATM   21  C5  UNL     1      23.167  28.466  15.050  1.00  0.00     0.001 A 
HETATM   22  C6  UNL     1      22.625  27.267  15.511  1.00  0.00     0.009 A 
ENDBRANCH  15  16
ENDBRANCH  12  15
ENDBRANCH   4  11
ENDBRANCH   1   2
BRANCH   1  23
HETATM   23  O3  UNL     1      14.284  24.510  18.650  1.00  0.00    -0.384 OA
ATOM     24  H3  UNL     1      13.664  24.366  17.944  1.00  0.00     0.210 HD
ENDBRANCH   1  23
BRANCH   1  25
HETATM   25  C13 UNL     1      15.202  22.641  17.470  1.00  0.00     0.127 C 
BRANCH  25  26
HETATM   26  C14 UNL     1      14.985  23.324  16.167  1.00  0.00     0.066 C 
BRANCH  26  27
HETATM   27  C15 UNL     1      14.409  22.514  15.090  1.00  0.00    -0.056 A 
HETATM   28  C16 UNL     1      13.050  22.482  14.918  1.00  0.00     0.007 A 
HETATM   29  C17 UNL     1      12.413  21.733  13.929  1.00  0.00     0.001 A 
HETATM   30  C18 UNL     1      13.208  20.992  13.088  1.00  0.00     0.000 A 
HETATM   31  C19 UNL     1      14.592  20.995  13.224  1.00  0.00     0.001 A 
HETATM   32  C20 UNL     1      15.162  21.752  14.216  1.00  0.00     0.007 A 
ENDBRANCH  26  27
ENDBRANCH  25  26
BRANCH  25  33
HETATM   33  N3  UNL     1      14.132  21.715  17.805  1.00  0.00    -0.349 N 
HETATM   34  C21 UNL     1      14.292  20.429  18.324  1.00  0.00     0.252 C 
HETATM   35  O4  UNL     1      15.465  20.016  18.525  1.00  0.00    -0.268 OA
ATOM     36  H3  UNL     1      13.177  22.035  17.647  1.00  0.00     0.163 HD
BRANCH  34  37
HETATM   37  C22 UNL     1      13.211  19.510  18.663  1.00  0.00     0.040 A 
HETATM   38  C23 UNL     1      12.134  19.295  17.839  1.00  0.00     0.018 A 
HETATM   39  C24 UNL     1      11.172  18.393  18.255  1.00  0.00     0.004 A 
HETATM   40  C25 UNL     1      11.278  17.725  19.454  1.00  0.00     0.037 A 
HETATM   41  C26 UNL     1      12.367  17.937  20.294  1.00  0.00     0.072 A 
HETATM   42  C27 UNL     1      13.321  18.832  19.883  1.00  0.00    -0.013 A 
HETATM   43  C28 UNL     1      14.509  19.116  20.754  1.00  0.00     0.052 C 
BRANCH  41  44
HETATM   44  O5  UNL     1      12.458  17.260  21.487  1.00  0.00    -0.360 OA
ATOM     45  H5  UNL     1      13.277  17.253  21.969  1.00  0.00     0.217 HD
ENDBRANCH  41  44
ENDBRANCH  34  37
ENDBRANCH  25  33
ENDBRANCH   1  25
TORSDOF 11
ENDMDL
