MODEL 8
REMARK VINA RESULT: -10.579888978      2.023      4.527
REMARK  11 active torsions:
REMARK  status: ('A' for Active; 'I' for Inactive)
REMARK    1  A    between atoms: C7_7  and  C8_8 
REMARK    2  A    between atoms: C8_8  and  N1_9 
REMARK       I    between atoms: N1_9  and  C9_11 
REMARK    3  A    between atoms: C9_11  and  C10_13 
REMARK       I    between atoms: N2_14  and  C11_15 
REMARK    4  A    between atoms: C11_15  and  C12_17 
REMARK    5  A    between atoms: C12_17  and  O3_18 
REMARK    6  A    between atoms: C12_17  and  C13_20 
REMARK    7  A    between atoms: C13_20  and  C14_21 
REMARK    8  A    between atoms: C13_20  and  N3_28 
REMARK    9  A    between atoms: C14_21  and  C15_22 
REMARK       I    between atoms: N3_28  and  C21_30 
REMARK   10  A    between atoms: C21_30  and  C22_32 
REMARK   11  A    between atoms: C26_36  and  O5_37 
ROOT
HETATM    1  C12 UNL     1      17.726  22.469  18.948  1.00  0.00     0.233 C 
ENDROOT
BRANCH   1   2
HETATM    2  C11 UNL     1      18.184  23.832  19.029  1.00  0.00     0.252 C 
HETATM    3  N2  UNL     1      19.555  24.184  19.285  1.00  0.00    -0.326 N 
HETATM    4  C10 UNL     1      20.036  25.565  19.348  1.00  0.00     0.198 C 
HETATM    5  C29 UNL     1      20.567  23.187  19.493  1.00  0.00     0.201 C 
HETATM    6  C30 UNL     1      21.048  25.690  20.434  1.00  0.00     0.032 C 
HETATM    7  S1  UNL     1      22.029  24.183  20.003  1.00  0.00    -0.137 SA
HETATM    8  C31 UNL     1      20.467  25.544  21.808  1.00  0.00     0.029 C 
HETATM    9  C32 UNL     1      21.856  26.932  20.358  1.00  0.00     0.029 C 
HETATM   10  O2  UNL     1      17.377  24.779  18.870  1.00  0.00    -0.270 OA
BRANCH   4  11
HETATM   11  C9  UNL     1      20.459  26.055  18.028  1.00  0.00     0.242 C 
HETATM   12  N1  UNL     1      20.825  25.121  17.026  1.00  0.00    -0.355 N 
ATOM     13  H1  UNL     1      20.777  24.129  17.259  1.00  0.00     0.162 HD
HETATM   14  O1  UNL     1      20.498  27.286  17.789  1.00  0.00    -0.271 OA
BRANCH  12  15
HETATM   15  C8  UNL     1      21.257  25.478  15.712  1.00  0.00     0.161 C 
BRANCH  15  16
HETATM   16  C7  UNL     1      20.203  26.051  14.848  1.00  0.00    -0.035 A 
HETATM   17  C2  UNL     1      20.495  27.272  14.239  1.00  0.00    -0.054 A 
HETATM   18  C1  UNL     1      21.804  27.946  14.447  1.00  0.00     0.049 C 
HETATM   19  C3  UNL     1      19.537  27.850  13.431  1.00  0.00     0.007 A 
HETATM   20  C4  UNL     1      18.333  27.227  13.240  1.00  0.00     0.001 A 
HETATM   21  C5  UNL     1      18.003  26.024  13.821  1.00  0.00     0.001 A 
HETATM   22  C6  UNL     1      18.986  25.460  14.634  1.00  0.00     0.009 A 
ENDBRANCH  15  16
ENDBRANCH  12  15
ENDBRANCH   4  11
ENDBRANCH   1   2
BRANCH   1  23
HETATM   23  O3  UNL     1      18.409  21.643  19.813  1.00  0.00    -0.384 OA
ATOM     24  H3  UNL     1      17.944  20.830  19.972  1.00  0.00     0.210 HD
ENDBRANCH   1  23
BRANCH   1  25
HETATM   25  C13 UNL     1      16.230  22.299  19.072  1.00  0.00     0.127 C 
BRANCH  25  26
HETATM   26  C14 UNL     1      15.926  21.498  20.288  1.00  0.00     0.066 C 
BRANCH  26  27
HETATM   27  C15 UNL     1      15.203  20.239  20.081  1.00  0.00    -0.056 A 
HETATM   28  C16 UNL     1      14.585  19.630  21.140  1.00  0.00     0.007 A 
HETATM   29  C17 UNL     1      13.884  18.429  21.041  1.00  0.00     0.001 A 
HETATM   30  C18 UNL     1      13.820  17.837  19.803  1.00  0.00     0.000 A 
HETATM   31  C19 UNL     1      14.431  18.420  18.697  1.00  0.00     0.001 A 
HETATM   32  C20 UNL     1      15.107  19.603  18.857  1.00  0.00     0.007 A 
ENDBRANCH  26  27
ENDBRANCH  25  26
BRANCH  25  33
HETATM   33  N3  UNL     1      15.671  21.717  17.861  1.00  0.00    -0.349 N 
HETATM   34  C21 UNL     1      14.747  22.326  17.010  1.00  0.00     0.252 C 
HETATM   35  O4  UNL     1      14.349  23.484  17.303  1.00  0.00    -0.268 OA
ATOM     36  H3  UNL     1      15.983  20.779  17.612  1.00  0.00     0.163 HD
BRANCH  34  37
HETATM   37  C22 UNL     1      14.197  21.736  15.794  1.00  0.00     0.040 A 
HETATM   38  C23 UNL     1      13.021  21.026  15.780  1.00  0.00     0.018 A 
HETATM   39  C24 UNL     1      12.587  20.519  14.569  1.00  0.00     0.004 A 
HETATM   40  C25 UNL     1      13.300  20.713  13.407  1.00  0.00     0.037 A 
HETATM   41  C26 UNL     1      14.491  21.433  13.414  1.00  0.00     0.072 A 
HETATM   42  C27 UNL     1      14.923  21.934  14.614  1.00  0.00    -0.013 A 
HETATM   43  C28 UNL     1      16.210  22.702  14.688  1.00  0.00     0.052 C 
BRANCH  41  44
HETATM   44  O5  UNL     1      15.189  21.618  12.244  1.00  0.00    -0.360 OA
ATOM     45  H5  UNL     1      15.688  22.416  12.109  1.00  0.00     0.217 HD
ENDBRANCH  41  44
ENDBRANCH  34  37
ENDBRANCH  25  33
ENDBRANCH   1  25
TORSDOF 11
ENDMDL
