MODEL 1
REMARK VINA RESULT: -11.824955737      0.000      0.000
REMARK  11 active torsions:
REMARK  status: ('A' for Active; 'I' for Inactive)
REMARK    1  A    between atoms: C7_7  and  C8_8 
REMARK    2  A    between atoms: C8_8  and  N1_9 
REMARK       I    between atoms: N1_9  and  C9_11 
REMARK    3  A    between atoms: C9_11  and  C10_13 
REMARK       I    between atoms: N2_14  and  C11_15 
REMARK    4  A    between atoms: C11_15  and  C12_17 
REMARK    5  A    between atoms: C12_17  and  O3_18 
REMARK    6  A    between atoms: C12_17  and  C13_20 
REMARK    7  A    between atoms: C13_20  and  C14_21 
REMARK    8  A    between atoms: C13_20  and  N3_28 
REMARK    9  A    between atoms: C14_21  and  C15_22 
REMARK       I    between atoms: N3_28  and  C21_30 
REMARK   10  A    between atoms: C21_30  and  C22_32 
REMARK   11  A    between atoms: C26_36  and  O5_37 
ROOT
HETATM    1  C12 UNL     1      16.002  22.012  19.282  1.00  0.00     0.233 C 
ENDROOT
BRANCH   1   2
HETATM    2  C11 UNL     1      16.701  23.212  18.903  1.00  0.00     0.252 C 
HETATM    3  N2  UNL     1      18.119  23.383  19.081  1.00  0.00    -0.326 N 
HETATM    4  C10 UNL     1      18.844  24.590  18.680  1.00  0.00     0.198 C 
HETATM    5  C29 UNL     1      18.937  22.359  19.666  1.00  0.00     0.201 C 
HETATM    6  C30 UNL     1      19.884  24.905  19.698  1.00  0.00     0.032 C 
HETATM    7  S1  UNL     1      20.567  23.194  19.860  1.00  0.00    -0.137 SA
HETATM    8  C31 UNL     1      19.317  25.354  21.010  1.00  0.00     0.029 C 
HETATM    9  C32 UNL     1      20.904  25.877  19.230  1.00  0.00     0.029 C 
HETATM   10  O2  UNL     1      16.076  24.172  18.391  1.00  0.00    -0.270 OA
BRANCH   4  11
HETATM   11  C9  UNL     1      19.320  24.503  17.292  1.00  0.00     0.242 C 
HETATM   12  N1  UNL     1      20.259  25.456  16.820  1.00  0.00    -0.355 N 
ATOM     13  H1  UNL     1      20.577  26.174  17.470  1.00  0.00     0.162 HD
HETATM   14  O1  UNL     1      18.901  23.598  16.531  1.00  0.00    -0.271 OA
BRANCH  12  15
HETATM   15  C8  UNL     1      20.787  25.476  15.493  1.00  0.00     0.161 C 
BRANCH  15  16
HETATM   16  C7  UNL     1      21.265  26.799  15.035  1.00  0.00    -0.035 A 
HETATM   17  C2  UNL     1      20.426  27.496  14.167  1.00  0.00    -0.054 A 
HETATM   18  C1  UNL     1      19.117  26.934  13.738  1.00  0.00     0.049 C 
HETATM   19  C3  UNL     1      20.836  28.731  13.706  1.00  0.00     0.007 A 
HETATM   20  C4  UNL     1      22.040  29.247  14.102  1.00  0.00     0.001 A 
HETATM   21  C5  UNL     1      22.898  28.593  14.957  1.00  0.00     0.001 A 
HETATM   22  C6  UNL     1      22.463  27.347  15.408  1.00  0.00     0.009 A 
ENDBRANCH  15  16
ENDBRANCH  12  15
ENDBRANCH   4  11
ENDBRANCH   1   2
BRANCH   1  23
HETATM   23  O3  UNL     1      15.332  22.161  20.477  1.00  0.00    -0.384 OA
ATOM     24  H3  UNL     1      14.482  22.569  20.360  1.00  0.00     0.210 HD
ENDBRANCH   1  23
BRANCH   1  25
HETATM   25  C13 UNL     1      15.112  21.435  18.207  1.00  0.00     0.127 C 
BRANCH  25  26
HETATM   26  C14 UNL     1      15.111  19.951  18.316  1.00  0.00     0.066 C 
BRANCH  26  27
HETATM   27  C15 UNL     1      13.883  19.332  18.824  1.00  0.00    -0.056 A 
HETATM   28  C16 UNL     1      12.689  19.591  18.207  1.00  0.00     0.007 A 
HETATM   29  C17 UNL     1      11.470  19.056  18.625  1.00  0.00     0.001 A 
HETATM   30  C18 UNL     1      11.488  18.225  19.719  1.00  0.00     0.000 A 
HETATM   31  C19 UNL     1      12.679  17.932  20.376  1.00  0.00     0.001 A 
HETATM   32  C20 UNL     1      13.846  18.488  19.918  1.00  0.00     0.007 A 
ENDBRANCH  26  27
ENDBRANCH  25  26
BRANCH  25  33
HETATM   33  N3  UNL     1      15.518  21.901  16.890  1.00  0.00    -0.349 N 
HETATM   34  C21 UNL     1      14.768  22.718  16.043  1.00  0.00     0.252 C 
HETATM   35  O4  UNL     1      13.632  23.093  16.437  1.00  0.00    -0.268 OA
ATOM     36  H3  UNL     1      16.435  21.605  16.556  1.00  0.00     0.163 HD
BRANCH  34  37
HETATM   37  C22 UNL     1      15.187  23.186  14.725  1.00  0.00     0.040 A 
HETATM   38  C23 UNL     1      15.965  24.303  14.548  1.00  0.00     0.018 A 
HETATM   39  C24 UNL     1      16.311  24.650  13.255  1.00  0.00     0.004 A 
HETATM   40  C25 UNL     1      15.898  23.908  12.171  1.00  0.00     0.037 A 
HETATM   41  C26 UNL     1      15.109  22.774  12.344  1.00  0.00     0.072 A 
HETATM   42  C27 UNL     1      14.764  22.430  13.625  1.00  0.00    -0.013 A 
HETATM   43  C28 UNL     1      13.901  21.228  13.873  1.00  0.00     0.052 C 
BRANCH  41  44
HETATM   44  O5  UNL     1      14.706  22.044  11.251  1.00  0.00    -0.360 OA
ATOM     45  H5  UNL     1      14.404  21.150  11.362  1.00  0.00     0.217 HD
ENDBRANCH  41  44
ENDBRANCH  34  37
ENDBRANCH  25  33
ENDBRANCH   1  25
TORSDOF 11
ENDMDL
