MODEL 2
REMARK VINA RESULT: -11.499481397      0.238      1.074
REMARK  11 active torsions:
REMARK  status: ('A' for Active; 'I' for Inactive)
REMARK    1  A    between atoms: C7_7  and  C8_8 
REMARK    2  A    between atoms: C8_8  and  N1_9 
REMARK       I    between atoms: N1_9  and  C9_11 
REMARK    3  A    between atoms: C9_11  and  C10_13 
REMARK       I    between atoms: N2_14  and  C11_15 
REMARK    4  A    between atoms: C11_15  and  C12_17 
REMARK    5  A    between atoms: C12_17  and  O3_18 
REMARK    6  A    between atoms: C12_17  and  C13_20 
REMARK    7  A    between atoms: C13_20  and  C14_21 
REMARK    8  A    between atoms: C13_20  and  N3_28 
REMARK    9  A    between atoms: C14_21  and  C15_22 
REMARK       I    between atoms: N3_28  and  C21_30 
REMARK   10  A    between atoms: C21_30  and  C22_32 
REMARK   11  A    between atoms: C26_36  and  O5_37 
ROOT
HETATM    1  C12 UNL     1      16.066  22.040  19.253  1.00  0.00     0.233 C 
ENDROOT
BRANCH   1   2
HETATM    2  C11 UNL     1      16.761  23.238  18.861  1.00  0.00     0.252 C 
HETATM    3  N2  UNL     1      18.177  23.417  19.041  1.00  0.00    -0.326 N 
HETATM    4  C10 UNL     1      18.898  24.623  18.627  1.00  0.00     0.198 C 
HETATM    5  C29 UNL     1      18.999  22.405  19.641  1.00  0.00     0.201 C 
HETATM    6  C30 UNL     1      19.934  24.956  19.644  1.00  0.00     0.032 C 
HETATM    7  S1  UNL     1      20.624  23.250  19.831  1.00  0.00    -0.137 SA
HETATM    8  C31 UNL     1      19.360  25.419  20.948  1.00  0.00     0.029 C 
HETATM    9  C32 UNL     1      20.950  25.926  19.167  1.00  0.00     0.029 C 
HETATM   10  O2  UNL     1      16.134  24.188  18.334  1.00  0.00    -0.270 OA
BRANCH   4  11
HETATM   11  C9  UNL     1      19.379  24.521  17.242  1.00  0.00     0.242 C 
HETATM   12  N1  UNL     1      20.343  25.449  16.772  1.00  0.00    -0.355 N 
ATOM     13  H1  UNL     1      20.675  26.161  17.422  1.00  0.00     0.162 HD
HETATM   14  O1  UNL     1      18.943  23.624  16.481  1.00  0.00    -0.271 OA
BRANCH  12  15
HETATM   15  C8  UNL     1      20.879  25.453  15.448  1.00  0.00     0.161 C 
BRANCH  15  16
HETATM   16  C7  UNL     1      21.166  26.795  14.898  1.00  0.00    -0.035 A 
HETATM   17  C2  UNL     1      22.402  27.351  15.230  1.00  0.00    -0.054 A 
HETATM   18  C1  UNL     1      23.376  26.618  16.082  1.00  0.00     0.049 C 
HETATM   19  C3  UNL     1      22.709  28.607  14.747  1.00  0.00     0.007 A 
HETATM   20  C4  UNL     1      21.812  29.280  13.962  1.00  0.00     0.001 A 
HETATM   21  C5  UNL     1      20.582  28.770  13.612  1.00  0.00     0.001 A 
HETATM   22  C6  UNL     1      20.294  27.500  14.112  1.00  0.00     0.009 A 
ENDBRANCH  15  16
ENDBRANCH  12  15
ENDBRANCH   4  11
ENDBRANCH   1   2
BRANCH   1  23
HETATM   23  O3  UNL     1      15.408  22.195  20.453  1.00  0.00    -0.384 OA
ATOM     24  H3  UNL     1      14.616  21.672  20.494  1.00  0.00     0.210 HD
ENDBRANCH   1  23
BRANCH   1  25
HETATM   25  C13 UNL     1      15.167  21.456  18.188  1.00  0.00     0.127 C 
BRANCH  25  26
HETATM   26  C14 UNL     1      15.168  19.973  18.305  1.00  0.00     0.066 C 
BRANCH  26  27
HETATM   27  C15 UNL     1      13.938  19.354  18.808  1.00  0.00    -0.056 A 
HETATM   28  C16 UNL     1      12.748  19.605  18.179  1.00  0.00     0.007 A 
HETATM   29  C17 UNL     1      11.527  19.069  18.590  1.00  0.00     0.001 A 
HETATM   30  C18 UNL     1      11.539  18.246  19.690  1.00  0.00     0.000 A 
HETATM   31  C19 UNL     1      12.724  17.961  20.360  1.00  0.00     0.001 A 
HETATM   32  C20 UNL     1      13.894  18.517  19.907  1.00  0.00     0.007 A 
ENDBRANCH  26  27
ENDBRANCH  25  26
BRANCH  25  33
HETATM   33  N3  UNL     1      15.560  21.916  16.866  1.00  0.00    -0.349 N 
HETATM   34  C21 UNL     1      14.806  22.737  16.026  1.00  0.00     0.252 C 
HETATM   35  O4  UNL     1      13.679  23.124  16.435  1.00  0.00    -0.268 OA
ATOM     36  H3  UNL     1      16.469  21.610  16.521  1.00  0.00     0.163 HD
BRANCH  34  37
HETATM   37  C22 UNL     1      15.211  23.199  14.703  1.00  0.00     0.040 A 
HETATM   38  C23 UNL     1      15.991  24.314  14.512  1.00  0.00     0.018 A 
HETATM   39  C24 UNL     1      16.324  24.654  13.214  1.00  0.00     0.004 A 
HETATM   40  C25 UNL     1      15.897  23.909  12.138  1.00  0.00     0.037 A 
HETATM   41  C26 UNL     1      15.108  22.778  12.324  1.00  0.00     0.072 A 
HETATM   42  C27 UNL     1      14.775  22.440  13.611  1.00  0.00    -0.013 A 
HETATM   43  C28 UNL     1      13.912  21.241  13.873  1.00  0.00     0.052 C 
BRANCH  41  44
HETATM   44  O5  UNL     1      14.691  22.044  11.238  1.00  0.00    -0.360 OA
ATOM     45  H5  UNL     1      13.990  21.410  11.334  1.00  0.00     0.217 HD
ENDBRANCH  41  44
ENDBRANCH  34  37
ENDBRANCH  25  33
ENDBRANCH   1  25
TORSDOF 11
ENDMDL
