MODEL 5
REMARK VINA RESULT: -11.278689798      0.881      1.523
REMARK  11 active torsions:
REMARK  status: ('A' for Active; 'I' for Inactive)
REMARK    1  A    between atoms: C7_7  and  C8_8 
REMARK    2  A    between atoms: C8_8  and  N1_9 
REMARK       I    between atoms: N1_9  and  C9_11 
REMARK    3  A    between atoms: C9_11  and  C10_13 
REMARK       I    between atoms: N2_14  and  C11_15 
REMARK    4  A    between atoms: C11_15  and  C12_17 
REMARK    5  A    between atoms: C12_17  and  O3_18 
REMARK    6  A    between atoms: C12_17  and  C13_20 
REMARK    7  A    between atoms: C13_20  and  C14_21 
REMARK    8  A    between atoms: C13_20  and  N3_28 
REMARK    9  A    between atoms: C14_21  and  C15_22 
REMARK       I    between atoms: N3_28  and  C21_30 
REMARK   10  A    between atoms: C21_30  and  C22_32 
REMARK   11  A    between atoms: C26_36  and  O5_37 
ROOT
HETATM    1  C12 UNL     1      15.871  21.462  19.281  1.00  0.00     0.233 C 
ENDROOT
BRANCH   1   2
HETATM    2  C11 UNL     1      16.459  22.709  18.866  1.00  0.00     0.252 C 
HETATM    3  N2  UNL     1      17.848  23.027  19.066  1.00  0.00    -0.326 N 
HETATM    4  C10 UNL     1      18.460  24.283  18.630  1.00  0.00     0.198 C 
HETATM    5  C29 UNL     1      18.748  22.114  19.712  1.00  0.00     0.201 C 
HETATM    6  C30 UNL     1      19.439  24.741  19.655  1.00  0.00     0.032 C 
HETATM    7  S1  UNL     1      20.282  23.114  19.905  1.00  0.00    -0.137 SA
HETATM    8  C31 UNL     1      18.796  25.185  20.934  1.00  0.00     0.029 C 
HETATM    9  C32 UNL     1      20.368  25.790  19.167  1.00  0.00     0.029 C 
HETATM   10  O2  UNL     1      15.756  23.580  18.300  1.00  0.00    -0.270 OA
BRANCH   4  11
HETATM   11  C9  UNL     1      18.978  24.188  17.257  1.00  0.00     0.242 C 
HETATM   12  N1  UNL     1      19.724  25.268  16.721  1.00  0.00    -0.355 N 
ATOM     13  H1  UNL     1      19.881  26.081  17.316  1.00  0.00     0.162 HD
HETATM   14  O1  UNL     1      18.761  23.164  16.565  1.00  0.00    -0.271 OA
BRANCH  12  15
HETATM   15  C8  UNL     1      20.271  25.292  15.401  1.00  0.00     0.161 C 
BRANCH  15  16
HETATM   16  C7  UNL     1      20.835  26.594  14.987  1.00  0.00    -0.035 A 
HETATM   17  C2  UNL     1      20.028  27.393  14.178  1.00  0.00    -0.054 A 
HETATM   18  C1  UNL     1      18.667  26.952  13.768  1.00  0.00     0.049 C 
HETATM   19  C3  UNL     1      20.518  28.613  13.760  1.00  0.00     0.007 A 
HETATM   20  C4  UNL     1      21.769  29.018  14.139  1.00  0.00     0.001 A 
HETATM   21  C5  UNL     1      22.600  28.262  14.934  1.00  0.00     0.001 A 
HETATM   22  C6  UNL     1      22.084  27.032  15.343  1.00  0.00     0.009 A 
ENDBRANCH  15  16
ENDBRANCH  12  15
ENDBRANCH   4  11
ENDBRANCH   1   2
BRANCH   1  23
HETATM   23  O3  UNL     1      15.391  21.522  20.571  1.00  0.00    -0.384 OA
ATOM     24  H3  UNL     1      15.146  20.665  20.900  1.00  0.00     0.210 HD
ENDBRANCH   1  23
BRANCH   1  25
HETATM   25  C13 UNL     1      14.848  20.898  18.324  1.00  0.00     0.127 C 
BRANCH  25  26
HETATM   26  C14 UNL     1      14.695  19.439  18.574  1.00  0.00     0.066 C 
BRANCH  26  27
HETATM   27  C15 UNL     1      13.370  18.983  19.006  1.00  0.00    -0.056 A 
HETATM   28  C16 UNL     1      13.215  18.441  20.254  1.00  0.00     0.007 A 
HETATM   29  C17 UNL     1      11.997  17.972  20.748  1.00  0.00     0.001 A 
HETATM   30  C18 UNL     1      10.904  18.067  19.922  1.00  0.00     0.000 A 
HETATM   31  C19 UNL     1      11.014  18.612  18.646  1.00  0.00     0.001 A 
HETATM   32  C20 UNL     1      12.238  19.057  18.217  1.00  0.00     0.007 A 
ENDBRANCH  26  27
ENDBRANCH  25  26
BRANCH  25  33
HETATM   33  N3  UNL     1      15.203  21.198  16.946  1.00  0.00    -0.349 N 
HETATM   34  C21 UNL     1      14.317  21.574  15.935  1.00  0.00     0.252 C 
HETATM   35  O4  UNL     1      13.095  21.664  16.225  1.00  0.00    -0.268 OA
ATOM     36  H3  UNL     1      16.189  21.128  16.697  1.00  0.00     0.163 HD
BRANCH  34  37
HETATM   37  C22 UNL     1      14.684  21.879  14.556  1.00  0.00     0.040 A 
HETATM   38  C23 UNL     1      14.418  21.028  13.512  1.00  0.00     0.018 A 
HETATM   39  C24 UNL     1      14.801  21.423  12.243  1.00  0.00     0.004 A 
HETATM   40  C25 UNL     1      15.429  22.628  12.019  1.00  0.00     0.037 A 
HETATM   41  C26 UNL     1      15.701  23.496  13.073  1.00  0.00     0.072 A 
HETATM   42  C27 UNL     1      15.323  23.104  14.331  1.00  0.00    -0.013 A 
HETATM   43  C28 UNL     1      15.605  23.990  15.510  1.00  0.00     0.052 C 
BRANCH  41  44
HETATM   44  O5  UNL     1      16.327  24.696  12.832  1.00  0.00    -0.360 OA
ATOM     45  H5  UNL     1      16.019  25.260  12.132  1.00  0.00     0.217 HD
ENDBRANCH  41  44
ENDBRANCH  34  37
ENDBRANCH  25  33
ENDBRANCH   1  25
TORSDOF 11
ENDMDL
