MODEL 6
REMARK VINA RESULT: -11.242488620      1.598      4.880
REMARK  11 active torsions:
REMARK  status: ('A' for Active; 'I' for Inactive)
REMARK    1  A    between atoms: C7_7  and  C8_8 
REMARK    2  A    between atoms: C8_8  and  N1_9 
REMARK       I    between atoms: N1_9  and  C9_11 
REMARK    3  A    between atoms: C9_11  and  C10_13 
REMARK       I    between atoms: N2_14  and  C11_15 
REMARK    4  A    between atoms: C11_15  and  C12_17 
REMARK    5  A    between atoms: C12_17  and  O3_18 
REMARK    6  A    between atoms: C12_17  and  C13_20 
REMARK    7  A    between atoms: C13_20  and  C14_21 
REMARK    8  A    between atoms: C13_20  and  N3_28 
REMARK    9  A    between atoms: C14_21  and  C15_22 
REMARK       I    between atoms: N3_28  and  C21_30 
REMARK   10  A    between atoms: C21_30  and  C22_32 
REMARK   11  A    between atoms: C26_36  and  O5_37 
ROOT
HETATM    1  C12 UNL     1      14.706  23.918  18.192  1.00  0.00     0.233 C 
ENDROOT
BRANCH   1   2
HETATM    2  C11 UNL     1      15.998  24.554  18.176  1.00  0.00     0.252 C 
HETATM    3  N2  UNL     1      17.209  23.880  18.562  1.00  0.00    -0.326 N 
HETATM    4  C10 UNL     1      18.530  24.511  18.530  1.00  0.00     0.198 C 
HETATM    5  C29 UNL     1      17.208  22.515  19.005  1.00  0.00     0.201 C 
HETATM    6  C30 UNL     1      19.319  24.070  19.714  1.00  0.00     0.032 C 
HETATM    7  S1  UNL     1      18.939  22.265  19.580  1.00  0.00    -0.137 SA
HETATM    8  C31 UNL     1      18.796  24.607  21.011  1.00  0.00     0.029 C 
HETATM    9  C32 UNL     1      20.772  24.351  19.602  1.00  0.00     0.029 C 
HETATM   10  O2  UNL     1      16.108  25.750  17.813  1.00  0.00    -0.270 OA
BRANCH   4  11
HETATM   11  C9  UNL     1      19.187  24.332  17.228  1.00  0.00     0.242 C 
HETATM   12  N1  UNL     1      20.049  25.348  16.740  1.00  0.00    -0.355 N 
ATOM     13  H1  UNL     1      20.186  26.175  17.320  1.00  0.00     0.162 HD
HETATM   14  O1  UNL     1      18.989  23.293  16.552  1.00  0.00    -0.271 OA
BRANCH  12  15
HETATM   15  C8  UNL     1      20.736  25.288  15.489  1.00  0.00     0.161 C 
BRANCH  15  16
HETATM   16  C7  UNL     1      21.002  26.602  14.864  1.00  0.00    -0.035 A 
HETATM   17  C2  UNL     1      22.216  27.207  15.184  1.00  0.00    -0.054 A 
HETATM   18  C1  UNL     1      23.191  26.552  16.098  1.00  0.00     0.049 C 
HETATM   19  C3  UNL     1      22.503  28.439  14.632  1.00  0.00     0.007 A 
HETATM   20  C4  UNL     1      21.606  29.041  13.790  1.00  0.00     0.001 A 
HETATM   21  C5  UNL     1      20.396  28.479  13.449  1.00  0.00     0.001 A 
HETATM   22  C6  UNL     1      20.129  27.236  14.020  1.00  0.00     0.009 A 
ENDBRANCH  15  16
ENDBRANCH  12  15
ENDBRANCH   4  11
ENDBRANCH   1   2
BRANCH   1  23
HETATM   23  O3  UNL     1      13.680  24.835  18.242  1.00  0.00    -0.384 OA
ATOM     24  H3  UNL     1      13.094  24.754  17.498  1.00  0.00     0.210 HD
ENDBRANCH   1  23
BRANCH   1  25
HETATM   25  C13 UNL     1      14.495  22.894  17.101  1.00  0.00     0.127 C 
BRANCH  25  26
HETATM   26  C14 UNL     1      13.942  23.570  15.896  1.00  0.00     0.066 C 
BRANCH  26  27
HETATM   27  C15 UNL     1      14.357  23.034  14.596  1.00  0.00    -0.056 A 
HETATM   28  C16 UNL     1      15.252  23.732  13.830  1.00  0.00     0.007 A 
HETATM   29  C17 UNL     1      15.697  23.306  12.579  1.00  0.00     0.001 A 
HETATM   30  C18 UNL     1      15.199  22.117  12.104  1.00  0.00     0.000 A 
HETATM   31  C19 UNL     1      14.288  21.373  12.847  1.00  0.00     0.001 A 
HETATM   32  C20 UNL     1      13.889  21.843  14.072  1.00  0.00     0.007 A 
ENDBRANCH  26  27
ENDBRANCH  25  26
BRANCH  25  33
HETATM   33  N3  UNL     1      13.655  21.803  17.569  1.00  0.00    -0.349 N 
HETATM   34  C21 UNL     1      14.040  20.467  17.690  1.00  0.00     0.252 C 
HETATM   35  O4  UNL     1      15.219  20.161  17.369  1.00  0.00    -0.268 OA
ATOM     36  H3  UNL     1      12.697  22.035  17.831  1.00  0.00     0.163 HD
BRANCH  34  37
HETATM   37  C22 UNL     1      13.192  19.379  18.167  1.00  0.00     0.040 A 
HETATM   38  C23 UNL     1      13.538  18.578  19.227  1.00  0.00     0.018 A 
HETATM   39  C24 UNL     1      12.654  17.582  19.600  1.00  0.00     0.004 A 
HETATM   40  C25 UNL     1      11.460  17.390  18.939  1.00  0.00     0.037 A 
HETATM   41  C26 UNL     1      11.103  18.199  17.865  1.00  0.00     0.072 A 
HETATM   42  C27 UNL     1      11.980  19.185  17.494  1.00  0.00    -0.013 A 
HETATM   43  C28 UNL     1      11.658  20.078  16.331  1.00  0.00     0.052 C 
BRANCH  41  44
HETATM   44  O5  UNL     1       9.907  17.994  17.218  1.00  0.00    -0.360 OA
ATOM     45  H5  UNL     1       9.114  17.846  17.721  1.00  0.00     0.217 HD
ENDBRANCH  41  44
ENDBRANCH  34  37
ENDBRANCH  25  33
ENDBRANCH   1  25
TORSDOF 11
ENDMDL
