MODEL 4
REMARK VINA RESULT: -11.483596087      1.708      4.875
REMARK  11 active torsions:
REMARK  status: ('A' for Active; 'I' for Inactive)
REMARK    1  A    between atoms: C7_7  and  C8_8 
REMARK    2  A    between atoms: C8_8  and  N1_9 
REMARK       I    between atoms: N1_9  and  C9_11 
REMARK    3  A    between atoms: C9_11  and  C10_13 
REMARK       I    between atoms: N2_14  and  C11_15 
REMARK    4  A    between atoms: C11_15  and  C12_17 
REMARK    5  A    between atoms: C12_17  and  O3_18 
REMARK    6  A    between atoms: C12_17  and  C13_20 
REMARK    7  A    between atoms: C13_20  and  C14_21 
REMARK    8  A    between atoms: C13_20  and  N3_28 
REMARK    9  A    between atoms: C14_21  and  C15_22 
REMARK       I    between atoms: N3_28  and  C21_30 
REMARK   10  A    between atoms: C21_30  and  C22_32 
REMARK   11  A    between atoms: C26_36  and  O5_37 
ROOT
HETATM    1  C12 UNL     1      14.627  23.776  18.208  1.00  0.00     0.233 C 
ENDROOT
BRANCH   1   2
HETATM    2  C11 UNL     1      15.913  24.424  18.208  1.00  0.00     0.252 C 
HETATM    3  N2  UNL     1      17.126  23.759  18.603  1.00  0.00    -0.326 N 
HETATM    4  C10 UNL     1      18.442  24.401  18.588  1.00  0.00     0.198 C 
HETATM    5  C29 UNL     1      17.133  22.391  19.039  1.00  0.00     0.201 C 
HETATM    6  C30 UNL     1      19.222  23.961  19.778  1.00  0.00     0.032 C 
HETATM    7  S1  UNL     1      18.860  22.154  19.631  1.00  0.00    -0.137 SA
HETATM    8  C31 UNL     1      18.681  24.487  21.072  1.00  0.00     0.029 C 
HETATM    9  C32 UNL     1      20.674  24.256  19.682  1.00  0.00     0.029 C 
HETATM   10  O2  UNL     1      16.016  25.623  17.853  1.00  0.00    -0.270 OA
BRANCH   4  11
HETATM   11  C9  UNL     1      19.114  24.235  17.292  1.00  0.00     0.242 C 
HETATM   12  N1  UNL     1      19.873  25.310  16.761  1.00  0.00    -0.355 N 
ATOM     13  H1  UNL     1      19.929  26.168  17.308  1.00  0.00     0.162 HD
HETATM   14  O1  UNL     1      19.017  23.157  16.658  1.00  0.00    -0.271 OA
BRANCH  12  15
HETATM   15  C8  UNL     1      20.564  25.267  15.511  1.00  0.00     0.161 C 
BRANCH  15  16
HETATM   16  C7  UNL     1      21.044  26.578  15.024  1.00  0.00    -0.035 A 
HETATM   17  C2  UNL     1      20.188  27.276  14.172  1.00  0.00    -0.054 A 
HETATM   18  C1  UNL     1      18.859  26.727  13.791  1.00  0.00     0.049 C 
HETATM   19  C3  UNL     1      20.600  28.500  13.685  1.00  0.00     0.007 A 
HETATM   20  C4  UNL     1      21.822  29.005  14.038  1.00  0.00     0.001 A 
HETATM   21  C5  UNL     1      22.698  28.349  14.873  1.00  0.00     0.001 A 
HETATM   22  C6  UNL     1      22.261  27.114  15.352  1.00  0.00     0.009 A 
ENDBRANCH  15  16
ENDBRANCH  12  15
ENDBRANCH   4  11
ENDBRANCH   1   2
BRANCH   1  23
HETATM   23  O3  UNL     1      13.592  24.685  18.218  1.00  0.00    -0.384 OA
ATOM     24  H3  UNL     1      12.746  24.261  18.140  1.00  0.00     0.210 HD
ENDBRANCH   1  23
BRANCH   1  25
HETATM   25  C13 UNL     1      14.449  22.731  17.131  1.00  0.00     0.127 C 
BRANCH  25  26
HETATM   26  C14 UNL     1      14.166  23.406  15.836  1.00  0.00     0.066 C 
BRANCH  26  27
HETATM   27  C15 UNL     1      14.063  22.542  14.655  1.00  0.00    -0.056 A 
HETATM   28  C16 UNL     1      15.078  22.528  13.736  1.00  0.00     0.007 A 
HETATM   29  C17 UNL     1      15.064  21.747  12.580  1.00  0.00     0.001 A 
HETATM   30  C18 UNL     1      13.963  20.953  12.369  1.00  0.00     0.000 A 
HETATM   31  C19 UNL     1      12.909  20.934  13.277  1.00  0.00     0.001 A 
HETATM   32  C20 UNL     1      12.980  21.723  14.396  1.00  0.00     0.007 A 
ENDBRANCH  26  27
ENDBRANCH  25  26
BRANCH  25  33
HETATM   33  N3  UNL     1      13.420  21.773  17.503  1.00  0.00    -0.349 N 
HETATM   34  C21 UNL     1      13.596  20.396  17.647  1.00  0.00     0.252 C 
HETATM   35  O4  UNL     1      14.744  19.923  17.438  1.00  0.00    -0.268 OA
ATOM     36  H3  UNL     1      12.484  22.141  17.674  1.00  0.00     0.163 HD
BRANCH  34  37
HETATM   37  C22 UNL     1      12.558  19.442  18.026  1.00  0.00     0.040 A 
HETATM   38  C23 UNL     1      11.478  19.165  17.225  1.00  0.00     0.018 A 
HETATM   39  C24 UNL     1      10.559  18.236  17.679  1.00  0.00     0.004 A 
HETATM   40  C25 UNL     1      10.711  17.602  18.892  1.00  0.00     0.037 A 
HETATM   41  C26 UNL     1      11.804  17.878  19.708  1.00  0.00     0.072 A 
HETATM   42  C27 UNL     1      12.714  18.800  19.259  1.00  0.00    -0.013 A 
HETATM   43  C28 UNL     1      13.905  19.152  20.103  1.00  0.00     0.052 C 
BRANCH  41  44
HETATM   44  O5  UNL     1      11.941  17.234  20.915  1.00  0.00    -0.360 OA
ATOM     45  H5  UNL     1      11.268  17.324  21.580  1.00  0.00     0.217 HD
ENDBRANCH  41  44
ENDBRANCH  34  37
ENDBRANCH  25  33
ENDBRANCH   1  25
TORSDOF 11
ENDMDL
