MODEL 3
REMARK VINA RESULT: -11.492159212      1.641      4.798
REMARK  11 active torsions:
REMARK  status: ('A' for Active; 'I' for Inactive)
REMARK    1  A    between atoms: C7_7  and  C8_8 
REMARK    2  A    between atoms: C8_8  and  N1_9 
REMARK       I    between atoms: N1_9  and  C9_11 
REMARK    3  A    between atoms: C9_11  and  C10_13 
REMARK       I    between atoms: N2_14  and  C11_15 
REMARK    4  A    between atoms: C11_15  and  C12_17 
REMARK    5  A    between atoms: C12_17  and  O3_18 
REMARK    6  A    between atoms: C12_17  and  C13_20 
REMARK    7  A    between atoms: C13_20  and  C14_21 
REMARK    8  A    between atoms: C13_20  and  N3_28 
REMARK    9  A    between atoms: C14_21  and  C15_22 
REMARK       I    between atoms: N3_28  and  C21_30 
REMARK   10  A    between atoms: C21_30  and  C22_32 
REMARK   11  A    between atoms: C26_36  and  O5_37 
ROOT
HETATM    1  C12 UNL     1      14.600  23.824  18.195  1.00  0.00     0.233 C 
ENDROOT
BRANCH   1   2
HETATM    2  C11 UNL     1      15.901  24.441  18.204  1.00  0.00     0.252 C 
HETATM    3  N2  UNL     1      17.097  23.745  18.596  1.00  0.00    -0.326 N 
HETATM    4  C10 UNL     1      18.427  24.356  18.588  1.00  0.00     0.198 C 
HETATM    5  C29 UNL     1      17.070  22.374  19.021  1.00  0.00     0.201 C 
HETATM    6  C30 UNL     1      19.195  23.888  19.776  1.00  0.00     0.032 C 
HETATM    7  S1  UNL     1      18.790  22.091  19.614  1.00  0.00    -0.137 SA
HETATM    8  C31 UNL     1      18.663  24.416  21.073  1.00  0.00     0.029 C 
HETATM    9  C32 UNL     1      20.653  24.149  19.685  1.00  0.00     0.029 C 
HETATM   10  O2  UNL     1      16.032  25.640  17.857  1.00  0.00    -0.270 OA
BRANCH   4  11
HETATM   11  C9  UNL     1      19.098  24.184  17.291  1.00  0.00     0.242 C 
HETATM   12  N1  UNL     1      19.934  25.219  16.800  1.00  0.00    -0.355 N 
ATOM     13  H1  UNL     1      20.044  26.055  17.373  1.00  0.00     0.162 HD
HETATM   14  O1  UNL     1      18.933  23.134  16.624  1.00  0.00    -0.271 OA
BRANCH  12  15
HETATM   15  C8  UNL     1      20.631  25.168  15.554  1.00  0.00     0.161 C 
BRANCH  15  16
HETATM   16  C7  UNL     1      21.094  26.477  15.048  1.00  0.00    -0.035 A 
HETATM   17  C2  UNL     1      20.223  27.159  14.199  1.00  0.00    -0.054 A 
HETATM   18  C1  UNL     1      18.896  26.594  13.835  1.00  0.00     0.049 C 
HETATM   19  C3  UNL     1      20.619  28.382  13.695  1.00  0.00     0.007 A 
HETATM   20  C4  UNL     1      21.840  28.901  14.030  1.00  0.00     0.001 A 
HETATM   21  C5  UNL     1      22.730  28.262  14.864  1.00  0.00     0.001 A 
HETATM   22  C6  UNL     1      22.309  27.029  15.360  1.00  0.00     0.009 A 
ENDBRANCH  15  16
ENDBRANCH  12  15
ENDBRANCH   4  11
ENDBRANCH   1   2
BRANCH   1  23
HETATM   23  O3  UNL     1      13.587  24.755  18.254  1.00  0.00    -0.384 OA
ATOM     24  H3  UNL     1      12.802  24.456  17.810  1.00  0.00     0.210 HD
ENDBRANCH   1  23
BRANCH   1  25
HETATM   25  C13 UNL     1      14.383  22.825  17.083  1.00  0.00     0.127 C 
BRANCH  25  26
HETATM   26  C14 UNL     1      13.856  23.533  15.885  1.00  0.00     0.066 C 
BRANCH  26  27
HETATM   27  C15 UNL     1      14.338  23.064  14.582  1.00  0.00    -0.056 A 
HETATM   28  C16 UNL     1      15.262  23.805  13.895  1.00  0.00     0.007 A 
HETATM   29  C17 UNL     1      15.770  23.444  12.647  1.00  0.00     0.001 A 
HETATM   30  C18 UNL     1      15.306  22.277  12.091  1.00  0.00     0.000 A 
HETATM   31  C19 UNL     1      14.368  21.491  12.753  1.00  0.00     0.001 A 
HETATM   32  C20 UNL     1      13.906  21.898  13.979  1.00  0.00     0.007 A 
ENDBRANCH  26  27
ENDBRANCH  25  26
BRANCH  25  33
HETATM   33  N3  UNL     1      13.519  21.740  17.519  1.00  0.00    -0.349 N 
HETATM   34  C21 UNL     1      13.877  20.393  17.609  1.00  0.00     0.252 C 
HETATM   35  O4  UNL     1      15.050  20.072  17.285  1.00  0.00    -0.268 OA
ATOM     36  H3  UNL     1      12.566  21.985  17.784  1.00  0.00     0.163 HD
BRANCH  34  37
HETATM   37  C22 UNL     1      13.004  19.312  18.055  1.00  0.00     0.040 A 
HETATM   38  C23 UNL     1      13.300  18.517  19.135  1.00  0.00     0.018 A 
HETATM   39  C24 UNL     1      12.397  17.527  19.475  1.00  0.00     0.004 A 
HETATM   40  C25 UNL     1      11.233  17.334  18.764  1.00  0.00     0.037 A 
HETATM   41  C26 UNL     1      10.927  18.136  17.669  1.00  0.00     0.072 A 
HETATM   42  C27 UNL     1      11.823  19.117  17.330  1.00  0.00    -0.013 A 
HETATM   43  C28 UNL     1      11.555  20.002  16.148  1.00  0.00     0.052 C 
BRANCH  41  44
HETATM   44  O5  UNL     1       9.760  17.931  16.971  1.00  0.00    -0.360 OA
ATOM     45  H5  UNL     1       9.792  17.622  16.073  1.00  0.00     0.217 HD
ENDBRANCH  41  44
ENDBRANCH  34  37
ENDBRANCH  25  33
ENDBRANCH   1  25
TORSDOF 11
ENDMDL
