MODEL 2
REMARK VINA RESULT: -7.661534555      4.814      8.092
REMARK  14 active torsions:
REMARK  status: ('A' for Active; 'I' for Inactive)
REMARK    1  A    between atoms: C2_2  and  C3_3 
REMARK    2  A    between atoms: C3_3  and  C5_5 
REMARK    3  A    between atoms: C6_8  and  O1_9 
REMARK    4  A    between atoms: C7_11  and  N2_12 
REMARK    5  A    between atoms: N2_12  and  C8_15 
REMARK    6  A    between atoms: C8_15  and  C9_16 
REMARK    7  A    between atoms: C9_16  and  O2_17 
REMARK    8  A    between atoms: C9_16  and  C10_19 
REMARK    9  A    between atoms: C10_19  and  C11_20 
REMARK   10  A    between atoms: C10_19  and  N3_27 
REMARK   11  A    between atoms: C11_20  and  C12_21 
REMARK       I    between atoms: N3_27  and  C18_29 
REMARK   12  A    between atoms: C18_29  and  O4_31 
REMARK   13  A    between atoms: O4_31  and  C19_32 
REMARK   14  A    between atoms: C33_49  and  O6_50 
ROOT
HETATM    1  C5  UNL     1       6.602   1.452  11.672  1.00  0.00     0.065 C 
HETATM    2  N1  UNL     1       6.689   0.069  12.059  1.00  0.00    -0.338 N 
ATOM      3  H1  UNL     1       7.250  -0.442  11.377  1.00  0.00     0.167 HD
HETATM    4  C6  UNL     1       6.270  -0.782  13.037  1.00  0.00     0.147 C 
HETATM    5  C7  UNL     1       5.193  -1.628  13.503  1.00  0.00     0.264 C 
HETATM    6  C23 UNL     1       3.971  -1.946  12.776  1.00  0.00     0.080 C 
HETATM    7  C24 UNL     1       3.158  -0.775  12.264  1.00  0.00    -0.056 A 
HETATM    8  C25 UNL     1       2.240  -0.133  13.056  1.00  0.00     0.010 A 
HETATM    9  C26 UNL     1       1.538   1.013  12.572  1.00  0.00     0.037 A 
HETATM   10  C27 UNL     1       1.750   1.503  11.329  1.00  0.00     0.068 A 
HETATM   11  C28 UNL     1       2.647   0.867  10.539  1.00  0.00     0.037 A 
HETATM   12  C29 UNL     1       3.363  -0.274  10.993  1.00  0.00     0.010 A 
HETATM   13  O5  UNL     1       1.072   2.656  10.859  1.00  0.00    -0.351 OA
HETATM   14  C30 UNL     1       1.680   3.971  11.116  1.00  0.00     0.177 C 
HETATM   15  C31 UNL     1       3.154   3.956  10.823  1.00  0.00     0.046 C 
HETATM   16  C32 UNL     1       4.078   4.083  11.979  1.00  0.00     0.123 C 
HETATM   17  N4  UNL     1       4.602   2.903  12.579  1.00  0.00    -0.369 N 
ATOM     18  H4  UNL     1       3.884   2.370  13.071  1.00  0.00     0.161 HD
HETATM   19  C33 UNL     1       5.850   2.298  12.660  1.00  0.00     0.159 C 
ENDROOT
BRANCH   5  20
HETATM   20  N2  UNL     1       4.848  -1.222  14.880  1.00  0.00    -0.061 N 
ATOM     21  H22 UNL     1       5.679  -1.114  15.462  1.00  0.00     0.278 HD
ATOM     22  H21 UNL     1       4.509  -0.261  14.917  1.00  0.00     0.278 HD
BRANCH  20  23
HETATM   23  C8  UNL     1       3.897  -2.151  15.467  1.00  0.00     0.266 C 
BRANCH  23  24
HETATM   24  C9  UNL     1       4.296  -2.742  16.756  1.00  0.00     0.166 C 
BRANCH  24  25
HETATM   25  O2  UNL     1       3.287  -2.583  17.699  1.00  0.00    -0.392 OA
ATOM     26  H2  UNL     1       3.445  -3.139  18.453  1.00  0.00     0.210 HD
ENDBRANCH  24  25
BRANCH  24  27
HETATM   27  C10 UNL     1       4.580  -4.214  16.616  1.00  0.00     0.121 C 
BRANCH  27  28
HETATM   28  C11 UNL     1       3.550  -5.121  17.217  1.00  0.00     0.066 C 
BRANCH  28  29
HETATM   29  C12 UNL     1       3.678  -6.537  16.923  1.00  0.00    -0.056 A 
HETATM   30  C13 UNL     1       3.787  -7.448  17.963  1.00  0.00     0.007 A 
HETATM   31  C14 UNL     1       3.923  -8.809  17.757  1.00  0.00     0.001 A 
HETATM   32  C15 UNL     1       3.951  -9.291  16.471  1.00  0.00     0.000 A 
HETATM   33  C16 UNL     1       3.846  -8.423  15.426  1.00  0.00     0.001 A 
HETATM   34  C17 UNL     1       3.709  -7.044  15.661  1.00  0.00     0.007 A 
ENDBRANCH  28  29
ENDBRANCH  27  28
BRANCH  27  35
HETATM   35  N3  UNL     1       5.867  -4.532  17.273  1.00  0.00    -0.329 N 
HETATM   36  C18 UNL     1       7.064  -4.138  16.630  1.00  0.00     0.361 C 
HETATM   37  O3  UNL     1       7.066  -3.531  15.530  1.00  0.00    -0.238 OA
ATOM     38  H3  UNL     1       5.890  -5.023  18.167  1.00  0.00     0.165 HD
BRANCH  36  39
HETATM   39  O4  UNL     1       8.307  -4.410  17.190  1.00  0.00    -0.294 OA
BRANCH  39  40
HETATM   40  C19 UNL     1       9.468  -4.589  16.421  1.00  0.00     0.061 C 
HETATM   41  C20 UNL     1      10.450  -5.390  17.274  1.00  0.00     0.046 C 
HETATM   42  C21 UNL     1       9.236  -5.305  15.125  1.00  0.00     0.046 C 
HETATM   43  C22 UNL     1      10.049  -3.208  16.120  1.00  0.00     0.046 C 
ENDBRANCH  39  40
ENDBRANCH  36  39
ENDBRANCH  27  35
ENDBRANCH  24  27
ENDBRANCH  23  24
ENDBRANCH  20  23
ENDBRANCH   5  20
BRANCH   4  44
HETATM   44  O1  UNL     1       7.223  -0.936  13.990  1.00  0.00    -0.348 OA
ATOM     45  H1  UNL     1       7.994  -1.360  13.633  1.00  0.00     0.219 HD
ENDBRANCH   4  44
BRANCH   1  46
HETATM   46  C3  UNL     1       6.278   1.767  10.246  1.00  0.00     0.036 C 
HETATM   47  C4  UNL     1       6.616   3.323  10.088  1.00  0.00     0.016 C 
BRANCH  46  48
HETATM   48  C2  UNL     1       7.169   1.189   9.195  1.00  0.00     0.006 C 
HETATM   49  C1  UNL     1       7.351   1.952   7.926  1.00  0.00     0.006 C 
ENDBRANCH  46  48
ENDBRANCH   1  46
BRANCH  19  50
HETATM   50  O6  UNL     1       6.573   2.426  13.754  1.00  0.00    -0.345 OA
ATOM     51  H6  UNL     1       5.999   2.390  14.510  1.00  0.00     0.219 HD
ENDBRANCH  19  50
TORSDOF 14
ENDMDL
