MODEL 4
REMARK VINA RESULT: -7.645691503      4.687      8.417
REMARK  14 active torsions:
REMARK  status: ('A' for Active; 'I' for Inactive)
REMARK    1  A    between atoms: C2_2  and  C3_3 
REMARK    2  A    between atoms: C3_3  and  C5_5 
REMARK    3  A    between atoms: C6_8  and  O1_9 
REMARK    4  A    between atoms: C7_11  and  N2_12 
REMARK    5  A    between atoms: N2_12  and  C8_15 
REMARK    6  A    between atoms: C8_15  and  C9_16 
REMARK    7  A    between atoms: C9_16  and  O2_17 
REMARK    8  A    between atoms: C9_16  and  C10_19 
REMARK    9  A    between atoms: C10_19  and  C11_20 
REMARK   10  A    between atoms: C10_19  and  N3_27 
REMARK   11  A    between atoms: C11_20  and  C12_21 
REMARK       I    between atoms: N3_27  and  C18_29 
REMARK   12  A    between atoms: C18_29  and  O4_31 
REMARK   13  A    between atoms: O4_31  and  C19_32 
REMARK   14  A    between atoms: C33_49  and  O6_50 
ROOT
HETATM    1  C5  UNL     1       6.613   1.755  11.383  1.00  0.00     0.065 C 
HETATM    2  N1  UNL     1       6.794   0.387  11.785  1.00  0.00    -0.338 N 
ATOM      3  H1  UNL     1       7.352  -0.104  11.086  1.00  0.00     0.167 HD
HETATM    4  C6  UNL     1       6.466  -0.470  12.793  1.00  0.00     0.147 C 
HETATM    5  C7  UNL     1       5.460  -1.367  13.319  1.00  0.00     0.264 C 
HETATM    6  C23 UNL     1       4.227  -1.764  12.652  1.00  0.00     0.080 C 
HETATM    7  C24 UNL     1       3.328  -0.649  12.159  1.00  0.00    -0.056 A 
HETATM    8  C25 UNL     1       2.411  -0.046  12.982  1.00  0.00     0.010 A 
HETATM    9  C26 UNL     1       1.625   1.051  12.513  1.00  0.00     0.037 A 
HETATM   10  C27 UNL     1       1.755   1.531  11.255  1.00  0.00     0.068 A 
HETATM   11  C28 UNL     1       2.651   0.933  10.436  1.00  0.00     0.037 A 
HETATM   12  C29 UNL     1       3.449  -0.159  10.874  1.00  0.00     0.010 A 
HETATM   13  O5  UNL     1       0.993   2.637  10.799  1.00  0.00    -0.351 OA
HETATM   14  C30 UNL     1       1.537   3.987  11.010  1.00  0.00     0.177 C 
HETATM   15  C31 UNL     1       2.995   4.049  10.652  1.00  0.00     0.046 C 
HETATM   16  C32 UNL     1       3.960   4.248  11.763  1.00  0.00     0.123 C 
HETATM   17  N4  UNL     1       4.575   3.108  12.357  1.00  0.00    -0.369 N 
ATOM     18  H4  UNL     1       3.911   2.545  12.888  1.00  0.00     0.161 HD
HETATM   19  C33 UNL     1       5.858   2.575  12.390  1.00  0.00     0.159 C 
ENDROOT
BRANCH   5  20
HETATM   20  N2  UNL     1       5.153  -0.957  14.704  1.00  0.00    -0.061 N 
ATOM     21  H22 UNL     1       5.999  -0.744  15.231  1.00  0.00     0.278 HD
ATOM     22  H21 UNL     1       4.715  -0.037  14.737  1.00  0.00     0.278 HD
BRANCH  20  23
HETATM   23  C8  UNL     1       4.343  -1.963  15.370  1.00  0.00     0.266 C 
BRANCH  23  24
HETATM   24  C9  UNL     1       4.771  -2.327  16.731  1.00  0.00     0.166 C 
BRANCH  24  25
HETATM   25  O2  UNL     1       3.673  -2.445  17.574  1.00  0.00    -0.392 OA
ATOM     26  H2  UNL     1       3.374  -1.589  17.855  1.00  0.00     0.210 HD
ENDBRANCH  24  25
BRANCH  24  27
HETATM   27  C10 UNL     1       5.511  -3.639  16.737  1.00  0.00     0.121 C 
BRANCH  27  28
HETATM   28  C11 UNL     1       6.157  -4.011  15.438  1.00  0.00     0.066 C 
BRANCH  28  29
HETATM   29  C12 UNL     1       7.609  -3.984  15.402  1.00  0.00    -0.056 A 
HETATM   30  C13 UNL     1       8.292  -2.923  15.978  1.00  0.00     0.007 A 
HETATM   31  C14 UNL     1       9.672  -2.826  15.971  1.00  0.00     0.001 A 
HETATM   32  C15 UNL     1      10.408  -3.819  15.372  1.00  0.00     0.000 A 
HETATM   33  C16 UNL     1       9.769  -4.876  14.797  1.00  0.00     0.001 A 
HETATM   34  C17 UNL     1       8.366  -4.951  14.817  1.00  0.00     0.007 A 
ENDBRANCH  28  29
ENDBRANCH  27  28
BRANCH  27  35
HETATM   35  N3  UNL     1       4.574  -4.731  17.078  1.00  0.00    -0.329 N 
HETATM   36  C18 UNL     1       5.040  -5.783  17.902  1.00  0.00     0.361 C 
HETATM   37  O3  UNL     1       6.213  -5.814  18.349  1.00  0.00    -0.238 OA
ATOM     38  H3  UNL     1       3.616  -4.726  16.727  1.00  0.00     0.165 HD
BRANCH  36  39
HETATM   39  O4  UNL     1       4.213  -6.843  18.257  1.00  0.00    -0.294 OA
BRANCH  39  40
HETATM   40  C19 UNL     1       4.000  -7.955  17.426  1.00  0.00     0.061 C 
HETATM   41  C20 UNL     1       2.753  -8.669  17.947  1.00  0.00     0.046 C 
HETATM   42  C21 UNL     1       3.808  -7.609  15.981  1.00  0.00     0.046 C 
HETATM   43  C22 UNL     1       5.214  -8.874  17.553  1.00  0.00     0.046 C 
ENDBRANCH  39  40
ENDBRANCH  36  39
ENDBRANCH  27  35
ENDBRANCH  24  27
ENDBRANCH  23  24
ENDBRANCH  20  23
ENDBRANCH   5  20
BRANCH   4  44
HETATM   44  O1  UNL     1       7.467  -0.555  13.704  1.00  0.00    -0.348 OA
ATOM     45  H1  UNL     1       7.320  -1.275  14.306  1.00  0.00     0.219 HD
ENDBRANCH   4  44
BRANCH   1  46
HETATM   46  C3  UNL     1       6.209   2.028   9.968  1.00  0.00     0.036 C 
HETATM   47  C4  UNL     1       6.514   3.584   9.752  1.00  0.00     0.016 C 
BRANCH  46  48
HETATM   48  C2  UNL     1       7.053   1.435   8.887  1.00  0.00     0.006 C 
HETATM   49  C1  UNL     1       7.131   2.151   7.579  1.00  0.00     0.006 C 
ENDBRANCH  46  48
ENDBRANCH   1  46
BRANCH  19  50
HETATM   50  O6  UNL     1       6.619   2.761  13.449  1.00  0.00    -0.345 OA
ATOM     51  H6  UNL     1       6.241   3.447  13.987  1.00  0.00     0.219 HD
ENDBRANCH  19  50
TORSDOF 14
ENDMDL
