MODEL 1
REMARK VINA RESULT: -7.994614532      0.000      0.000
REMARK  14 active torsions:
REMARK  status: ('A' for Active; 'I' for Inactive)
REMARK    1  A    between atoms: C2_2  and  C3_3 
REMARK    2  A    between atoms: C3_3  and  C5_5 
REMARK    3  A    between atoms: C6_8  and  O1_9 
REMARK    4  A    between atoms: C7_11  and  N2_12 
REMARK    5  A    between atoms: N2_12  and  C8_15 
REMARK    6  A    between atoms: C8_15  and  C9_16 
REMARK    7  A    between atoms: C9_16  and  O2_17 
REMARK    8  A    between atoms: C9_16  and  C10_19 
REMARK    9  A    between atoms: C10_19  and  C11_20 
REMARK   10  A    between atoms: C10_19  and  N3_27 
REMARK   11  A    between atoms: C11_20  and  C12_21 
REMARK       I    between atoms: N3_27  and  C18_29 
REMARK   12  A    between atoms: C18_29  and  O4_31 
REMARK   13  A    between atoms: O4_31  and  C19_32 
REMARK   14  A    between atoms: C33_49  and  O6_50 
ROOT
HETATM    1  C5  UNL     1       4.644   6.796   6.272  1.00  0.00     0.065 C 
HETATM    2  N1  UNL     1       4.618   5.539   6.970  1.00  0.00    -0.338 N 
ATOM      3  H1  UNL     1       5.328   4.917   6.581  1.00  0.00     0.167 HD
HETATM    4  C6  UNL     1       3.958   4.905   7.980  1.00  0.00     0.147 C 
HETATM    5  C7  UNL     1       2.792   4.132   8.344  1.00  0.00     0.264 C 
HETATM    6  C23 UNL     1       1.788   3.605   7.430  1.00  0.00     0.080 C 
HETATM    7  C24 UNL     1       1.141   4.593   6.482  1.00  0.00    -0.056 A 
HETATM    8  C25 UNL     1       0.060   5.349   6.858  1.00  0.00     0.010 A 
HETATM    9  C26 UNL     1      -0.488   6.326   5.970  1.00  0.00     0.037 A 
HETATM   10  C27 UNL     1       0.034   6.539   4.740  1.00  0.00     0.068 A 
HETATM   11  C28 UNL     1       1.095   5.788   4.361  1.00  0.00     0.037 A 
HETATM   12  C29 UNL     1       1.663   4.811   5.222  1.00  0.00     0.010 A 
HETATM   13  O5  UNL     1      -0.494   7.526   3.870  1.00  0.00    -0.351 OA
HETATM   14  C30 UNL     1       0.043   8.893   3.966  1.00  0.00     0.177 C 
HETATM   15  C31 UNL     1       1.543   8.884   4.057  1.00  0.00     0.046 C 
HETATM   16  C32 UNL     1       2.148   9.307   5.345  1.00  0.00     0.123 C 
HETATM   17  N4  UNL     1       2.494   8.315   6.306  1.00  0.00    -0.369 N 
ATOM     18  H4  UNL     1       1.671   7.870   6.713  1.00  0.00     0.161 HD
HETATM   19  C33 UNL     1       3.677   7.803   6.827  1.00  0.00     0.159 C 
ENDROOT
BRANCH   5  20
HETATM   20  N2  UNL     1       2.116   4.815   9.466  1.00  0.00    -0.061 N 
ATOM     21  H22 UNL     1       2.783   5.261  10.095  1.00  0.00     0.278 HD
ATOM     22  H21 UNL     1       1.617   5.649   9.155  1.00  0.00     0.278 HD
BRANCH  20  23
HETATM   23  C8  UNL     1       1.240   3.898  10.174  1.00  0.00     0.266 C 
BRANCH  23  24
HETATM   24  C9  UNL     1       1.654   3.551  11.545  1.00  0.00     0.166 C 
BRANCH  24  25
HETATM   25  O2  UNL     1       0.547   3.439  12.376  1.00  0.00    -0.392 OA
ATOM     26  H2  UNL     1       0.782   3.638  13.275  1.00  0.00     0.210 HD
ENDBRANCH  24  25
BRANCH  24  27
HETATM   27  C10 UNL     1       2.398   2.242  11.575  1.00  0.00     0.121 C 
BRANCH  27  28
HETATM   28  C11 UNL     1       1.639   1.092  12.160  1.00  0.00     0.066 C 
BRANCH  28  29
HETATM   29  C12 UNL     1       2.427   0.004  12.712  1.00  0.00    -0.056 A 
HETATM   30  C13 UNL     1       2.286  -0.338  14.049  1.00  0.00     0.007 A 
HETATM   31  C14 UNL     1       3.011  -1.355  14.643  1.00  0.00     0.001 A 
HETATM   32  C15 UNL     1       3.911  -2.065  13.887  1.00  0.00     0.000 A 
HETATM   33  C16 UNL     1       4.074  -1.755  12.570  1.00  0.00     0.001 A 
HETATM   34  C17 UNL     1       3.325  -0.717  11.989  1.00  0.00     0.007 A 
ENDBRANCH  28  29
ENDBRANCH  27  28
BRANCH  27  35
HETATM   35  N3  UNL     1       3.631   2.394  12.377  1.00  0.00    -0.329 N 
HETATM   36  C18 UNL     1       4.864   2.526  11.695  1.00  0.00     0.361 C 
HETATM   37  O3  UNL     1       4.940   2.519  10.441  1.00  0.00    -0.238 OA
ATOM     38  H3  UNL     1       3.593   2.404  13.396  1.00  0.00     0.165 HD
BRANCH  36  39
HETATM   39  O4  UNL     1       6.061   2.668  12.389  1.00  0.00    -0.294 OA
BRANCH  39  40
HETATM   40  C19 UNL     1       6.813   1.573  12.845  1.00  0.00     0.061 C 
HETATM   41  C20 UNL     1       6.118   1.047  14.100  1.00  0.00     0.046 C 
HETATM   42  C21 UNL     1       6.941   0.464  11.846  1.00  0.00     0.046 C 
HETATM   43  C22 UNL     1       8.211   2.079  13.198  1.00  0.00     0.046 C 
ENDBRANCH  39  40
ENDBRANCH  36  39
ENDBRANCH  27  35
ENDBRANCH  24  27
ENDBRANCH  23  24
ENDBRANCH  20  23
ENDBRANCH   5  20
BRANCH   4  44
HETATM   44  O1  UNL     1       4.641   5.011   9.147  1.00  0.00    -0.348 OA
ATOM     45  H1  UNL     1       4.272   5.694   9.696  1.00  0.00     0.219 HD
ENDBRANCH   4  44
BRANCH   1  46
HETATM   46  C3  UNL     1       4.691   6.774   4.777  1.00  0.00     0.036 C 
HETATM   47  C4  UNL     1       5.719   7.936   4.386  1.00  0.00     0.016 C 
BRANCH  46  48
HETATM   48  C2  UNL     1       5.351   5.601   4.128  1.00  0.00     0.006 C 
HETATM   49  C1  UNL     1       4.640   4.922   3.005  1.00  0.00     0.006 C 
ENDBRANCH  46  48
ENDBRANCH   1  46
BRANCH  19  50
HETATM   50  O6  UNL     1       4.102   8.203   8.007  1.00  0.00    -0.345 OA
ATOM     51  H6  UNL     1       4.949   8.621   7.906  1.00  0.00     0.219 HD
ENDBRANCH  19  50
TORSDOF 14
ENDMDL
