MODEL 2
REMARK VINA RESULT: -9.134047253      0.971      1.181
REMARK  8 active torsions:
REMARK  status: ('A' for Active; 'I' for Inactive)
REMARK    1  A    between atoms: C4_6  and  N2_7 
REMARK    2  A    between atoms: N2_7  and  C5_9 
REMARK    3  A    between atoms: C5_9  and  C6_10 
REMARK    4  A    between atoms: C6_10  and  C7_13 
REMARK    5  A    between atoms: N4_22  and  C13_23 
REMARK    6  A    between atoms: C13_23  and  C14_24 
REMARK       I    between atoms: C14_24  and  N5_26 
REMARK    7  A    between atoms: N5_26  and  C15_28 
REMARK    8  A    between atoms: C15_28  and  C16_29 
ROOT
HETATM    1  C1  UNL     1      20.082 -13.394  19.958  1.00  0.00     0.070 C 
HETATM    2  C2  UNL     1      19.393 -14.214  20.977  1.00  0.00     0.027 A 
HETATM    3  C3  UNL     1      19.855 -15.530  21.149  1.00  0.00     0.114 A 
HETATM    4  N1  UNL     1      19.299 -16.340  22.035  1.00  0.00    -0.346 N 
ATOM      5  H1  UNL     1      19.649 -17.291  22.146  1.00  0.00     0.167 HD
HETATM    6  C4  UNL     1      18.276 -15.911  22.788  1.00  0.00     0.171 A 
HETATM    7  C12 UNL     1      17.839 -14.625  22.604  1.00  0.00     0.292 A 
HETATM    8  O1  UNL     1      16.875 -14.166  23.282  1.00  0.00    -0.264 OA
HETATM    9  N4  UNL     1      18.373 -13.749  21.708  1.00  0.00    -0.305 N 
ENDROOT
BRANCH   9  10
HETATM   10  C13 UNL     1      17.878 -12.432  21.538  1.00  0.00     0.235 C 
BRANCH  10  11
HETATM   11  C14 UNL     1      16.547 -12.270  20.976  1.00  0.00     0.236 C 
HETATM   12  O2  UNL     1      16.425 -11.975  19.757  1.00  0.00    -0.272 OA
HETATM   13  N5  UNL     1      15.350 -12.427  21.715  1.00  0.00    -0.354 N 
ATOM     14  H5  UNL     1      15.402 -12.668  22.705  1.00  0.00     0.162 HD
BRANCH  13  15
HETATM   15  C15 UNL     1      14.033 -12.248  21.088  1.00  0.00     0.182 C 
BRANCH  15  16
HETATM   16  C16 UNL     1      12.985 -11.898  22.031  1.00  0.00     0.066 A 
HETATM   17  N6  UNL     1      12.076 -12.798  22.425  1.00  0.00    -0.365 N 
HETATM   18  C17 UNL     1      11.092 -12.469  23.304  1.00  0.00     0.088 A 
ATOM     19  H6  UNL     1      12.122 -13.749  22.059  1.00  0.00     0.165 HD
HETATM   20  C18 UNL     1      10.989 -11.197  23.821  1.00  0.00     0.020 A 
HETATM   21  C19 UNL     1      11.928 -10.276  23.408  1.00  0.00     0.046 A 
HETATM   22  C20 UNL     1      12.917 -10.620  22.523  1.00  0.00     0.140 A 
HETATM   23  F3  UNL     1      13.836  -9.694  22.117  1.00  0.00    -0.204 F 
ENDBRANCH  15  16
ENDBRANCH  13  15
ENDBRANCH  10  11
ENDBRANCH   9  10
BRANCH   6  24
HETATM   24  N2  UNL     1      17.671 -16.767  23.774  1.00  0.00    -0.366 N 
ATOM     25  H2  UNL     1      16.654 -16.831  23.817  1.00  0.00     0.161 HD
BRANCH  24  26
HETATM   26  C5  UNL     1      18.472 -17.543  24.713  1.00  0.00     0.207 C 
BRANCH  26  27
HETATM   27  C6  UNL     1      18.725 -16.749  25.954  1.00  0.00     0.301 C 
HETATM   28  F1  UNL     1      17.554 -16.031  26.199  1.00  0.00    -0.197 F 
HETATM   29  F2  UNL     1      18.951 -17.616  27.006  1.00  0.00    -0.197 F 
BRANCH  27  30
HETATM   30  C7  UNL     1      19.840 -15.811  25.928  1.00  0.00     0.083 A 
HETATM   31  C8  UNL     1      19.912 -14.608  26.573  1.00  0.00     0.031 A 
HETATM   32  C9  UNL     1      21.009 -13.795  26.491  1.00  0.00     0.003 A 
HETATM   33  C10 UNL     1      22.109 -14.177  25.734  1.00  0.00     0.017 A 
HETATM   34  C11 UNL     1      22.027 -15.395  25.087  1.00  0.00     0.088 A 
HETATM   35  N3  UNL     1      20.944 -16.153  25.191  1.00  0.00    -0.364 N 
ATOM     36  H3  UNL     1      20.932 -17.043  24.693  1.00  0.00     0.165 HD
ENDBRANCH  27  30
ENDBRANCH  26  27
ENDBRANCH  24  26
ENDBRANCH   6  24
TORSDOF 8
ENDMDL
