MODEL 13
REMARK VINA RESULT: -8.425549756      1.200      1.346
REMARK  8 active torsions:
REMARK  status: ('A' for Active; 'I' for Inactive)
REMARK    1  A    between atoms: C4_6  and  N2_7 
REMARK    2  A    between atoms: N2_7  and  C5_9 
REMARK    3  A    between atoms: C5_9  and  C6_10 
REMARK    4  A    between atoms: C6_10  and  C7_13 
REMARK    5  A    between atoms: N4_22  and  C13_23 
REMARK    6  A    between atoms: C13_23  and  C14_24 
REMARK       I    between atoms: C14_24  and  N5_26 
REMARK    7  A    between atoms: N5_26  and  C15_28 
REMARK    8  A    between atoms: C15_28  and  C16_29 
ROOT
HETATM    1  C1  UNL     1      18.254 -12.995  19.177  1.00  0.00     0.070 C 
HETATM    2  C2  UNL     1      17.913 -13.673  20.446  1.00  0.00     0.027 A 
HETATM    3  C3  UNL     1      18.918 -13.720  21.428  1.00  0.00     0.114 A 
HETATM    4  N1  UNL     1      18.707 -14.308  22.594  1.00  0.00    -0.346 N 
ATOM      5  H1  UNL     1      19.448 -14.331  23.294  1.00  0.00     0.167 HD
HETATM    6  C4  UNL     1      17.521 -14.873  22.857  1.00  0.00     0.171 A 
HETATM    7  C12 UNL     1      16.555 -14.817  21.886  1.00  0.00     0.292 A 
HETATM    8  O1  UNL     1      15.417 -15.337  22.074  1.00  0.00    -0.264 OA
HETATM    9  N4  UNL     1      16.716 -14.226  20.669  1.00  0.00    -0.305 N 
ENDROOT
BRANCH   9  10
HETATM   10  C13 UNL     1      15.695 -14.208  19.687  1.00  0.00     0.235 C 
BRANCH  10  11
HETATM   11  C14 UNL     1      14.742 -13.111  19.711  1.00  0.00     0.236 C 
HETATM   12  O2  UNL     1      14.717 -12.297  18.749  1.00  0.00    -0.272 OA
HETATM   13  N5  UNL     1      13.818 -12.886  20.759  1.00  0.00    -0.354 N 
ATOM     14  H5  UNL     1      13.803 -13.523  21.556  1.00  0.00     0.162 HD
BRANCH  13  15
HETATM   15  C15 UNL     1      12.879 -11.756  20.724  1.00  0.00     0.182 C 
BRANCH  15  16
HETATM   16  C16 UNL     1      12.271 -11.469  22.011  1.00  0.00     0.066 A 
HETATM   17  N6  UNL     1      12.524 -10.324  22.658  1.00  0.00    -0.365 N 
HETATM   18  C17 UNL     1      11.958 -10.057  23.865  1.00  0.00     0.088 A 
ATOM     19  H6  UNL     1      13.153  -9.640  22.238  1.00  0.00     0.165 HD
HETATM   20  C18 UNL     1      11.106 -10.952  24.472  1.00  0.00     0.020 A 
HETATM   21  C19 UNL     1      10.853 -12.129  23.800  1.00  0.00     0.046 A 
HETATM   22  C20 UNL     1      11.428 -12.387  22.582  1.00  0.00     0.140 A 
HETATM   23  F3  UNL     1      11.173 -13.561  21.931  1.00  0.00    -0.204 F 
ENDBRANCH  15  16
ENDBRANCH  13  15
ENDBRANCH  10  11
ENDBRANCH   9  10
BRANCH   6  24
HETATM   24  N2  UNL     1      17.261 -15.498  24.126  1.00  0.00    -0.366 N 
ATOM     25  H2  UNL     1      16.652 -15.029  24.796  1.00  0.00     0.161 HD
BRANCH  24  26
HETATM   26  C5  UNL     1      17.847 -16.786  24.481  1.00  0.00     0.207 C 
BRANCH  26  27
HETATM   27  C6  UNL     1      18.577 -16.680  25.781  1.00  0.00     0.301 C 
HETATM   28  F1  UNL     1      17.639 -16.245  26.718  1.00  0.00    -0.197 F 
HETATM   29  F2  UNL     1      19.034 -17.931  26.146  1.00  0.00    -0.197 F 
BRANCH  27  30
HETATM   30  C7  UNL     1      19.722 -15.779  25.828  1.00  0.00     0.083 A 
HETATM   31  C8  UNL     1      19.925 -14.760  26.717  1.00  0.00     0.031 A 
HETATM   32  C9  UNL     1      21.039 -13.968  26.684  1.00  0.00     0.003 A 
HETATM   33  C10 UNL     1      22.022 -14.180  25.726  1.00  0.00     0.017 A 
HETATM   34  C11 UNL     1      21.808 -15.212  24.833  1.00  0.00     0.088 A 
HETATM   35  N3  UNL     1      20.712 -15.956  24.897  1.00  0.00    -0.364 N 
ATOM     36  H3  UNL     1      20.600 -16.705  24.215  1.00  0.00     0.165 HD
ENDBRANCH  27  30
ENDBRANCH  26  27
ENDBRANCH  24  26
ENDBRANCH   6  24
TORSDOF 8
ENDMDL
