MODEL 7
REMARK VINA RESULT: -8.769095983      2.160      8.177
REMARK  8 active torsions:
REMARK  status: ('A' for Active; 'I' for Inactive)
REMARK    1  A    between atoms: C4_6  and  N2_7 
REMARK    2  A    between atoms: N2_7  and  C5_9 
REMARK    3  A    between atoms: C5_9  and  C6_10 
REMARK    4  A    between atoms: C6_10  and  C7_13 
REMARK    5  A    between atoms: N4_22  and  C13_23 
REMARK    6  A    between atoms: C13_23  and  C14_24 
REMARK       I    between atoms: C14_24  and  N5_26 
REMARK    7  A    between atoms: N5_26  and  C15_28 
REMARK    8  A    between atoms: C15_28  and  C16_29 
ROOT
HETATM    1  C1  UNL     1      20.115 -13.684  20.693  1.00  0.00     0.070 C 
HETATM    2  C2  UNL     1      18.674 -13.548  20.995  1.00  0.00     0.027 A 
HETATM    3  C3  UNL     1      18.137 -12.251  20.948  1.00  0.00     0.114 A 
HETATM    4  N1  UNL     1      16.858 -12.029  21.206  1.00  0.00    -0.346 N 
ATOM      5  H1  UNL     1      16.487 -11.080  21.165  1.00  0.00     0.167 HD
HETATM    6  C4  UNL     1      16.050 -13.051  21.519  1.00  0.00     0.171 A 
HETATM    7  C12 UNL     1      16.593 -14.309  21.561  1.00  0.00     0.292 A 
HETATM    8  O1  UNL     1      15.881 -15.312  21.855  1.00  0.00    -0.264 OA
HETATM    9  N4  UNL     1      17.901 -14.595  21.305  1.00  0.00    -0.305 N 
ENDROOT
BRANCH   9  10
HETATM   10  C13 UNL     1      18.424 -15.909  21.378  1.00  0.00     0.235 C 
BRANCH  10  11
HETATM   11  C14 UNL     1      19.088 -16.313  22.607  1.00  0.00     0.236 C 
HETATM   12  O2  UNL     1      18.393 -16.580  23.623  1.00  0.00    -0.272 OA
HETATM   13  N5  UNL     1      20.492 -16.433  22.747  1.00  0.00    -0.354 N 
ATOM     14  H5  UNL     1      21.092 -16.228  21.948  1.00  0.00     0.162 HD
BRANCH  13  15
HETATM   15  C15 UNL     1      21.103 -16.846  24.018  1.00  0.00     0.182 C 
BRANCH  15  16
HETATM   16  C16 UNL     1      20.963 -15.859  25.075  1.00  0.00     0.066 A 
HETATM   17  N6  UNL     1      20.079 -16.026  26.067  1.00  0.00    -0.365 N 
HETATM   18  C17 UNL     1      19.945 -15.101  27.054  1.00  0.00     0.088 A 
ATOM     19  H6  UNL     1      19.496 -16.863  26.083  1.00  0.00     0.165 HD
HETATM   20  C18 UNL     1      20.708 -13.955  27.072  1.00  0.00     0.020 A 
HETATM   21  C19 UNL     1      21.613 -13.791  26.045  1.00  0.00     0.046 A 
HETATM   22  C20 UNL     1      21.742 -14.731  25.056  1.00  0.00     0.140 A 
HETATM   23  F3  UNL     1      22.639 -14.551  24.041  1.00  0.00    -0.204 F 
ENDBRANCH  15  16
ENDBRANCH  13  15
ENDBRANCH  10  11
ENDBRANCH   9  10
BRANCH   6  24
HETATM   24  N2  UNL     1      14.651 -12.838  21.781  1.00  0.00    -0.366 N 
ATOM     25  H2  UNL     1      14.267 -13.120  22.682  1.00  0.00     0.161 HD
BRANCH  24  26
HETATM   26  C5  UNL     1      13.769 -12.230  20.791  1.00  0.00     0.207 C 
BRANCH  26  27
HETATM   27  C6  UNL     1      13.150 -10.988  21.347  1.00  0.00     0.301 C 
HETATM   28  F1  UNL     1      14.208 -10.136  21.664  1.00  0.00    -0.197 F 
HETATM   29  F2  UNL     1      12.371 -10.396  20.371  1.00  0.00    -0.197 F 
BRANCH  27  30
HETATM   30  C7  UNL     1      12.311 -11.136  22.530  1.00  0.00     0.083 A 
HETATM   31  C8  UNL     1      11.543 -12.218  22.858  1.00  0.00     0.031 A 
HETATM   32  C9  UNL     1      10.790 -12.266  23.998  1.00  0.00     0.003 A 
HETATM   33  C10 UNL     1      10.783 -11.192  24.879  1.00  0.00     0.017 A 
HETATM   34  C11 UNL     1      11.563 -10.104  24.539  1.00  0.00     0.088 A 
HETATM   35  N3  UNL     1      12.278 -10.096  23.422  1.00  0.00    -0.364 N 
ATOM     36  H3  UNL     1      12.836  -9.268  23.216  1.00  0.00     0.165 HD
ENDBRANCH  27  30
ENDBRANCH  26  27
ENDBRANCH  24  26
ENDBRANCH   6  24
TORSDOF 8
ENDMDL
