MODEL 6
REMARK VINA RESULT: -8.779161981      1.341      1.539
REMARK  8 active torsions:
REMARK  status: ('A' for Active; 'I' for Inactive)
REMARK    1  A    between atoms: C4_6  and  N2_7 
REMARK    2  A    between atoms: N2_7  and  C5_9 
REMARK    3  A    between atoms: C5_9  and  C6_10 
REMARK    4  A    between atoms: C6_10  and  C7_13 
REMARK    5  A    between atoms: N4_22  and  C13_23 
REMARK    6  A    between atoms: C13_23  and  C14_24 
REMARK       I    between atoms: C14_24  and  N5_26 
REMARK    7  A    between atoms: N5_26  and  C15_28 
REMARK    8  A    between atoms: C15_28  and  C16_29 
ROOT
HETATM    1  C1  UNL     1      19.276 -13.195  19.655  1.00  0.00     0.070 C 
HETATM    2  C2  UNL     1      18.677 -13.908  20.803  1.00  0.00     0.027 A 
HETATM    3  C3  UNL     1      19.509 -14.129  21.914  1.00  0.00     0.114 A 
HETATM    4  N1  UNL     1      19.063 -14.761  22.988  1.00  0.00    -0.346 N 
ATOM      5  H1  UNL     1      19.681 -14.910  23.785  1.00  0.00     0.167 HD
HETATM    6  C4  UNL     1      17.799 -15.203  23.030  1.00  0.00     0.171 A 
HETATM    7  C12 UNL     1      17.004 -14.979  21.935  1.00  0.00     0.292 A 
HETATM    8  O1  UNL     1      15.804 -15.378  21.914  1.00  0.00    -0.264 OA
HETATM    9  N4  UNL     1      17.410 -14.336  20.805  1.00  0.00    -0.305 N 
ENDROOT
BRANCH   9  10
HETATM   10  C13 UNL     1      16.560 -14.142  19.689  1.00  0.00     0.235 C 
BRANCH  10  11
HETATM   11  C14 UNL     1      15.631 -13.025  19.722  1.00  0.00     0.236 C 
HETATM   12  O2  UNL     1      16.013 -11.894  19.318  1.00  0.00    -0.272 OA
HETATM   13  N5  UNL     1      14.296 -13.117  20.184  1.00  0.00    -0.354 N 
ATOM     14  H5  UNL     1      13.944 -14.014  20.518  1.00  0.00     0.162 HD
BRANCH  13  15
HETATM   15  C15 UNL     1      13.405 -11.948  20.193  1.00  0.00     0.182 C 
BRANCH  15  16
HETATM   16  C16 UNL     1      12.644 -11.809  21.422  1.00  0.00     0.066 A 
HETATM   17  N6  UNL     1      11.696 -12.694  21.755  1.00  0.00    -0.365 N 
HETATM   18  C17 UNL     1      10.980 -12.563  22.903  1.00  0.00     0.088 A 
ATOM     19  H6  UNL     1      11.507 -13.482  21.135  1.00  0.00     0.165 HD
HETATM   20  C18 UNL     1      11.197 -11.514  23.768  1.00  0.00     0.020 A 
HETATM   21  C19 UNL     1      12.173 -10.606  23.416  1.00  0.00     0.046 A 
HETATM   22  C20 UNL     1      12.891 -10.750  22.257  1.00  0.00     0.140 A 
HETATM   23  F3  UNL     1      13.851  -9.838  21.918  1.00  0.00    -0.204 F 
ENDBRANCH  15  16
ENDBRANCH  13  15
ENDBRANCH  10  11
ENDBRANCH   9  10
BRANCH   6  24
HETATM   24  N2  UNL     1      17.285 -15.873  24.195  1.00  0.00    -0.366 N 
ATOM     25  H2  UNL     1      16.444 -15.511  24.644  1.00  0.00     0.161 HD
BRANCH  24  26
HETATM   26  C5  UNL     1      17.934 -17.055  24.750  1.00  0.00     0.207 C 
BRANCH  26  27
HETATM   27  C6  UNL     1      18.560 -16.729  26.068  1.00  0.00     0.301 C 
HETATM   28  F1  UNL     1      17.567 -16.103  26.823  1.00  0.00    -0.197 F 
HETATM   29  F2  UNL     1      18.931 -17.902  26.695  1.00  0.00    -0.197 F 
BRANCH  27  30
HETATM   30  C7  UNL     1      19.734 -15.865  26.051  1.00  0.00     0.083 A 
HETATM   31  C8  UNL     1      19.847 -14.627  26.621  1.00  0.00     0.031 A 
HETATM   32  C9  UNL     1      20.998 -13.892  26.555  1.00  0.00     0.003 A 
HETATM   33  C10 UNL     1      22.113 -14.391  25.895  1.00  0.00     0.017 A 
HETATM   34  C11 UNL     1      21.988 -15.643  25.324  1.00  0.00     0.088 A 
HETATM   35  N3  UNL     1      20.854 -16.324  25.408  1.00  0.00    -0.364 N 
ATOM     36  H3  UNL     1      20.812 -17.243  24.968  1.00  0.00     0.165 HD
ENDBRANCH  27  30
ENDBRANCH  26  27
ENDBRANCH  24  26
ENDBRANCH   6  24
TORSDOF 8
ENDMDL
