MODEL 5
REMARK VINA RESULT: -8.803542345      1.581      7.872
REMARK  8 active torsions:
REMARK  status: ('A' for Active; 'I' for Inactive)
REMARK    1  A    between atoms: C4_6  and  N2_7 
REMARK    2  A    between atoms: N2_7  and  C5_9 
REMARK    3  A    between atoms: C5_9  and  C6_10 
REMARK    4  A    between atoms: C6_10  and  C7_13 
REMARK    5  A    between atoms: N4_22  and  C13_23 
REMARK    6  A    between atoms: C13_23  and  C14_24 
REMARK       I    between atoms: C14_24  and  N5_26 
REMARK    7  A    between atoms: N5_26  and  C15_28 
REMARK    8  A    between atoms: C15_28  and  C16_29 
ROOT
HETATM    1  C1  UNL     1      19.932 -13.446  20.440  1.00  0.00     0.070 C 
HETATM    2  C2  UNL     1      18.548 -13.561  20.946  1.00  0.00     0.027 A 
HETATM    3  C3  UNL     1      17.808 -12.370  21.041  1.00  0.00     0.114 A 
HETATM    4  N1  UNL     1      16.562 -12.372  21.485  1.00  0.00    -0.346 N 
ATOM      5  H1  UNL     1      16.041 -11.498  21.546  1.00  0.00     0.167 HD
HETATM    6  C4  UNL     1      15.983 -13.523  21.855  1.00  0.00     0.171 A 
HETATM    7  C12 UNL     1      16.722 -14.673  21.757  1.00  0.00     0.292 A 
HETATM    8  O1  UNL     1      16.231 -15.789  22.097  1.00  0.00    -0.264 OA
HETATM    9  N4  UNL     1      18.007 -14.730  21.307  1.00  0.00    -0.305 N 
ENDROOT
BRANCH   9  10
HETATM   10  C13 UNL     1      18.740 -15.940  21.240  1.00  0.00     0.235 C 
BRANCH  10  11
HETATM   11  C14 UNL     1      19.497 -16.347  22.412  1.00  0.00     0.236 C 
HETATM   12  O2  UNL     1      20.757 -16.337  22.365  1.00  0.00    -0.272 OA
HETATM   13  N5  UNL     1      18.910 -16.761  23.631  1.00  0.00    -0.354 N 
ATOM     14  H5  UNL     1      17.893 -16.781  23.713  1.00  0.00     0.162 HD
BRANCH  13  15
HETATM   15  C15 UNL     1      19.732 -17.162  24.782  1.00  0.00     0.182 C 
BRANCH  15  16
HETATM   16  C16 UNL     1      20.288 -16.038  25.515  1.00  0.00     0.066 A 
HETATM   17  N6  UNL     1      21.477 -15.516  25.187  1.00  0.00    -0.365 N 
HETATM   18  C17 UNL     1      22.000 -14.467  25.876  1.00  0.00     0.088 A 
ATOM     19  H6  UNL     1      21.999 -15.912  24.406  1.00  0.00     0.165 HD
HETATM   20  C18 UNL     1      21.332 -13.903  26.940  1.00  0.00     0.020 A 
HETATM   21  C19 UNL     1      20.111 -14.449  27.271  1.00  0.00     0.046 A 
HETATM   22  C20 UNL     1      19.591 -15.505  26.568  1.00  0.00     0.140 A 
HETATM   23  F3  UNL     1      18.382 -16.040  26.914  1.00  0.00    -0.204 F 
ENDBRANCH  15  16
ENDBRANCH  13  15
ENDBRANCH  10  11
ENDBRANCH   9  10
BRANCH   6  24
HETATM   24  N2  UNL     1      14.622 -13.553  22.321  1.00  0.00    -0.366 N 
ATOM     25  H2  UNL     1      14.400 -13.149  23.230  1.00  0.00     0.161 HD
BRANCH  24  26
HETATM   26  C5  UNL     1      13.552 -14.146  21.527  1.00  0.00     0.207 C 
BRANCH  26  27
HETATM   27  C6  UNL     1      12.496 -13.127  21.241  1.00  0.00     0.301 C 
HETATM   28  F1  UNL     1      13.000 -12.324  20.218  1.00  0.00    -0.197 F 
HETATM   29  F2  UNL     1      11.359 -13.770  20.792  1.00  0.00    -0.197 F 
BRANCH  27  30
HETATM   30  C7  UNL     1      12.091 -12.264  22.343  1.00  0.00     0.083 A 
HETATM   31  C8  UNL     1      12.473 -10.967  22.549  1.00  0.00     0.031 A 
HETATM   32  C9  UNL     1      12.033 -10.233  23.615  1.00  0.00     0.003 A 
HETATM   33  C10 UNL     1      11.164 -10.794  24.542  1.00  0.00     0.017 A 
HETATM   34  C11 UNL     1      10.783 -12.104  24.324  1.00  0.00     0.088 A 
HETATM   35  N3  UNL     1      11.234 -12.783  23.278  1.00  0.00    -0.364 N 
ATOM     36  H3  UNL     1      10.925 -13.748  23.163  1.00  0.00     0.165 HD
ENDBRANCH  27  30
ENDBRANCH  26  27
ENDBRANCH  24  26
ENDBRANCH   6  24
TORSDOF 8
ENDMDL
