MODEL 1
REMARK VINA RESULT: -9.177178924      0.000      0.000
REMARK  8 active torsions:
REMARK  status: ('A' for Active; 'I' for Inactive)
REMARK    1  A    between atoms: C4_6  and  N2_7 
REMARK    2  A    between atoms: N2_7  and  C5_9 
REMARK    3  A    between atoms: C5_9  and  C6_10 
REMARK    4  A    between atoms: C6_10  and  C7_13 
REMARK    5  A    between atoms: N4_22  and  C13_23 
REMARK    6  A    between atoms: C13_23  and  C14_24 
REMARK       I    between atoms: C14_24  and  N5_26 
REMARK    7  A    between atoms: N5_26  and  C15_28 
REMARK    8  A    between atoms: C15_28  and  C16_29 
ROOT
HETATM    1  C1  UNL     1      20.101 -13.334  19.907  1.00  0.00     0.070 C 
HETATM    2  C2  UNL     1      19.355 -14.078  20.944  1.00  0.00     0.027 A 
HETATM    3  C3  UNL     1      19.795 -15.383  21.225  1.00  0.00     0.114 A 
HETATM    4  N1  UNL     1      19.189 -16.128  22.135  1.00  0.00    -0.346 N 
ATOM      5  H1  UNL     1      19.523 -17.072  22.325  1.00  0.00     0.167 HD
HETATM    6  C4  UNL     1      18.136 -15.643  22.807  1.00  0.00     0.171 A 
HETATM    7  C12 UNL     1      17.722 -14.368  22.517  1.00  0.00     0.292 A 
HETATM    8  O1  UNL     1      16.731 -13.858  23.116  1.00  0.00    -0.264 OA
HETATM    9  N4  UNL     1      18.307 -13.558  21.592  1.00  0.00    -0.305 N 
ENDROOT
BRANCH   9  10
HETATM   10  C13 UNL     1      17.834 -12.253  21.310  1.00  0.00     0.235 C 
BRANCH  10  11
HETATM   11  C14 UNL     1      16.482 -12.112  20.795  1.00  0.00     0.236 C 
HETATM   12  O2  UNL     1      16.287 -12.176  19.552  1.00  0.00    -0.272 OA
HETATM   13  N5  UNL     1      15.341 -11.906  21.608  1.00  0.00    -0.354 N 
ATOM     14  H5  UNL     1      15.453 -11.850  22.620  1.00  0.00     0.162 HD
BRANCH  13  15
HETATM   15  C15 UNL     1      13.999 -11.770  21.024  1.00  0.00     0.182 C 
BRANCH  15  16
HETATM   16  C16 UNL     1      12.957 -11.555  22.013  1.00  0.00     0.066 A 
HETATM   17  N6  UNL     1      12.916 -10.434  22.744  1.00  0.00    -0.365 N 
HETATM   18  C17 UNL     1      11.943 -10.233  23.673  1.00  0.00     0.088 A 
ATOM     19  H6  UNL     1      13.627  -9.717  22.602  1.00  0.00     0.165 HD
HETATM   20  C18 UNL     1      10.965 -11.175  23.901  1.00  0.00     0.020 A 
HETATM   21  C19 UNL     1      11.017 -12.327  23.146  1.00  0.00     0.046 A 
HETATM   22  C20 UNL     1      12.001 -12.518  22.211  1.00  0.00     0.140 A 
HETATM   23  F3  UNL     1      12.044 -13.668  21.474  1.00  0.00    -0.204 F 
ENDBRANCH  15  16
ENDBRANCH  13  15
ENDBRANCH  10  11
ENDBRANCH   9  10
BRANCH   6  24
HETATM   24  N2  UNL     1      17.475 -16.426  23.817  1.00  0.00    -0.366 N 
ATOM     25  H2  UNL     1      16.473 -16.304  23.963  1.00  0.00     0.161 HD
BRANCH  24  26
HETATM   26  C5  UNL     1      18.200 -17.389  24.638  1.00  0.00     0.207 C 
BRANCH  26  27
HETATM   27  C6  UNL     1      18.579 -16.772  25.945  1.00  0.00     0.301 C 
HETATM   28  F1  UNL     1      17.453 -16.074  26.384  1.00  0.00    -0.197 F 
HETATM   29  F2  UNL     1      18.871 -17.773  26.851  1.00  0.00    -0.197 F 
BRANCH  27  30
HETATM   30  C7  UNL     1      19.713 -15.855  25.943  1.00  0.00     0.083 A 
HETATM   31  C8  UNL     1      19.803 -14.665  26.611  1.00  0.00     0.031 A 
HETATM   32  C9  UNL     1      20.916 -13.873  26.551  1.00  0.00     0.003 A 
HETATM   33  C10 UNL     1      22.014 -14.263  25.795  1.00  0.00     0.017 A 
HETATM   34  C11 UNL     1      21.913 -15.467  25.126  1.00  0.00     0.088 A 
HETATM   35  N3  UNL     1      20.815 -16.205  25.208  1.00  0.00    -0.364 N 
ATOM     36  H3  UNL     1      20.788 -17.085  24.693  1.00  0.00     0.165 HD
ENDBRANCH  27  30
ENDBRANCH  26  27
ENDBRANCH  24  26
ENDBRANCH   6  24
TORSDOF 8
ENDMDL
