MODEL 16
REMARK VINA RESULT: -8.408164076      2.151      8.801
REMARK  8 active torsions:
REMARK  status: ('A' for Active; 'I' for Inactive)
REMARK    1  A    between atoms: C4_6  and  N2_7 
REMARK    2  A    between atoms: N2_7  and  C5_9 
REMARK    3  A    between atoms: C5_9  and  C6_10 
REMARK    4  A    between atoms: C6_10  and  C7_13 
REMARK    5  A    between atoms: N4_22  and  C13_23 
REMARK    6  A    between atoms: C13_23  and  C14_24 
REMARK       I    between atoms: C14_24  and  N5_26 
REMARK    7  A    between atoms: N5_26  and  C15_28 
REMARK    8  A    between atoms: C15_28  and  C16_29 
ROOT
HETATM    1  C1  UNL     1      20.037 -13.067  20.394  1.00  0.00     0.070 C 
HETATM    2  C2  UNL     1      18.694 -13.360  20.940  1.00  0.00     0.027 A 
HETATM    3  C3  UNL     1      17.700 -12.390  20.729  1.00  0.00     0.114 A 
HETATM    4  N1  UNL     1      16.469 -12.562  21.182  1.00  0.00    -0.346 N 
ATOM      5  H1  UNL     1      15.761 -11.847  21.018  1.00  0.00     0.167 HD
HETATM    6  C4  UNL     1      16.152 -13.675  21.857  1.00  0.00     0.171 A 
HETATM    7  C12 UNL     1      17.136 -14.608  22.054  1.00  0.00     0.292 A 
HETATM    8  O1  UNL     1      16.898 -15.677  22.689  1.00  0.00    -0.264 OA
HETATM    9  N4  UNL     1      18.418 -14.484  21.611  1.00  0.00    -0.305 N 
ENDROOT
BRANCH   9  10
HETATM   10  C13 UNL     1      19.410 -15.466  21.853  1.00  0.00     0.235 C 
BRANCH  10  11
HETATM   11  C14 UNL     1      20.113 -15.428  23.125  1.00  0.00     0.236 C 
HETATM   12  O2  UNL     1      19.649 -16.072  24.104  1.00  0.00    -0.272 OA
HETATM   13  N5  UNL     1      21.310 -14.707  23.348  1.00  0.00    -0.354 N 
ATOM     14  H5  UNL     1      21.722 -14.174  22.582  1.00  0.00     0.162 HD
BRANCH  13  15
HETATM   15  C15 UNL     1      21.973 -14.708  24.660  1.00  0.00     0.182 C 
BRANCH  15  16
HETATM   16  C16 UNL     1      23.035 -15.692  24.771  1.00  0.00     0.066 A 
HETATM   17  N6  UNL     1      24.197 -15.534  24.126  1.00  0.00    -0.365 N 
HETATM   18  C17 UNL     1      25.191 -16.457  24.226  1.00  0.00     0.088 A 
ATOM     19  H6  UNL     1      24.341 -14.706  23.549  1.00  0.00     0.165 HD
HETATM   20  C18 UNL     1      25.040 -17.592  24.991  1.00  0.00     0.020 A 
HETATM   21  C19 UNL     1      23.839 -17.748  25.649  1.00  0.00     0.046 A 
HETATM   22  C20 UNL     1      22.845 -16.810  25.543  1.00  0.00     0.140 A 
HETATM   23  F3  UNL     1      21.657 -16.981  26.196  1.00  0.00    -0.204 F 
ENDBRANCH  15  16
ENDBRANCH  13  15
ENDBRANCH  10  11
ENDBRANCH   9  10
BRANCH   6  24
HETATM   24  N2  UNL     1      14.814 -13.894  22.341  1.00  0.00    -0.366 N 
ATOM     25  H2  UNL     1      14.580 -13.618  23.294  1.00  0.00     0.161 HD
BRANCH  24  26
HETATM   26  C5  UNL     1      13.785 -14.501  21.503  1.00  0.00     0.207 C 
BRANCH  26  27
HETATM   27  C6  UNL     1      12.792 -13.468  21.078  1.00  0.00     0.301 C 
HETATM   28  F1  UNL     1      13.408 -12.731  20.066  1.00  0.00    -0.197 F 
HETATM   29  F2  UNL     1      11.677 -14.099  20.562  1.00  0.00    -0.197 F 
BRANCH  27  30
HETATM   30  C7  UNL     1      12.321 -12.539  22.098  1.00  0.00     0.083 A 
HETATM   31  C8  UNL     1      12.680 -11.227  22.238  1.00  0.00     0.031 A 
HETATM   32  C9  UNL     1      12.178 -10.430  23.229  1.00  0.00     0.003 A 
HETATM   33  C10 UNL     1      11.266 -10.940  24.144  1.00  0.00     0.017 A 
HETATM   34  C11 UNL     1      10.909 -12.266  23.993  1.00  0.00     0.088 A 
HETATM   35  N3  UNL     1      11.420 -13.006  23.019  1.00  0.00    -0.364 N 
ATOM     36  H3  UNL     1      11.126 -13.980  22.952  1.00  0.00     0.165 HD
ENDBRANCH  27  30
ENDBRANCH  26  27
ENDBRANCH  24  26
ENDBRANCH   6  24
TORSDOF 8
ENDMDL
