MODEL 10
REMARK VINA RESULT: -8.655151126      2.103      8.352
REMARK  8 active torsions:
REMARK  status: ('A' for Active; 'I' for Inactive)
REMARK    1  A    between atoms: C5_7  and  C6_8 
REMARK    2  A    between atoms: C6_8  and  N2_9 
REMARK       I    between atoms: N2_9  and  C7_11 
REMARK    3  A    between atoms: C7_11  and  C8_13 
REMARK    4  A    between atoms: C8_13  and  N3_14 
REMARK    5  A    between atoms: C12_20  and  N5_21 
REMARK    6  A    between atoms: N5_21  and  C13_23 
REMARK    7  A    between atoms: C13_23  and  C14_24 
REMARK    8  A    between atoms: C14_24  and  C15_27 
ROOT
HETATM    1  N3  UNL     1      15.378 -15.732  20.905  1.00  0.00    -0.284 N 
HETATM    2  C9  UNL     1      15.134 -16.241  19.687  1.00  0.00     0.031 A 
HETATM    3  C10 UNL     1      15.256 -17.724  19.469  1.00  0.00     0.070 C 
HETATM    4  C11 UNL     1      14.775 -15.372  18.703  1.00  0.00     0.115 A 
HETATM    5  N4  UNL     1      14.650 -14.064  18.874  1.00  0.00    -0.346 N 
ATOM      6  H4  UNL     1      14.376 -13.471  18.091  1.00  0.00     0.167 HD
HETATM    7  C12 UNL     1      14.883 -13.524  20.070  1.00  0.00     0.171 A 
HETATM    8  C20 UNL     1      15.262 -14.404  21.097  1.00  0.00     0.296 A 
HETATM    9  O2  UNL     1      15.485 -13.896  22.233  1.00  0.00    -0.263 OA
ENDROOT
BRANCH   1  10
HETATM   10  C8  UNL     1      15.503 -16.632  21.967  1.00  0.00     0.174 C 
BRANCH  10  11
HETATM   11  C7  UNL     1      16.768 -17.044  22.573  1.00  0.00     0.261 C 
HETATM   12  N2  UNL     1      16.930 -16.855  23.977  1.00  0.00    -0.330 N 
ATOM     13  H2  UNL     1      16.116 -16.418  24.408  1.00  0.00     0.168 HD
HETATM   14  O1  UNL     1      17.748 -17.565  22.000  1.00  0.00    -0.267 OA
BRANCH  12  15
HETATM   15  C6  UNL     1      17.933 -17.126  24.890  1.00  0.00     0.124 C 
BRANCH  15  16
HETATM   16  C5  UNL     1      19.131 -16.305  24.927  1.00  0.00     0.087 A 
HETATM   17  N1  UNL     1      19.820 -15.991  23.796  1.00  0.00    -0.362 N 
HETATM   18  C4  UNL     1      20.761 -15.054  23.716  1.00  0.00     0.089 A 
ATOM     19  H1  UNL     1      19.599 -16.513  22.948  1.00  0.00     0.165 HD
HETATM   20  C3  UNL     1      21.124 -14.296  24.845  1.00  0.00     0.027 A 
HETATM   21  C2  UNL     1      20.459 -14.576  26.032  1.00  0.00    -0.020 A 
HETATM   22  C1  UNL     1      20.842 -13.836  27.263  1.00  0.00     0.051 C 
HETATM   23  C21 UNL     1      19.489 -15.555  26.059  1.00  0.00     0.150 A 
HETATM   24  F3  UNL     1      18.855 -15.836  27.275  1.00  0.00    -0.203 F 
ENDBRANCH  15  16
ENDBRANCH  12  15
ENDBRANCH  10  11
ENDBRANCH   1  10
BRANCH   7  25
HETATM   25  N5  UNL     1      14.710 -12.108  20.269  1.00  0.00    -0.366 N 
ATOM     26  H5  UNL     1      15.500 -11.463  20.260  1.00  0.00     0.161 HD
BRANCH  25  27
HETATM   27  C13 UNL     1      13.370 -11.655  20.480  1.00  0.00     0.207 C 
BRANCH  27  28
HETATM   28  C14 UNL     1      13.080 -10.569  21.413  1.00  0.00     0.301 C 
HETATM   29  F1  UNL     1      13.979  -9.579  21.554  1.00  0.00    -0.197 F 
HETATM   30  F2  UNL     1      11.958  -9.809  20.737  1.00  0.00    -0.197 F 
BRANCH  28  31
HETATM   31  C15 UNL     1      12.339 -10.979  22.622  1.00  0.00     0.083 A 
HETATM   32  C16 UNL     1      12.119 -10.074  23.649  1.00  0.00     0.031 A 
HETATM   33  C17 UNL     1      11.367 -10.421  24.762  1.00  0.00     0.003 A 
HETATM   34  C18 UNL     1      10.843 -11.714  24.800  1.00  0.00     0.017 A 
HETATM   35  C19 UNL     1      11.054 -12.606  23.784  1.00  0.00     0.088 A 
HETATM   36  N6  UNL     1      11.799 -12.203  22.723  1.00  0.00    -0.364 N 
ATOM     37  H6  UNL     1      11.956 -12.866  21.963  1.00  0.00     0.165 HD
ENDBRANCH  28  31
ENDBRANCH  27  28
ENDBRANCH  25  27
ENDBRANCH   7  25
TORSDOF 8
ENDMDL
