MODEL 2
REMARK VINA RESULT: -9.054871423      1.142      1.536
REMARK  8 active torsions:
REMARK  status: ('A' for Active; 'I' for Inactive)
REMARK    1  A    between atoms: C5_7  and  C6_8 
REMARK    2  A    between atoms: C6_8  and  N2_9 
REMARK       I    between atoms: N2_9  and  C7_11 
REMARK    3  A    between atoms: C7_11  and  C8_13 
REMARK    4  A    between atoms: C8_13  and  N3_14 
REMARK    5  A    between atoms: C12_20  and  N5_21 
REMARK    6  A    between atoms: N5_21  and  C13_23 
REMARK    7  A    between atoms: C13_23  and  C14_24 
REMARK    8  A    between atoms: C14_24  and  C15_27 
ROOT
HETATM    1  N3  UNL     1      18.242 -13.660  21.443  1.00  0.00    -0.284 N 
HETATM    2  C9  UNL     1      19.373 -14.001  20.804  1.00  0.00     0.031 A 
HETATM    3  C10 UNL     1      19.824 -13.191  19.620  1.00  0.00     0.070 C 
HETATM    4  C11 UNL     1      20.062 -15.074  21.277  1.00  0.00     0.115 A 
HETATM    5  N4  UNL     1      19.690 -15.797  22.324  1.00  0.00    -0.346 N 
ATOM      6  H4  UNL     1      20.256 -16.590  22.624  1.00  0.00     0.167 HD
HETATM    7  C12 UNL     1      18.575 -15.486  22.984  1.00  0.00     0.171 A 
HETATM    8  C20 UNL     1      17.845 -14.385  22.506  1.00  0.00     0.296 A 
HETATM    9  O2  UNL     1      16.785 -14.087  23.128  1.00  0.00    -0.263 OA
ENDROOT
BRANCH   1  10
HETATM   10  C8  UNL     1      17.667 -12.427  21.123  1.00  0.00     0.174 C 
BRANCH  10  11
HETATM   11  C7  UNL     1      16.447 -12.249  20.338  1.00  0.00     0.261 C 
HETATM   12  N2  UNL     1      15.196 -12.367  21.010  1.00  0.00    -0.330 N 
ATOM     13  H2  UNL     1      15.304 -12.591  21.999  1.00  0.00     0.168 HD
HETATM   14  O1  UNL     1      16.363 -11.987  19.119  1.00  0.00    -0.267 OA
BRANCH  12  15
HETATM   15  C6  UNL     1      13.870 -12.249  20.635  1.00  0.00     0.124 C 
BRANCH  15  16
HETATM   16  C5  UNL     1      12.860 -11.898  21.618  1.00  0.00     0.087 A 
HETATM   17  N1  UNL     1      11.926 -12.794  22.039  1.00  0.00    -0.362 N 
HETATM   18  C4  UNL     1      11.142 -12.632  23.102  1.00  0.00     0.089 A 
ATOM     19  H1  UNL     1      11.819 -13.653  21.500  1.00  0.00     0.165 HD
HETATM   20  C3  UNL     1      11.227 -11.470  23.892  1.00  0.00     0.027 A 
HETATM   21  C2  UNL     1      12.160 -10.514  23.508  1.00  0.00    -0.020 A 
HETATM   22  C1  UNL     1      12.252  -9.249  24.282  1.00  0.00     0.051 C 
HETATM   23  C21 UNL     1      12.949 -10.735  22.400  1.00  0.00     0.150 A 
HETATM   24  F3  UNL     1      13.859  -9.742  22.019  1.00  0.00    -0.203 F 
ENDBRANCH  15  16
ENDBRANCH  12  15
ENDBRANCH  10  11
ENDBRANCH   1  10
BRANCH   7  25
HETATM   25  N5  UNL     1      18.188 -16.244  24.146  1.00  0.00    -0.366 N 
ATOM     26  H5  UNL     1      17.753 -17.163  24.068  1.00  0.00     0.161 HD
BRANCH  25  27
HETATM   27  C13 UNL     1      18.447 -15.637  25.415  1.00  0.00     0.207 C 
BRANCH  27  28
HETATM   28  C14 UNL     1      19.736 -15.013  25.702  1.00  0.00     0.301 C 
HETATM   29  F1  UNL     1      19.927 -13.729  25.353  1.00  0.00    -0.197 F 
HETATM   30  F2  UNL     1      19.737 -14.876  27.211  1.00  0.00    -0.197 F 
BRANCH  28  31
HETATM   31  C15 UNL     1      20.896 -15.920  25.587  1.00  0.00     0.083 A 
HETATM   32  C16 UNL     1      22.047 -15.504  24.936  1.00  0.00     0.031 A 
HETATM   33  C17 UNL     1      23.169 -16.317  24.876  1.00  0.00     0.003 A 
HETATM   34  C18 UNL     1      23.090 -17.563  25.499  1.00  0.00     0.017 A 
HETATM   35  C19 UNL     1      21.956 -17.971  26.149  1.00  0.00     0.088 A 
HETATM   36  N6  UNL     1      20.892 -17.128  26.170  1.00  0.00    -0.364 N 
ATOM     37  H6  UNL     1      20.046 -17.429  26.654  1.00  0.00     0.165 HD
ENDBRANCH  28  31
ENDBRANCH  27  28
ENDBRANCH  25  27
ENDBRANCH   7  25
TORSDOF 8
ENDMDL
