MODEL 1
REMARK VINA RESULT: -9.631243355      0.000      0.000
REMARK  8 active torsions:
REMARK  status: ('A' for Active; 'I' for Inactive)
REMARK    1  A    between atoms: C5_7  and  C6_8 
REMARK    2  A    between atoms: C6_8  and  N2_9 
REMARK       I    between atoms: N2_9  and  C7_11 
REMARK    3  A    between atoms: C7_11  and  C8_13 
REMARK    4  A    between atoms: C8_13  and  N3_14 
REMARK    5  A    between atoms: C12_20  and  N5_21 
REMARK    6  A    between atoms: N5_21  and  C13_23 
REMARK    7  A    between atoms: C13_23  and  C14_24 
REMARK    8  A    between atoms: C14_24  and  C15_27 
ROOT
HETATM    1  N3  UNL     1      18.061 -13.864  21.610  1.00  0.00    -0.284 N 
HETATM    2  C9  UNL     1      19.227 -14.312  21.117  1.00  0.00     0.031 A 
HETATM    3  C10 UNL     1      19.906 -13.544  20.017  1.00  0.00     0.070 C 
HETATM    4  C11 UNL     1      19.741 -15.450  21.657  1.00  0.00     0.115 A 
HETATM    5  N4  UNL     1      19.167 -16.137  22.634  1.00  0.00    -0.346 N 
ATOM      6  H4  UNL     1      19.609 -16.984  22.992  1.00  0.00     0.167 HD
HETATM    7  C12 UNL     1      18.010 -15.721  23.148  1.00  0.00     0.171 A 
HETATM    8  C20 UNL     1      17.459 -14.552  22.600  1.00  0.00     0.296 A 
HETATM    9  O2  UNL     1      16.361 -14.154  23.083  1.00  0.00    -0.263 OA
ENDROOT
BRANCH   1  10
HETATM   10  C8  UNL     1      17.655 -12.579  21.239  1.00  0.00     0.174 C 
BRANCH  10  11
HETATM   11  C7  UNL     1      16.481 -12.273  20.424  1.00  0.00     0.261 C 
HETATM   12  N2  UNL     1      15.204 -12.295  21.055  1.00  0.00    -0.330 N 
ATOM     13  H2  UNL     1      15.260 -12.552  22.041  1.00  0.00     0.168 HD
HETATM   14  O1  UNL     1      16.459 -11.975  19.211  1.00  0.00    -0.267 OA
BRANCH  12  15
HETATM   15  C6  UNL     1      13.906 -12.050  20.645  1.00  0.00     0.124 C 
BRANCH  15  16
HETATM   16  C5  UNL     1      12.869 -11.769  21.623  1.00  0.00     0.087 A 
HETATM   17  N1  UNL     1      11.951 -12.707  21.983  1.00  0.00    -0.362 N 
HETATM   18  C4  UNL     1      11.144 -12.614  23.037  1.00  0.00     0.089 A 
ATOM     19  H1  UNL     1      11.876 -13.542  21.403  1.00  0.00     0.165 HD
HETATM   20  C3  UNL     1      11.185 -11.489  23.882  1.00  0.00     0.027 A 
HETATM   21  C2  UNL     1      12.100 -10.493  23.560  1.00  0.00    -0.020 A 
HETATM   22  C1  UNL     1      12.146  -9.263  24.394  1.00  0.00     0.051 C 
HETATM   23  C21 UNL     1      12.915 -10.642  22.459  1.00  0.00     0.150 A 
HETATM   24  F3  UNL     1      13.806  -9.611  22.143  1.00  0.00    -0.203 F 
ENDBRANCH  15  16
ENDBRANCH  12  15
ENDBRANCH  10  11
ENDBRANCH   1  10
BRANCH   7  25
HETATM   25  N5  UNL     1      17.403 -16.443  24.237  1.00  0.00    -0.366 N 
ATOM     26  H5  UNL     1      16.402 -16.384  24.430  1.00  0.00     0.161 HD
BRANCH  25  27
HETATM   27  C13 UNL     1      18.278 -17.246  25.033  1.00  0.00     0.207 C 
BRANCH  27  28
HETATM   28  C14 UNL     1      18.881 -16.719  26.254  1.00  0.00     0.301 C 
HETATM   29  F1  UNL     1      18.086 -16.435  27.301  1.00  0.00    -0.197 F 
HETATM   30  F2  UNL     1      19.640 -17.903  26.817  1.00  0.00    -0.197 F 
BRANCH  28  31
HETATM   31  C15 UNL     1      20.040 -15.830  26.033  1.00  0.00     0.083 A 
HETATM   32  C16 UNL     1      20.040 -14.540  26.541  1.00  0.00     0.031 A 
HETATM   33  C17 UNL     1      21.146 -13.716  26.401  1.00  0.00     0.003 A 
HETATM   34  C18 UNL     1      22.253 -14.240  25.732  1.00  0.00     0.017 A 
HETATM   35  C19 UNL     1      22.257 -15.516  25.236  1.00  0.00     0.088 A 
HETATM   36  N6  UNL     1      21.141 -16.271  25.407  1.00  0.00    -0.364 N 
ATOM     37  H6  UNL     1      21.141 -17.223  25.040  1.00  0.00     0.165 HD
ENDBRANCH  28  31
ENDBRANCH  27  28
ENDBRANCH  25  27
ENDBRANCH   7  25
TORSDOF 8
ENDMDL
