MODEL 3
REMARK VINA RESULT: -8.958439799      1.304      1.576
REMARK  8 active torsions:
REMARK  status: ('A' for Active; 'I' for Inactive)
REMARK    1  A    between atoms: C5_7  and  C6_8 
REMARK    2  A    between atoms: C6_8  and  N2_9 
REMARK       I    between atoms: N2_9  and  C7_11 
REMARK    3  A    between atoms: C7_11  and  C8_13 
REMARK    4  A    between atoms: C8_13  and  N3_14 
REMARK    5  A    between atoms: C12_20  and  N5_21 
REMARK    6  A    between atoms: N5_21  and  C13_23 
REMARK    7  A    between atoms: C13_23  and  C14_24 
REMARK    8  A    between atoms: C14_24  and  C15_27 
ROOT
HETATM    1  N3  UNL     1      17.922 -14.438  20.799  1.00  0.00    -0.284 N 
HETATM    2  C9  UNL     1      19.209 -14.071  20.895  1.00  0.00     0.031 A 
HETATM    3  C10 UNL     1      19.857 -13.345  19.748  1.00  0.00     0.070 C 
HETATM    4  C11 UNL     1      19.865 -14.375  22.048  1.00  0.00     0.115 A 
HETATM    5  N4  UNL     1      19.313 -15.004  23.075  1.00  0.00    -0.346 N 
ATOM      6  H4  UNL     1      19.865 -15.199  23.910  1.00  0.00     0.167 HD
HETATM    7  C12 UNL     1      18.036 -15.381  23.016  1.00  0.00     0.171 A 
HETATM    8  C20 UNL     1      17.345 -15.084  21.831  1.00  0.00     0.296 A 
HETATM    9  O2  UNL     1      16.134 -15.441  21.769  1.00  0.00    -0.263 OA
ENDROOT
BRANCH   1  10
HETATM   10  C8  UNL     1      17.180 -13.919  19.734  1.00  0.00     0.174 C 
BRANCH  10  11
HETATM   11  C7  UNL     1      16.144 -12.896  19.854  1.00  0.00     0.261 C 
HETATM   12  N2  UNL     1      14.787 -13.324  19.945  1.00  0.00    -0.330 N 
ATOM     13  H2  UNL     1      14.695 -14.338  19.894  1.00  0.00     0.168 HD
HETATM   14  O1  UNL     1      16.304 -11.657  19.899  1.00  0.00    -0.267 OA
BRANCH  12  15
HETATM   15  C6  UNL     1      13.568 -12.687  20.086  1.00  0.00     0.124 C 
BRANCH  15  16
HETATM   16  C5  UNL     1      13.259 -11.958  21.304  1.00  0.00     0.087 A 
HETATM   17  N1  UNL     1      13.670 -10.674  21.495  1.00  0.00    -0.362 N 
HETATM   18  C4  UNL     1      13.220  -9.868  22.453  1.00  0.00     0.089 A 
ATOM     19  H1  UNL     1      14.374 -10.304  20.857  1.00  0.00     0.165 HD
HETATM   20  C3  UNL     1      12.252 -10.309  23.374  1.00  0.00     0.027 A 
HETATM   21  C2  UNL     1      11.798 -11.615  23.234  1.00  0.00    -0.020 A 
HETATM   22  C1  UNL     1      10.813 -12.143  24.213  1.00  0.00     0.051 C 
HETATM   23  C21 UNL     1      12.295 -12.407  22.221  1.00  0.00     0.150 A 
HETATM   24  F3  UNL     1      11.842 -13.727  22.120  1.00  0.00    -0.203 F 
ENDBRANCH  15  16
ENDBRANCH  12  15
ENDBRANCH  10  11
ENDBRANCH   1  10
BRANCH   7  25
HETATM   25  N5  UNL     1      17.422 -16.030  24.146  1.00  0.00    -0.366 N 
ATOM     26  H5  UNL     1      16.528 -15.716  24.526  1.00  0.00     0.161 HD
BRANCH  25  27
HETATM   27  C13 UNL     1      18.131 -17.138  24.705  1.00  0.00     0.207 C 
BRANCH  27  28
HETATM   28  C14 UNL     1      18.747 -17.048  26.027  1.00  0.00     0.301 C 
HETATM   29  F1  UNL     1      17.962 -17.137  27.115  1.00  0.00    -0.197 F 
HETATM   30  F2  UNL     1      19.514 -18.349  26.152  1.00  0.00    -0.197 F 
BRANCH  28  31
HETATM   31  C15 UNL     1      19.901 -16.131  26.106  1.00  0.00     0.083 A 
HETATM   32  C16 UNL     1      19.811 -14.955  26.835  1.00  0.00     0.031 A 
HETATM   33  C17 UNL     1      20.906 -14.114  26.975  1.00  0.00     0.003 A 
HETATM   34  C18 UNL     1      22.095 -14.504  26.357  1.00  0.00     0.017 A 
HETATM   35  C19 UNL     1      22.186 -15.669  25.643  1.00  0.00     0.088 A 
HETATM   36  N6  UNL     1      21.077 -16.447  25.543  1.00  0.00    -0.364 N 
ATOM     37  H6  UNL     1      21.142 -17.316  25.013  1.00  0.00     0.165 HD
ENDBRANCH  28  31
ENDBRANCH  27  28
ENDBRANCH  25  27
ENDBRANCH   7  25
TORSDOF 8
ENDMDL
