MODEL 11
REMARK VINA RESULT: -8.654141484      1.850      8.331
REMARK  8 active torsions:
REMARK  status: ('A' for Active; 'I' for Inactive)
REMARK    1  A    between atoms: C5_7  and  C6_8 
REMARK    2  A    between atoms: C6_8  and  N2_9 
REMARK       I    between atoms: N2_9  and  C7_11 
REMARK    3  A    between atoms: C7_11  and  C8_13 
REMARK    4  A    between atoms: C8_13  and  N3_14 
REMARK    5  A    between atoms: C12_20  and  N5_21 
REMARK    6  A    between atoms: N5_21  and  C13_23 
REMARK    7  A    between atoms: C13_23  and  C14_24 
REMARK    8  A    between atoms: C14_24  and  C15_27 
ROOT
HETATM    1  N3  UNL     1      18.219 -14.558  21.401  1.00  0.00    -0.284 N 
HETATM    2  C9  UNL     1      18.675 -13.423  20.847  1.00  0.00     0.031 A 
HETATM    3  C10 UNL     1      20.067 -13.388  20.278  1.00  0.00     0.070 C 
HETATM    4  C11 UNL     1      17.835 -12.353  20.823  1.00  0.00     0.115 A 
HETATM    5  N4  UNL     1      16.602 -12.364  21.308  1.00  0.00    -0.346 N 
ATOM      6  H4  UNL     1      16.026 -11.524  21.257  1.00  0.00     0.167 HD
HETATM    7  C12 UNL     1      16.115 -13.473  21.864  1.00  0.00     0.171 A 
HETATM    8  C20 UNL     1      16.970 -14.586  21.904  1.00  0.00     0.296 A 
HETATM    9  O2  UNL     1      16.513 -15.641  22.431  1.00  0.00    -0.263 OA
ENDROOT
BRANCH   1  10
HETATM   10  C8  UNL     1      18.974 -15.718  21.209  1.00  0.00     0.174 C 
BRANCH  10  11
HETATM   11  C7  UNL     1      19.759 -16.389  22.243  1.00  0.00     0.261 C 
HETATM   12  N2  UNL     1      19.061 -16.962  23.347  1.00  0.00    -0.330 N 
ATOM     13  H2  UNL     1      18.054 -16.813  23.291  1.00  0.00     0.168 HD
HETATM   14  O1  UNL     1      20.999 -16.537  22.276  1.00  0.00    -0.267 OA
BRANCH  12  15
HETATM   15  C6  UNL     1      19.431 -17.672  24.474  1.00  0.00     0.124 C 
BRANCH  15  16
HETATM   16  C5  UNL     1      20.340 -17.087  25.443  1.00  0.00     0.087 A 
HETATM   17  N1  UNL     1      21.567 -17.622  25.691  1.00  0.00    -0.362 N 
HETATM   18  C4  UNL     1      22.541 -17.012  26.362  1.00  0.00     0.089 A 
ATOM     19  H1  UNL     1      21.753 -18.560  25.335  1.00  0.00     0.165 HD
HETATM   20  C3  UNL     1      22.357 -15.720  26.887  1.00  0.00     0.027 A 
HETATM   21  C2  UNL     1      21.120 -15.123  26.672  1.00  0.00    -0.020 A 
HETATM   22  C1  UNL     1      20.861 -13.778  27.250  1.00  0.00     0.051 C 
HETATM   23  C21 UNL     1      20.148 -15.798  25.967  1.00  0.00     0.150 A 
HETATM   24  F3  UNL     1      18.902 -15.184  25.790  1.00  0.00    -0.203 F 
ENDBRANCH  15  16
ENDBRANCH  12  15
ENDBRANCH  10  11
ENDBRANCH   1  10
BRANCH   7  25
HETATM   25  N5  UNL     1      14.762 -13.501  22.356  1.00  0.00    -0.366 N 
ATOM     26  H5  UNL     1      14.545 -13.356  23.342  1.00  0.00     0.161 HD
BRANCH  25  27
HETATM   27  C13 UNL     1      13.738 -13.742  21.387  1.00  0.00     0.207 C 
BRANCH  27  28
HETATM   28  C14 UNL     1      12.669 -12.772  21.163  1.00  0.00     0.301 C 
HETATM   29  F1  UNL     1      12.678 -12.047  20.031  1.00  0.00    -0.197 F 
HETATM   30  F2  UNL     1      11.451 -13.636  20.910  1.00  0.00    -0.197 F 
BRANCH  28  31
HETATM   31  C15 UNL     1      12.183 -12.100  22.385  1.00  0.00     0.083 A 
HETATM   32  C16 UNL     1      12.489 -10.769  22.621  1.00  0.00     0.031 A 
HETATM   33  C17 UNL     1      11.986 -10.104  23.729  1.00  0.00     0.003 A 
HETATM   34  C18 UNL     1      11.161 -10.830  24.590  1.00  0.00     0.017 A 
HETATM   35  C19 UNL     1      10.853 -12.142  24.354  1.00  0.00     0.088 A 
HETATM   36  N6  UNL     1      11.378 -12.735  23.251  1.00  0.00    -0.364 N 
ATOM     37  H6  UNL     1      11.150 -13.713  23.072  1.00  0.00     0.165 HD
ENDBRANCH  28  31
ENDBRANCH  27  28
ENDBRANCH  25  27
ENDBRANCH   7  25
TORSDOF 8
ENDMDL
