MODEL 12
REMARK VINA RESULT: -8.639711601      2.949      6.364
REMARK  8 active torsions:
REMARK  status: ('A' for Active; 'I' for Inactive)
REMARK    1  A    between atoms: C5_7  and  C6_8 
REMARK    2  A    between atoms: C6_8  and  N2_9 
REMARK       I    between atoms: N2_9  and  C7_11 
REMARK    3  A    between atoms: C7_11  and  C8_13 
REMARK    4  A    between atoms: C8_13  and  N3_14 
REMARK    5  A    between atoms: C12_20  and  N5_21 
REMARK    6  A    between atoms: N5_21  and  C13_23 
REMARK    7  A    between atoms: C13_23  and  C14_24 
REMARK    8  A    between atoms: C14_24  and  C15_27 
ROOT
HETATM    1  N3  UNL     1      14.154 -13.822  20.586  1.00  0.00    -0.284 N 
HETATM    2  C9  UNL     1      13.617 -12.720  21.133  1.00  0.00     0.031 A 
HETATM    3  C10 UNL     1      12.164 -12.723  21.523  1.00  0.00     0.070 C 
HETATM    4  C11 UNL     1      14.433 -11.646  21.313  1.00  0.00     0.115 A 
HETATM    5  N4  UNL     1      15.717 -11.623  20.987  1.00  0.00    -0.346 N 
ATOM      6  H4  UNL     1      16.270 -10.782  21.151  1.00  0.00     0.167 HD
HETATM    7  C12 UNL     1      16.285 -12.699  20.444  1.00  0.00     0.171 A 
HETATM    8  C20 UNL     1      15.457 -13.816  20.243  1.00  0.00     0.296 A 
HETATM    9  O2  UNL     1      15.990 -14.839  19.727  1.00  0.00    -0.263 OA
ENDROOT
BRANCH   1  10
HETATM   10  C8  UNL     1      13.398 -14.996  20.625  1.00  0.00     0.174 C 
BRANCH  10  11
HETATM   11  C7  UNL     1      13.518 -16.038  21.643  1.00  0.00     0.261 C 
HETATM   12  N2  UNL     1      14.684 -16.857  21.629  1.00  0.00    -0.330 N 
ATOM     13  H2  UNL     1      15.316 -16.621  20.865  1.00  0.00     0.168 HD
HETATM   14  O1  UNL     1      12.706 -16.300  22.557  1.00  0.00    -0.267 OA
BRANCH  12  15
HETATM   15  C6  UNL     1      15.159 -17.896  22.409  1.00  0.00     0.124 C 
BRANCH  15  16
HETATM   16  C5  UNL     1      16.377 -17.733  23.182  1.00  0.00     0.087 A 
HETATM   17  N1  UNL     1      16.370 -17.740  24.543  1.00  0.00    -0.362 N 
HETATM   18  C4  UNL     1      17.453 -17.851  25.308  1.00  0.00     0.089 A 
ATOM     19  H1  UNL     1      15.468 -17.654  25.011  1.00  0.00     0.165 HD
HETATM   20  C3  UNL     1      18.734 -17.969  24.735  1.00  0.00     0.027 A 
HETATM   21  C2  UNL     1      18.806 -17.960  23.348  1.00  0.00    -0.020 A 
HETATM   22  C1  UNL     1      20.140 -18.032  22.697  1.00  0.00     0.051 C 
HETATM   23  C21 UNL     1      17.652 -17.847  22.603  1.00  0.00     0.150 A 
HETATM   24  F3  UNL     1      17.757 -17.813  21.208  1.00  0.00    -0.203 F 
ENDBRANCH  15  16
ENDBRANCH  12  15
ENDBRANCH  10  11
ENDBRANCH   1  10
BRANCH   7  25
HETATM   25  N5  UNL     1      17.689 -12.692  20.125  1.00  0.00    -0.366 N 
ATOM     26  H5  UNL     1      18.023 -12.564  19.169  1.00  0.00     0.161 HD
BRANCH  25  27
HETATM   27  C13 UNL     1      18.591 -12.873  21.221  1.00  0.00     0.207 C 
BRANCH  27  28
HETATM   28  C14 UNL     1      19.315 -14.129  21.400  1.00  0.00     0.301 C 
HETATM   29  F1  UNL     1      18.855 -15.236  20.790  1.00  0.00    -0.197 F 
HETATM   30  F2  UNL     1      20.596 -13.915  20.621  1.00  0.00    -0.197 F 
BRANCH  28  31
HETATM   31  C15 UNL     1      19.923 -14.303  22.734  1.00  0.00     0.083 A 
HETATM   32  C16 UNL     1      19.132 -14.282  23.872  1.00  0.00     0.031 A 
HETATM   33  C17 UNL     1      19.677 -14.511  25.127  1.00  0.00     0.003 A 
HETATM   34  C18 UNL     1      21.047 -14.763  25.192  1.00  0.00     0.017 A 
HETATM   35  C19 UNL     1      21.828 -14.791  24.069  1.00  0.00     0.088 A 
HETATM   36  N6  UNL     1      21.233 -14.559  22.870  1.00  0.00    -0.364 N 
ATOM     37  H6  UNL     1      21.812 -14.580  22.031  1.00  0.00     0.165 HD
ENDBRANCH  28  31
ENDBRANCH  27  28
ENDBRANCH  25  27
ENDBRANCH   7  25
TORSDOF 8
ENDMDL
