MODEL 4
REMARK VINA RESULT: -8.911555481      1.917      2.472
REMARK  9 active torsions:
REMARK  status: ('A' for Active; 'I' for Inactive)
REMARK    1  A    between atoms: C1_2  and  C2_3 
REMARK       I    between atoms: C1_2  and  N5_27 
REMARK    2  A    between atoms: C2_3  and  N1_4 
REMARK    3  A    between atoms: C5_10  and  N3_11 
REMARK    4  A    between atoms: N3_11  and  C6_13 
REMARK    5  A    between atoms: C6_13  and  C7_14 
REMARK    6  A    between atoms: C7_14  and  C8_17 
REMARK    7  A    between atoms: N4_22  and  O2_23 
REMARK    8  A    between atoms: N5_27  and  C14_29 
REMARK    9  A    between atoms: C14_29  and  C15_30 
ROOT
HETATM    1  N1  UNL     1      17.761 -14.853  21.272  1.00  0.00    -0.291 N 
HETATM    2  C3  UNL     1      18.645 -13.834  21.324  1.00  0.00     0.124 A 
HETATM    3 CL1  UNL     1      20.338 -14.143  21.478  1.00  0.00    -0.063 Cl
HETATM    4  C4  UNL     1      18.152 -12.522  21.250  1.00  0.00     0.132 A 
HETATM    5  N2  UNL     1      16.851 -12.317  21.137  1.00  0.00    -0.345 N 
ATOM      6  H2  UNL     1      16.526 -11.351  21.089  1.00  0.00     0.167 HD
HETATM    7  C5  UNL     1      15.934 -13.279  21.083  1.00  0.00     0.171 A 
HETATM    8  C13 UNL     1      16.437 -14.580  21.150  1.00  0.00     0.293 A 
HETATM    9  O3  UNL     1      15.641 -15.550  21.098  1.00  0.00    -0.264 OA
ENDROOT
BRANCH   7  10
HETATM   10  N3  UNL     1      14.542 -13.125  20.971  1.00  0.00    -0.366 N 
ATOM     11  H3  UNL     1      14.187 -12.886  20.046  1.00  0.00     0.161 HD
BRANCH  10  12
HETATM   12  C6  UNL     1      13.560 -13.266  22.016  1.00  0.00     0.207 C 
BRANCH  12  13
HETATM   13  C7  UNL     1      12.279 -12.548  21.842  1.00  0.00     0.303 C 
HETATM   14  F1  UNL     1      11.212 -13.396  21.718  1.00  0.00    -0.197 F 
HETATM   15  F2  UNL     1      12.368 -11.786  20.619  1.00  0.00    -0.197 F 
BRANCH  13  16
HETATM   16  C8  UNL     1      11.997 -11.513  22.845  1.00  0.00     0.112 A 
HETATM   17  C9  UNL     1      12.774 -10.321  22.847  1.00  0.00     0.034 A 
HETATM   18  C10 UNL     1      12.594  -9.338  23.770  1.00  0.00     0.004 A 
HETATM   19  C11 UNL     1      11.642  -9.475  24.742  1.00  0.00     0.020 A 
HETATM   20  C12 UNL     1      10.886 -10.653  24.724  1.00  0.00     0.123 A 
HETATM   21  N4  UNL     1      11.074 -11.611  23.807  1.00  0.00    -0.234 N 
BRANCH  21  22
HETATM   22  O2  UNL     1      10.261 -12.731  23.876  1.00  0.00    -0.283 OA
ATOM     23  H2  UNL     1       9.482 -12.788  23.335  1.00  0.00     0.245 HD
ENDBRANCH  21  22
ENDBRANCH  13  16
ENDBRANCH  12  13
ENDBRANCH  10  12
ENDBRANCH   7  10
BRANCH   1  24
HETATM   24  C2  UNL     1      18.222 -16.202  21.441  1.00  0.00     0.236 C 
BRANCH  24  25
HETATM   25  C1  UNL     1      18.432 -16.517  22.888  1.00  0.00     0.236 C 
HETATM   26  O1  UNL     1      17.510 -16.310  23.719  1.00  0.00    -0.272 OA
HETATM   27  N5  UNL     1      19.681 -17.041  23.291  1.00  0.00    -0.355 N 
ATOM     28  H5  UNL     1      20.373 -17.204  22.560  1.00  0.00     0.162 HD
BRANCH  27  29
HETATM   29  C14 UNL     1      20.060 -17.362  24.615  1.00  0.00     0.164 C 
BRANCH  29  30
HETATM   30  C15 UNL     1      20.507 -16.074  25.270  1.00  0.00    -0.002 A 
HETATM   31  C16 UNL     1      21.584 -15.352  24.786  1.00  0.00     0.012 A 
HETATM   32  C17 UNL     1      21.996 -14.184  25.447  1.00  0.00     0.001 A 
HETATM   33  C18 UNL     1      21.320 -13.772  26.568  1.00  0.00     0.003 A 
HETATM   34  C19 UNL     1      20.248 -14.497  27.043  1.00  0.00     0.043 A 
HETATM   35  C20 UNL     1      19.831 -15.663  26.391  1.00  0.00     0.124 A 
HETATM   36  F3  UNL     1      18.767 -16.345  26.922  1.00  0.00    -0.205 F 
ENDBRANCH  29  30
ENDBRANCH  27  29
ENDBRANCH  24  25
ENDBRANCH   1  24
TORSDOF 9
ENDMDL
