MODEL 2
REMARK VINA RESULT: -9.033276260      2.381      2.859
REMARK  9 active torsions:
REMARK  status: ('A' for Active; 'I' for Inactive)
REMARK    1  A    between atoms: C1_2  and  C2_3 
REMARK       I    between atoms: C1_2  and  N5_27 
REMARK    2  A    between atoms: C2_3  and  N1_4 
REMARK    3  A    between atoms: C5_10  and  N3_11 
REMARK    4  A    between atoms: N3_11  and  C6_13 
REMARK    5  A    between atoms: C6_13  and  C7_14 
REMARK    6  A    between atoms: C7_14  and  C8_17 
REMARK    7  A    between atoms: N4_22  and  O2_23 
REMARK    8  A    between atoms: N5_27  and  C14_29 
REMARK    9  A    between atoms: C14_29  and  C15_30 
ROOT
HETATM    1  N1  UNL     1      17.363 -14.846  21.040  1.00  0.00    -0.291 N 
HETATM    2  C3  UNL     1      18.423 -14.018  20.932  1.00  0.00     0.124 A 
HETATM    3 CL1  UNL     1      20.012 -14.648  20.684  1.00  0.00    -0.063 Cl
HETATM    4  C4  UNL     1      18.198 -12.636  21.026  1.00  0.00     0.132 A 
HETATM    5  N2  UNL     1      16.971 -12.183  21.221  1.00  0.00    -0.345 N 
ATOM      6  H2  UNL     1      16.844 -11.173  21.288  1.00  0.00     0.167 HD
HETATM    7  C5  UNL     1      15.891 -12.949  21.337  1.00  0.00     0.171 A 
HETATM    8  C13 UNL     1      16.126 -14.322  21.234  1.00  0.00     0.293 A 
HETATM    9  O3  UNL     1      15.159 -15.119  21.324  1.00  0.00    -0.264 OA
ENDROOT
BRANCH   7  10
HETATM   10  N3  UNL     1      14.567 -12.530  21.551  1.00  0.00    -0.366 N 
ATOM     11  H3  UNL     1      14.140 -12.815  22.432  1.00  0.00     0.161 HD
BRANCH  10  12
HETATM   12  C6  UNL     1      13.745 -11.744  20.666  1.00  0.00     0.207 C 
BRANCH  12  13
HETATM   13  C7  UNL     1      13.034 -10.588  21.254  1.00  0.00     0.303 C 
HETATM   14  F1  UNL     1      12.254  -9.929  20.342  1.00  0.00    -0.197 F 
HETATM   15  F2  UNL     1      14.029  -9.654  21.725  1.00  0.00    -0.197 F 
BRANCH  13  16
HETATM   16  C8  UNL     1      12.264 -10.877  22.471  1.00  0.00     0.112 A 
HETATM   17  C9  UNL     1      12.266  -9.929  23.532  1.00  0.00     0.034 A 
HETATM   18  C10 UNL     1      11.607 -10.146  24.702  1.00  0.00     0.004 A 
HETATM   19  C11 UNL     1      10.913 -11.309  24.893  1.00  0.00     0.020 A 
HETATM   20  C12 UNL     1      10.920 -12.229  23.839  1.00  0.00     0.123 A 
HETATM   21  N4  UNL     1      11.572 -11.999  22.691  1.00  0.00    -0.234 N 
BRANCH  21  22
HETATM   22  O2  UNL     1      11.503 -12.975  21.710  1.00  0.00    -0.283 OA
ATOM     23  H2  UNL     1      11.513 -12.729  20.792  1.00  0.00     0.245 HD
ENDBRANCH  21  22
ENDBRANCH  13  16
ENDBRANCH  12  13
ENDBRANCH  10  12
ENDBRANCH   7  10
BRANCH   1  24
HETATM   24  C2  UNL     1      17.570 -16.267  21.043  1.00  0.00     0.236 C 
BRANCH  24  25
HETATM   25  C1  UNL     1      18.033 -16.736  22.386  1.00  0.00     0.236 C 
HETATM   26  O1  UNL     1      18.890 -17.653  22.473  1.00  0.00    -0.272 OA
HETATM   27  N5  UNL     1      17.485 -16.131  23.539  1.00  0.00    -0.355 N 
ATOM     28  H5  UNL     1      16.812 -15.378  23.392  1.00  0.00     0.162 HD
BRANCH  27  29
HETATM   29  C14 UNL     1      17.782 -16.472  24.879  1.00  0.00     0.164 C 
BRANCH  29  30
HETATM   30  C15 UNL     1      18.845 -15.509  25.355  1.00  0.00    -0.002 A 
HETATM   31  C16 UNL     1      19.408 -14.574  24.504  1.00  0.00     0.012 A 
HETATM   32  C17 UNL     1      20.425 -13.726  24.970  1.00  0.00     0.001 A 
HETATM   33  C18 UNL     1      20.845 -13.835  26.272  1.00  0.00     0.003 A 
HETATM   34  C19 UNL     1      20.279 -14.768  27.114  1.00  0.00     0.043 A 
HETATM   35  C20 UNL     1      19.266 -15.618  26.656  1.00  0.00     0.124 A 
HETATM   36  F3  UNL     1      18.754 -16.534  27.539  1.00  0.00    -0.205 F 
ENDBRANCH  29  30
ENDBRANCH  27  29
ENDBRANCH  24  25
ENDBRANCH   1  24
TORSDOF 9
ENDMDL
