MODEL 1
REMARK VINA RESULT: -9.110425143      0.000      0.000
REMARK  9 active torsions:
REMARK  status: ('A' for Active; 'I' for Inactive)
REMARK    1  A    between atoms: C1_2  and  C2_3 
REMARK       I    between atoms: C1_2  and  N5_27 
REMARK    2  A    between atoms: C2_3  and  N1_4 
REMARK    3  A    between atoms: C5_10  and  N3_11 
REMARK    4  A    between atoms: N3_11  and  C6_13 
REMARK    5  A    between atoms: C6_13  and  C7_14 
REMARK    6  A    between atoms: C7_14  and  C8_17 
REMARK    7  A    between atoms: N4_22  and  O2_23 
REMARK    8  A    between atoms: N5_27  and  C14_29 
REMARK    9  A    between atoms: C14_29  and  C15_30 
ROOT
HETATM    1  N1  UNL     1      17.244 -13.106  20.034  1.00  0.00    -0.291 N 
HETATM    2  C3  UNL     1      17.381 -13.125  18.692  1.00  0.00     0.124 A 
HETATM    3 CL1  UNL     1      18.903 -12.769  17.956  1.00  0.00    -0.063 Cl
HETATM    4  C4  UNL     1      16.257 -13.442  17.913  1.00  0.00     0.132 A 
HETATM    5  N2  UNL     1      15.103 -13.705  18.505  1.00  0.00    -0.345 N 
ATOM      6  H2  UNL     1      14.306 -13.928  17.909  1.00  0.00     0.167 HD
HETATM    7  C5  UNL     1      14.908 -13.699  19.820  1.00  0.00     0.171 A 
HETATM    8  C13 UNL     1      16.035 -13.391  20.584  1.00  0.00     0.293 A 
HETATM    9  O3  UNL     1      15.942 -13.371  21.837  1.00  0.00    -0.264 OA
ENDROOT
BRANCH   7  10
HETATM   10  N3  UNL     1      13.710 -13.962  20.505  1.00  0.00    -0.366 N 
ATOM     11  H3  UNL     1      13.568 -14.924  20.813  1.00  0.00     0.161 HD
BRANCH  10  12
HETATM   12  C6  UNL     1      12.660 -13.028  20.822  1.00  0.00     0.207 C 
BRANCH  12  13
HETATM   13  C7  UNL     1      12.023 -13.151  22.151  1.00  0.00     0.303 C 
HETATM   14  F1  UNL     1      12.575 -14.149  22.908  1.00  0.00    -0.197 F 
HETATM   15  F2  UNL     1      10.635 -13.486  21.942  1.00  0.00    -0.197 F 
BRANCH  13  16
HETATM   16  C8  UNL     1      11.940 -11.907  22.926  1.00  0.00     0.112 A 
HETATM   17  C9  UNL     1      12.798 -10.823  22.588  1.00  0.00     0.034 A 
HETATM   18  C10 UNL     1      12.803  -9.655  23.287  1.00  0.00     0.004 A 
HETATM   19  C11 UNL     1      11.966  -9.492  24.356  1.00  0.00     0.020 A 
HETATM   20  C12 UNL     1      11.129 -10.567  24.673  1.00  0.00     0.123 A 
HETATM   21  N4  UNL     1      11.134 -11.710  23.974  1.00  0.00    -0.234 N 
BRANCH  21  22
HETATM   22  O2  UNL     1      10.254 -12.706  24.369  1.00  0.00    -0.283 OA
ATOM     23  H2  UNL     1       9.559 -12.986  23.785  1.00  0.00     0.245 HD
ENDBRANCH  21  22
ENDBRANCH  13  16
ENDBRANCH  12  13
ENDBRANCH  10  12
ENDBRANCH   7  10
BRANCH   1  24
HETATM   24  C2  UNL     1      18.347 -12.694  20.855  1.00  0.00     0.236 C 
BRANCH  24  25
HETATM   25  C1  UNL     1      19.123 -13.878  21.341  1.00  0.00     0.236 C 
HETATM   26  O1  UNL     1      20.042 -14.363  20.632  1.00  0.00    -0.272 OA
HETATM   27  N5  UNL     1      18.793 -14.431  22.599  1.00  0.00    -0.355 N 
ATOM     28  H5  UNL     1      18.052 -13.971  23.127  1.00  0.00     0.162 HD
BRANCH  27  29
HETATM   29  C14 UNL     1      19.396 -15.563  23.193  1.00  0.00     0.164 C 
BRANCH  29  30
HETATM   30  C15 UNL     1      20.031 -15.100  24.484  1.00  0.00    -0.002 A 
HETATM   31  C16 UNL     1      19.397 -15.269  25.703  1.00  0.00     0.012 A 
HETATM   32  C17 UNL     1      19.998 -14.786  26.877  1.00  0.00     0.001 A 
HETATM   33  C18 UNL     1      21.213 -14.154  26.797  1.00  0.00     0.003 A 
HETATM   34  C19 UNL     1      21.838 -13.990  25.580  1.00  0.00     0.043 A 
HETATM   35  C20 UNL     1      21.246 -14.467  24.405  1.00  0.00     0.124 A 
HETATM   36  F3  UNL     1      21.913 -14.261  23.225  1.00  0.00    -0.205 F 
ENDBRANCH  29  30
ENDBRANCH  27  29
ENDBRANCH  24  25
ENDBRANCH   1  24
TORSDOF 9
ENDMDL
