MODEL 3
REMARK VINA RESULT: -9.014013437      2.700      7.883
REMARK  9 active torsions:
REMARK  status: ('A' for Active; 'I' for Inactive)
REMARK    1  A    between atoms: C1_2  and  C2_3 
REMARK       I    between atoms: C1_2  and  N5_27 
REMARK    2  A    between atoms: C2_3  and  N1_4 
REMARK    3  A    between atoms: C5_10  and  N3_11 
REMARK    4  A    between atoms: N3_11  and  C6_13 
REMARK    5  A    between atoms: C6_13  and  C7_14 
REMARK    6  A    between atoms: C7_14  and  C8_17 
REMARK    7  A    between atoms: N4_22  and  O2_23 
REMARK    8  A    between atoms: N5_27  and  C14_29 
REMARK    9  A    between atoms: C14_29  and  C15_30 
ROOT
HETATM    1  N1  UNL     1      18.485 -13.683  21.594  1.00  0.00    -0.291 N 
HETATM    2  C3  UNL     1      19.543 -14.193  20.930  1.00  0.00     0.124 A 
HETATM    3 CL1  UNL     1      20.267 -13.323  19.624  1.00  0.00    -0.063 Cl
HETATM    4  C4  UNL     1      20.038 -15.444  21.329  1.00  0.00     0.132 A 
HETATM    5  N2  UNL     1      19.460 -16.089  22.329  1.00  0.00    -0.345 N 
ATOM      6  H2  UNL     1      19.843 -16.998  22.590  1.00  0.00     0.167 HD
HETATM    7  C5  UNL     1      18.415 -15.638  23.017  1.00  0.00     0.171 A 
HETATM    8  C13 UNL     1      17.937 -14.389  22.616  1.00  0.00     0.293 A 
HETATM    9  O3  UNL     1      16.957 -13.885  23.218  1.00  0.00    -0.264 OA
ENDROOT
BRANCH   7  10
HETATM   10  N3  UNL     1      17.755 -16.277  24.080  1.00  0.00    -0.366 N 
ATOM     11  H3  UNL     1      16.818 -15.940  24.298  1.00  0.00     0.161 HD
BRANCH  10  12
HETATM   12  C6  UNL     1      18.253 -17.354  24.898  1.00  0.00     0.207 C 
BRANCH  12  13
HETATM   13  C7  UNL     1      18.944 -16.986  26.153  1.00  0.00     0.303 C 
HETATM   14  F1  UNL     1      19.314 -18.079  26.890  1.00  0.00    -0.197 F 
HETATM   15  F2  UNL     1      18.019 -16.219  26.953  1.00  0.00    -0.197 F 
BRANCH  13  16
HETATM   16  C8  UNL     1      20.077 -16.064  25.999  1.00  0.00     0.112 A 
HETATM   17  C9  UNL     1      20.044 -14.810  26.670  1.00  0.00     0.034 A 
HETATM   18  C10 UNL     1      21.040 -13.892  26.543  1.00  0.00     0.004 A 
HETATM   19  C11 UNL     1      22.121 -14.157  25.748  1.00  0.00     0.020 A 
HETATM   20  C12 UNL     1      22.137 -15.396  25.097  1.00  0.00     0.123 A 
HETATM   21  N4  UNL     1      21.150 -16.291  25.235  1.00  0.00    -0.234 N 
BRANCH  21  22
HETATM   22  O2  UNL     1      21.275 -17.491  24.553  1.00  0.00    -0.283 OA
ATOM     23  H2  UNL     1      22.137 -17.833  24.345  1.00  0.00     0.245 HD
ENDBRANCH  21  22
ENDBRANCH  13  16
ENDBRANCH  12  13
ENDBRANCH  10  12
ENDBRANCH   7  10
BRANCH   1  24
HETATM   24  C2  UNL     1      17.895 -12.451  21.151  1.00  0.00     0.236 C 
BRANCH  24  25
HETATM   25  C1  UNL     1      16.566 -12.696  20.509  1.00  0.00     0.236 C 
HETATM   26  O1  UNL     1      16.497 -13.318  19.418  1.00  0.00    -0.272 OA
HETATM   27  N5  UNL     1      15.406 -12.209  21.152  1.00  0.00    -0.355 N 
ATOM     28  H5  UNL     1      15.536 -11.733  22.045  1.00  0.00     0.162 HD
BRANCH  27  29
HETATM   29  C14 UNL     1      14.081 -12.320  20.672  1.00  0.00     0.164 C 
BRANCH  29  30
HETATM   30  C15 UNL     1      13.165 -11.924  21.808  1.00  0.00    -0.002 A 
HETATM   31  C16 UNL     1      12.300 -12.835  22.391  1.00  0.00     0.012 A 
HETATM   32  C17 UNL     1      11.433 -12.421  23.414  1.00  0.00     0.001 A 
HETATM   33  C18 UNL     1      11.459 -11.112  23.827  1.00  0.00     0.003 A 
HETATM   34  C19 UNL     1      12.324 -10.211  23.243  1.00  0.00     0.043 A 
HETATM   35  C20 UNL     1      13.190 -10.616  22.221  1.00  0.00     0.124 A 
HETATM   36  F3  UNL     1      14.016  -9.669  21.672  1.00  0.00    -0.205 F 
ENDBRANCH  29  30
ENDBRANCH  27  29
ENDBRANCH  24  25
ENDBRANCH   1  24
TORSDOF 9
ENDMDL
