MODEL 7
REMARK VINA RESULT: -6.541097878      3.089      4.890
REMARK  4 active torsions:
REMARK  status: ('A' for Active; 'I' for Inactive)
REMARK    1  A    between atoms: N1_1  and  C1_5 
REMARK    2  A    between atoms: C1_5  and  C2_6 
REMARK    3  A    between atoms: C1_5  and  C7_17 
REMARK    4  A    between atoms: C2_6  and  N2_7 
ROOT
HETATM    1  N2  UNL     1      77.723  27.460  40.025  1.00  0.00    -0.306 N 
HETATM    2  C3  UNL     1      77.348  27.466  41.315  1.00  0.00     0.119 A 
HETATM    3  C4  UNL     1      77.596  26.403  42.166  1.00  0.00     0.090 A 
HETATM    4  I1  UNL     1      76.997  26.436  44.187  1.00  0.00    -0.037 I 
HETATM    5  C5  UNL     1      78.246  25.307  41.676  1.00  0.00     0.267 A 
HETATM    6  O1  UNL     1      78.471  24.338  42.455  1.00  0.00    -0.267 OA
HETATM    7  N3  UNL     1      78.615  25.314  40.384  1.00  0.00    -0.274 N 
ATOM      8  H3  UNL     1      79.101  24.502  40.004  1.00  0.00     0.173 HD
HETATM    9  C6  UNL     1      78.361  26.363  39.576  1.00  0.00     0.329 A 
HETATM   10  O2  UNL     1      78.747  26.274  38.382  1.00  0.00    -0.246 OA
ENDROOT
BRANCH   1  11
HETATM   11  C2  UNL     1      77.439  28.597  39.176  1.00  0.00     0.177 C 
BRANCH  11  12
HETATM   12  C1  UNL     1      77.909  29.902  39.775  1.00  0.00     0.301 C 
BRANCH  12  13
HETATM   13  N1  UNL     1      78.889  29.683  40.822  1.00  0.00    -0.064 N 
ATOM     14  H13 UNL     1      78.513  29.923  41.740  1.00  0.00     0.275 HD
ATOM     15  H12 UNL     1      79.057  28.689  40.975  1.00  0.00     0.275 HD
ATOM     16  H11 UNL     1      79.757  30.183  40.632  1.00  0.00     0.275 HD
ENDBRANCH  12  13
BRANCH  12  17
HETATM   17  C7  UNL     1      76.723  30.542  40.405  1.00  0.00     0.206 C 
HETATM   18  O3  UNL     1      76.752  30.998  41.594  1.00  0.00    -0.646 OA
HETATM   19  O4  UNL     1      75.508  30.687  39.741  1.00  0.00    -0.646 OA
ENDBRANCH  12  17
ENDBRANCH  11  12
ENDBRANCH   1  11
TORSDOF 4
ENDMDL
