MODEL 5
REMARK VINA RESULT: -6.697842315      1.679      2.063
REMARK  4 active torsions:
REMARK  status: ('A' for Active; 'I' for Inactive)
REMARK    1  A    between atoms: N1_1  and  C1_5 
REMARK    2  A    between atoms: C1_5  and  C2_6 
REMARK    3  A    between atoms: C1_5  and  C7_17 
REMARK    4  A    between atoms: C2_6  and  N2_7 
ROOT
HETATM    1  N2  UNL     1      77.768  26.603  41.230  1.00  0.00    -0.306 N 
HETATM    2  C3  UNL     1      77.336  27.874  41.254  1.00  0.00     0.119 A 
HETATM    3  C4  UNL     1      77.447  28.718  40.163  1.00  0.00     0.090 A 
HETATM    4  I1  UNL     1      76.761  30.710  40.224  1.00  0.00    -0.037 I 
HETATM    5  C5  UNL     1      78.019  28.240  39.018  1.00  0.00     0.267 A 
HETATM    6  O1  UNL     1      78.120  29.012  38.023  1.00  0.00    -0.267 OA
HETATM    7  N3  UNL     1      78.447  26.966  39.008  1.00  0.00    -0.274 N 
ATOM      8  H3  UNL     1      78.876  26.595  38.161  1.00  0.00     0.173 HD
HETATM    9  C6  UNL     1      78.326  26.165  40.086  1.00  0.00     0.329 A 
HETATM   10  O2  UNL     1      78.757  24.989  39.978  1.00  0.00    -0.246 OA
ENDROOT
BRANCH   1  11
HETATM   11  C2  UNL     1      77.629  25.761  42.399  1.00  0.00     0.177 C 
BRANCH  11  12
HETATM   12  C1  UNL     1      77.972  26.484  43.681  1.00  0.00     0.301 C 
BRANCH  12  13
HETATM   13  N1  UNL     1      79.150  25.918  44.311  1.00  0.00    -0.064 N 
ATOM     14  H13 UNL     1      78.921  25.080  44.845  1.00  0.00     0.275 HD
ATOM     15  H12 UNL     1      79.777  25.500  43.623  1.00  0.00     0.275 HD
ATOM     16  H11 UNL     1      79.634  26.607  44.886  1.00  0.00     0.275 HD
ENDBRANCH  12  13
BRANCH  12  17
HETATM   17  C7  UNL     1      76.831  26.280  44.614  1.00  0.00     0.206 C 
HETATM   18  O3  UNL     1      75.719  26.883  44.464  1.00  0.00    -0.646 OA
HETATM   19  O4  UNL     1      76.900  25.422  45.707  1.00  0.00    -0.646 OA
ENDBRANCH  12  17
ENDBRANCH  11  12
ENDBRANCH   1  11
TORSDOF 4
ENDMDL
