MODEL 1
REMARK VINA RESULT: -8.389779127      0.000      0.000
REMARK  4 active torsions:
REMARK  status: ('A' for Active; 'I' for Inactive)
REMARK    1  A    between atoms: N1_1  and  C1_5 
REMARK    2  A    between atoms: C1_5  and  C2_6 
REMARK    3  A    between atoms: C1_5  and  C7_17 
REMARK    4  A    between atoms: C2_6  and  N2_7 
ROOT
HETATM    1  N2  UNL     1      77.761  26.732  42.446  1.00  0.00    -0.306 N 
HETATM    2  C3  UNL     1      77.625  27.874  41.751  1.00  0.00     0.119 A 
HETATM    3  C4  UNL     1      77.727  27.920  40.372  1.00  0.00     0.090 A 
HETATM    4  I1  UNL     1      77.509  29.724  39.303  1.00  0.00    -0.037 I 
HETATM    5  C5  UNL     1      77.975  26.762  39.692  1.00  0.00     0.267 A 
HETATM    6  O1  UNL     1      78.068  26.807  38.433  1.00  0.00    -0.267 OA
HETATM    7  N3  UNL     1      78.109  25.628  40.400  1.00  0.00    -0.274 N 
ATOM      8  H3  UNL     1      78.295  24.756  39.906  1.00  0.00     0.173 HD
HETATM    9  C6  UNL     1      78.005  25.610  41.744  1.00  0.00     0.329 A 
HETATM   10  O2  UNL     1      78.146  24.499  42.316  1.00  0.00    -0.246 OA
ENDROOT
BRANCH   1  11
HETATM   11  C2  UNL     1      77.645  26.737  43.889  1.00  0.00     0.177 C 
BRANCH  11  12
HETATM   12  C1  UNL     1      76.239  26.450  44.361  1.00  0.00     0.301 C 
BRANCH  12  13
HETATM   13  N1  UNL     1      75.379  27.608  44.204  1.00  0.00    -0.064 N 
ATOM     14  H13 UNL     1      75.419  28.216  45.022  1.00  0.00     0.275 HD
ATOM     15  H12 UNL     1      75.748  28.255  43.509  1.00  0.00     0.275 HD
ATOM     16  H11 UNL     1      74.421  27.335  43.989  1.00  0.00     0.275 HD
ENDBRANCH  12  13
BRANCH  12  17
HETATM   17  C7  UNL     1      76.321  26.154  45.817  1.00  0.00     0.206 C 
HETATM   18  O3  UNL     1      76.908  25.115  46.265  1.00  0.00    -0.646 OA
HETATM   19  O4  UNL     1      75.766  26.987  46.784  1.00  0.00    -0.646 OA
ENDBRANCH  12  17
ENDBRANCH  11  12
ENDBRANCH   1  11
TORSDOF 4
ENDMDL
