MODEL 2
REMARK VINA RESULT: -7.276952018      3.225      5.036
REMARK  4 active torsions:
REMARK  status: ('A' for Active; 'I' for Inactive)
REMARK    1  A    between atoms: N1_1  and  C1_5 
REMARK    2  A    between atoms: C1_5  and  C2_6 
REMARK    3  A    between atoms: C1_5  and  C7_17 
REMARK    4  A    between atoms: C2_6  and  N2_7 
ROOT
HETATM    1  N2  UNL     1      78.053  27.990  41.292  1.00  0.00    -0.306 N 
HETATM    2  C3  UNL     1      77.620  27.833  42.554  1.00  0.00     0.119 A 
HETATM    3  C4  UNL     1      77.290  26.596  43.078  1.00  0.00     0.090 A 
HETATM    4  I1  UNL     1      76.613  26.375  45.062  1.00  0.00    -0.037 I 
HETATM    5  C5  UNL     1      77.410  25.492  42.283  1.00  0.00     0.267 A 
HETATM    6  O1  UNL     1      77.109  24.363  42.763  1.00  0.00    -0.267 OA
HETATM    7  N3  UNL     1      77.844  25.663  41.023  1.00  0.00    -0.274 N 
ATOM      8  H3  UNL     1      77.939  24.849  40.417  1.00  0.00     0.173 HD
HETATM    9  C6  UNL     1      78.159  26.881  40.537  1.00  0.00     0.329 A 
HETATM   10  O2  UNL     1      78.557  26.937  39.345  1.00  0.00    -0.246 OA
ENDROOT
BRANCH   1  11
HETATM   11  C2  UNL     1      78.385  29.307  40.791  1.00  0.00     0.177 C 
BRANCH  11  12
HETATM   12  C1  UNL     1      77.413  29.791  39.740  1.00  0.00     0.301 C 
BRANCH  12  13
HETATM   13  N1  UNL     1      78.079  30.586  38.726  1.00  0.00    -0.064 N 
ATOM     14  H13 UNL     1      78.715  30.019  38.165  1.00  0.00     0.275 HD
ATOM     15  H12 UNL     1      77.432  30.871  37.991  1.00  0.00     0.275 HD
ATOM     16  H11 UNL     1      78.556  31.389  39.135  1.00  0.00     0.275 HD
ENDBRANCH  12  13
BRANCH  12  17
HETATM   17  C7  UNL     1      76.436  30.678  40.428  1.00  0.00     0.206 C 
HETATM   18  O3  UNL     1      76.651  31.148  41.592  1.00  0.00    -0.646 OA
HETATM   19  O4  UNL     1      75.228  31.053  39.848  1.00  0.00    -0.646 OA
ENDBRANCH  12  17
ENDBRANCH  11  12
ENDBRANCH   1  11
TORSDOF 4
ENDMDL
