MODEL 6
REMARK VINA RESULT: -6.572865649      1.484      1.710
REMARK  4 active torsions:
REMARK  status: ('A' for Active; 'I' for Inactive)
REMARK    1  A    between atoms: N1_1  and  C1_5 
REMARK    2  A    between atoms: C1_5  and  C2_6 
REMARK    3  A    between atoms: C1_5  and  C7_17 
REMARK    4  A    between atoms: C2_6  and  N2_7 
ROOT
HETATM    1  N2  UNL     1      78.032  27.059  41.857  1.00  0.00    -0.306 N 
HETATM    2  C3  UNL     1      77.542  28.300  41.697  1.00  0.00     0.119 A 
HETATM    3  C4  UNL     1      77.202  28.811  40.457  1.00  0.00     0.090 A 
HETATM    4  I1  UNL     1      76.435  30.761  40.231  1.00  0.00    -0.037 I 
HETATM    5  C5  UNL     1      77.372  28.024  39.354  1.00  0.00     0.267 A 
HETATM    6  O1  UNL     1      77.061  28.492  38.222  1.00  0.00    -0.267 OA
HETATM    7  N3  UNL     1      77.863  26.785  39.528  1.00  0.00    -0.274 N 
ATOM      8  H3  UNL     1      77.995  26.186  38.714  1.00  0.00     0.173 HD
HETATM    9  C6  UNL     1      78.185  26.312  40.749  1.00  0.00     0.329 A 
HETATM   10  O2  UNL     1      78.637  25.139  40.808  1.00  0.00    -0.246 OA
ENDROOT
BRANCH   1  11
HETATM   11  C2  UNL     1      78.372  26.572  43.177  1.00  0.00     0.177 C 
BRANCH  11  12
HETATM   12  C1  UNL     1      77.417  25.509  43.668  1.00  0.00     0.301 C 
BRANCH  12  13
HETATM   13  N1  UNL     1      76.504  25.090  42.622  1.00  0.00    -0.064 N 
ATOM     14  H13 UNL     1      76.444  24.073  42.564  1.00  0.00     0.275 HD
ATOM     15  H12 UNL     1      75.536  25.291  42.869  1.00  0.00     0.275 HD
ATOM     16  H11 UNL     1      76.753  25.501  41.723  1.00  0.00     0.275 HD
ENDBRANCH  12  13
BRANCH  12  17
HETATM   17  C7  UNL     1      76.599  26.125  44.748  1.00  0.00     0.206 C 
HETATM   18  O3  UNL     1      75.908  27.178  44.557  1.00  0.00    -0.646 OA
HETATM   19  O4  UNL     1      76.534  25.596  46.034  1.00  0.00    -0.646 OA
ENDBRANCH  12  17
ENDBRANCH  11  12
ENDBRANCH   1  11
TORSDOF 4
ENDMDL
