MODEL 3
REMARK VINA RESULT: -9.906625375      0.872      1.915
REMARK  7 active torsions:
REMARK  status: ('A' for Active; 'I' for Inactive)
REMARK    1  A    between atoms: C2_2  and  C3_3 
REMARK    2  A    between atoms: C3_3  and  C4_4 
REMARK    3  A    between atoms: C8_8  and  O1_9 
REMARK    4  A    between atoms: O1_9  and  C9_10 
REMARK    5  A    between atoms: C11_12  and  C12_13 
REMARK    6  A    between atoms: C12_13  and  N1_15 
REMARK    7  A    between atoms: C12_13  and  C14_19 
ROOT
HETATM    1  C9  UNL     1      14.678 135.606  -4.588  1.00  0.00     0.097 A 
HETATM    2  C10 UNL     1      15.151 135.541  -5.909  1.00  0.00     0.049 A 
HETATM    3  C11 UNL     1      16.149 136.356  -6.382  1.00  0.00    -0.014 A 
HETATM    4  C18 UNL     1      16.689 137.267  -5.498  1.00  0.00     0.012 A 
HETATM    5  C19 UNL     1      16.234 137.339  -4.204  1.00  0.00     0.026 A 
HETATM    6  C20 UNL     1      15.215 136.511  -3.716  1.00  0.00     0.078 A 
HETATM    7  C21 UNL     1      14.790 136.644  -2.347  1.00  0.00     0.102 C 
HETATM    8  N4  UNL     1      14.467 136.767  -1.247  1.00  0.00    -0.191 NA
ENDROOT
BRANCH   1   9
HETATM    9  O1  UNL     1      13.695 134.757  -4.234  1.00  0.00    -0.309 OA
BRANCH   9  10
HETATM   10  C8  UNL     1      13.674 133.432  -3.943  1.00  0.00     0.076 A 
HETATM   11  C7  UNL     1      12.860 132.944  -2.967  1.00  0.00     0.037 A 
HETATM   12  C6  UNL     1      12.852 131.598  -2.688  1.00  0.00     0.003 A 
HETATM   13  C5  UNL     1      13.663 130.730  -3.386  1.00  0.00     0.008 A 
HETATM   14  C4  UNL     1      14.514 131.182  -4.396  1.00  0.00    -0.038 A 
HETATM   15  C22 UNL     1      14.485 132.523  -4.633  1.00  0.00     0.045 A 
BRANCH  14  16
HETATM   16  C3  UNL     1      15.336 130.157  -5.042  1.00  0.00     0.068 C 
HETATM   17  C23 UNL     1      14.788 128.818  -4.531  1.00  0.00     0.024 C 
HETATM   18  C24 UNL     1      15.901 127.808  -4.705  1.00  0.00     0.003 C 
HETATM   19  C25 UNL     1      16.445 127.547  -3.315  1.00  0.00     0.020 C 
HETATM   20  C26 UNL     1      17.311 128.623  -2.808  1.00  0.00     0.125 C 
HETATM   21  N5  UNL     1      17.451 129.799  -3.575  1.00  0.00    -0.356 N 
HETATM   22  C27 UNL     1      18.554 130.659  -3.107  1.00  0.00     0.152 C 
HETATM   23  C28 UNL     1      16.763 130.299  -4.670  1.00  0.00     0.232 C 
HETATM   24  O2  UNL     1      17.427 130.989  -5.504  1.00  0.00    -0.272 OA
BRANCH  16  25
HETATM   25  C2  UNL     1      15.257 130.078  -6.530  1.00  0.00     0.020 C 
HETATM   26  C1  UNL     1      13.958 129.642  -7.110  1.00  0.00     0.006 C 
ENDBRANCH  16  25
ENDBRANCH  14  16
ENDBRANCH   9  10
ENDBRANCH   1   9
BRANCH   3  27
HETATM   27  C12 UNL     1      16.642 136.272  -7.802  1.00  0.00     0.190 C 
HETATM   28  C13 UNL     1      17.033 134.792  -8.003  1.00  0.00     0.059 C 
BRANCH  27  29
HETATM   29  N1  UNL     1      17.858 136.991  -8.008  1.00  0.00    -0.061 N 
ATOM     30  H13 UNL     1      18.129 136.977  -8.992  1.00  0.00     0.276 HD
ATOM     31  H12 UNL     1      17.715 137.994  -7.890  1.00  0.00     0.276 HD
ATOM     32  H11 UNL     1      18.619 136.659  -7.415  1.00  0.00     0.276 HD
ENDBRANCH  27  29
BRANCH  27  33
HETATM   33  C14 UNL     1      15.572 136.526  -8.766  1.00  0.00     0.068 A 
HETATM   34  C15 UNL     1      14.988 135.518  -9.546  1.00  0.00     0.117 A 
HETATM   35  N2  UNL     1      14.042 136.061 -10.329  1.00  0.00    -0.360 N 
HETATM   36  C16 UNL     1      14.024 137.366 -10.059  1.00  0.00     0.182 A 
ATOM     37  H2  UNL     1      13.452 135.570 -11.001  1.00  0.00     0.166 HD
HETATM   38  N3  UNL     1      14.955 137.664  -9.105  1.00  0.00    -0.347 N 
HETATM   39  C17 UNL     1      15.210 138.962  -8.572  1.00  0.00     0.157 C 
ENDBRANCH  27  33
ENDBRANCH   3  27
TORSDOF 7
ENDMDL
