MODEL 2
REMARK VINA RESULT: -10.021839881      1.981      4.490
REMARK  7 active torsions:
REMARK  status: ('A' for Active; 'I' for Inactive)
REMARK    1  A    between atoms: C2_2  and  C3_3 
REMARK    2  A    between atoms: C3_3  and  C4_4 
REMARK    3  A    between atoms: C8_8  and  O1_9 
REMARK    4  A    between atoms: O1_9  and  C9_10 
REMARK    5  A    between atoms: C11_12  and  C12_13 
REMARK    6  A    between atoms: C12_13  and  N1_15 
REMARK    7  A    between atoms: C12_13  and  C14_19 
ROOT
HETATM    1  C9  UNL     1      13.980 135.542  -4.347  1.00  0.00     0.097 A 
HETATM    2  C10 UNL     1      14.462 135.993  -3.107  1.00  0.00     0.049 A 
HETATM    3  C11 UNL     1      15.306 137.070  -2.985  1.00  0.00    -0.014 A 
HETATM    4  C18 UNL     1      15.676 137.712  -4.147  1.00  0.00     0.012 A 
HETATM    5  C19 UNL     1      15.211 137.279  -5.366  1.00  0.00     0.026 A 
HETATM    6  C20 UNL     1      14.352 136.181  -5.496  1.00  0.00     0.078 A 
HETATM    7  C21 UNL     1      13.904 135.785  -6.806  1.00  0.00     0.102 C 
HETATM    8  N4  UNL     1      13.558 135.487  -7.865  1.00  0.00    -0.191 NA
ENDROOT
BRANCH   1   9
HETATM    9  O1  UNL     1      13.157 134.476  -4.346  1.00  0.00    -0.309 OA
BRANCH   9  10
HETATM   10  C8  UNL     1      13.320 133.179  -3.983  1.00  0.00     0.076 A 
HETATM   11  C7  UNL     1      12.675 132.671  -2.897  1.00  0.00     0.037 A 
HETATM   12  C6  UNL     1      12.850 131.354  -2.548  1.00  0.00     0.003 A 
HETATM   13  C5  UNL     1      13.678 130.534  -3.284  1.00  0.00     0.008 A 
HETATM   14  C4  UNL     1      14.361 131.009  -4.406  1.00  0.00    -0.038 A 
HETATM   15  C22 UNL     1      14.152 132.320  -4.710  1.00  0.00     0.045 A 
BRANCH  14  16
HETATM   16  C3  UNL     1      15.223 130.039  -5.083  1.00  0.00     0.068 C 
HETATM   17  C23 UNL     1      14.763 128.665  -4.577  1.00  0.00     0.024 C 
HETATM   18  C24 UNL     1      15.926 127.722  -4.789  1.00  0.00     0.003 C 
HETATM   19  C25 UNL     1      16.517 127.476  -3.416  1.00  0.00     0.020 C 
HETATM   20  C26 UNL     1      17.334 128.593  -2.916  1.00  0.00     0.125 C 
HETATM   21  N5  UNL     1      17.389 129.784  -3.671  1.00  0.00    -0.356 N 
HETATM   22  C27 UNL     1      18.454 130.698  -3.218  1.00  0.00     0.152 C 
HETATM   23  C28 UNL     1      16.649 130.256  -4.743  1.00  0.00     0.232 C 
HETATM   24  O2  UNL     1      17.253 130.991  -5.584  1.00  0.00    -0.272 OA
BRANCH  16  25
HETATM   25  C2  UNL     1      15.113 129.971  -6.571  1.00  0.00     0.020 C 
HETATM   26  C1  UNL     1      13.816 129.501  -7.125  1.00  0.00     0.006 C 
ENDBRANCH  16  25
ENDBRANCH  14  16
ENDBRANCH   9  10
ENDBRANCH   1   9
BRANCH   3  27
HETATM   27  C12 UNL     1      15.812 137.538  -1.647  1.00  0.00     0.190 C 
HETATM   28  C13 UNL     1      14.547 137.717  -0.780  1.00  0.00     0.059 C 
BRANCH  27  29
HETATM   29  N1  UNL     1      16.392 138.842  -1.702  1.00  0.00    -0.061 N 
ATOM     30  H13 UNL     1      16.919 139.043  -0.852  1.00  0.00     0.276 HD
ATOM     31  H12 UNL     1      17.153 138.876  -2.380  1.00  0.00     0.276 HD
ATOM     32  H11 UNL     1      15.704 139.572  -1.887  1.00  0.00     0.276 HD
ENDBRANCH  27  29
BRANCH  27  33
HETATM   33  C14 UNL     1      16.604 136.509  -0.973  1.00  0.00     0.068 A 
HETATM   34  C15 UNL     1      16.167 135.837   0.177  1.00  0.00     0.117 A 
HETATM   35  N2  UNL     1      17.108 134.958   0.557  1.00  0.00    -0.360 N 
HETATM   36  C16 UNL     1      18.107 135.065  -0.319  1.00  0.00     0.182 A 
ATOM     37  H2  UNL     1      17.066 134.330   1.359  1.00  0.00     0.166 HD
HETATM   38  N3  UNL     1      17.812 136.010  -1.259  1.00  0.00    -0.347 N 
HETATM   39  C17 UNL     1      18.651 136.386  -2.350  1.00  0.00     0.157 C 
ENDBRANCH  27  33
ENDBRANCH   3  27
TORSDOF 7
ENDMDL
