MODEL 1
REMARK VINA RESULT: -10.507544178      0.000      0.000
REMARK  7 active torsions:
REMARK  status: ('A' for Active; 'I' for Inactive)
REMARK    1  A    between atoms: C2_2  and  C3_3 
REMARK    2  A    between atoms: C3_3  and  C4_4 
REMARK    3  A    between atoms: C8_8  and  O1_9 
REMARK    4  A    between atoms: O1_9  and  C9_10 
REMARK    5  A    between atoms: C11_12  and  C12_13 
REMARK    6  A    between atoms: C12_13  and  N1_15 
REMARK    7  A    between atoms: C12_13  and  C14_19 
ROOT
HETATM    1  C9  UNL     1      14.076 135.552  -4.790  1.00  0.00     0.097 A 
HETATM    2  C10 UNL     1      14.236 135.813  -6.160  1.00  0.00     0.049 A 
HETATM    3  C11 UNL     1      15.094 136.774  -6.638  1.00  0.00    -0.014 A 
HETATM    4  C18 UNL     1      15.811 137.495  -5.706  1.00  0.00     0.012 A 
HETATM    5  C19 UNL     1      15.661 137.247  -4.363  1.00  0.00     0.026 A 
HETATM    6  C20 UNL     1      14.788 136.269  -3.871  1.00  0.00     0.078 A 
HETATM    7  C21 UNL     1      14.683 136.065  -2.449  1.00  0.00     0.102 C 
HETATM    8  N4  UNL     1      14.617 135.918  -1.307  1.00  0.00    -0.191 NA
ENDROOT
BRANCH   1   9
HETATM    9  O1  UNL     1      13.207 134.585  -4.437  1.00  0.00    -0.309 OA
BRANCH   9  10
HETATM   10  C8  UNL     1      13.362 133.294  -4.050  1.00  0.00     0.076 A 
HETATM   11  C7  UNL     1      12.715 132.810  -2.954  1.00  0.00     0.037 A 
HETATM   12  C6  UNL     1      12.884 131.499  -2.580  1.00  0.00     0.003 A 
HETATM   13  C5  UNL     1      13.707 130.661  -3.301  1.00  0.00     0.008 A 
HETATM   14  C4  UNL     1      14.392 131.111  -4.432  1.00  0.00    -0.038 A 
HETATM   15  C22 UNL     1      14.190 132.417  -4.760  1.00  0.00     0.045 A 
BRANCH  14  16
HETATM   16  C3  UNL     1      15.248 130.123  -5.091  1.00  0.00     0.068 C 
HETATM   17  C23 UNL     1      14.748 128.759  -4.597  1.00  0.00     0.024 C 
HETATM   18  C24 UNL     1      15.896 127.792  -4.784  1.00  0.00     0.003 C 
HETATM   19  C25 UNL     1      16.451 127.533  -3.399  1.00  0.00     0.020 C 
HETATM   20  C26 UNL     1      17.280 128.632  -2.879  1.00  0.00     0.125 C 
HETATM   21  N5  UNL     1      17.377 129.822  -3.632  1.00  0.00    -0.356 N 
HETATM   22  C27 UNL     1      18.450 130.714  -3.155  1.00  0.00     0.152 C 
HETATM   23  C28 UNL     1      16.670 130.310  -4.720  1.00  0.00     0.232 C 
HETATM   24  O2  UNL     1      17.307 131.033  -5.546  1.00  0.00    -0.272 OA
BRANCH  16  25
HETATM   25  C2  UNL     1      15.169 130.059  -6.581  1.00  0.00     0.020 C 
HETATM   26  C1  UNL     1      13.891 129.570  -7.163  1.00  0.00     0.006 C 
ENDBRANCH  16  25
ENDBRANCH  14  16
ENDBRANCH   9  10
ENDBRANCH   1   9
BRANCH   3  27
HETATM   27  C12 UNL     1      15.251 137.041  -8.110  1.00  0.00     0.190 C 
HETATM   28  C13 UNL     1      15.459 138.567  -8.222  1.00  0.00     0.059 C 
BRANCH  27  29
HETATM   29  N1  UNL     1      14.054 136.792  -8.848  1.00  0.00    -0.061 N 
ATOM     30  H13 UNL     1      13.300 136.488  -8.231  1.00  0.00     0.276 HD
ATOM     31  H12 UNL     1      13.648 137.662  -9.191  1.00  0.00     0.276 HD
ATOM     32  H11 UNL     1      14.191 136.128  -9.611  1.00  0.00     0.276 HD
ENDBRANCH  27  29
BRANCH  27  33
HETATM   33  C14 UNL     1      16.474 136.442  -8.646  1.00  0.00     0.068 A 
HETATM   34  C15 UNL     1      17.688 137.135  -8.741  1.00  0.00     0.117 A 
HETATM   35  N2  UNL     1      18.618 136.322  -9.269  1.00  0.00    -0.360 N 
HETATM   36  C16 UNL     1      18.018 135.155  -9.501  1.00  0.00     0.182 A 
ATOM     37  H2  UNL     1      19.593 136.553  -9.457  1.00  0.00     0.166 HD
HETATM   38  N3  UNL     1      16.706 135.215  -9.125  1.00  0.00    -0.347 N 
HETATM   39  C17 UNL     1      15.765 134.148  -9.228  1.00  0.00     0.157 C 
ENDBRANCH  27  33
ENDBRANCH   3  27
TORSDOF 7
ENDMDL
