MODEL 2
REMARK VINA RESULT: -10.560588023      0.240      4.448
REMARK  3 active torsions:
REMARK  status: ('A' for Active; 'I' for Inactive)
REMARK    1  A    between atoms: C1_2  and  C2_4 
REMARK    2  A    between atoms: C7_9  and  C8_10 
REMARK    3  A    between atoms: C17_21  and  O5_22 
ROOT
HETATM    1  C8  UNL     1       7.313  77.959  49.729  1.00  0.00     0.001 A 
HETATM    2  C9  UNL     1       7.281  77.459  48.444  1.00  0.00     0.010 A 
HETATM    3  C10 UNL     1       7.492  78.240  47.331  1.00  0.00     0.019 A 
HETATM    4  C11 UNL     1       7.439  77.642  46.079  1.00  0.00     0.056 A 
HETATM    5  C12 UNL     1       7.180  76.293  45.978  1.00  0.00     0.174 A 
HETATM    6  O3  UNL     1       7.143  75.798  44.827  1.00  0.00    -0.288 OA
HETATM    7  C13 UNL     1       6.964  75.476  47.060  1.00  0.00     0.092 A 
HETATM    8  C14 UNL     1       7.008  76.035  48.317  1.00  0.00     0.091 A 
HETATM    9  O4  UNL     1       6.807  75.292  49.398  1.00  0.00    -0.309 OA
HETATM   10  C15 UNL     1       6.838  75.772  50.618  1.00  0.00     0.089 A 
HETATM   11  C16 UNL     1       6.618  74.946  51.720  1.00  0.00     0.074 A 
HETATM   12  C17 UNL     1       6.644  75.419  53.015  1.00  0.00     0.068 A 
HETATM   13  C18 UNL     1       6.899  76.763  53.192  1.00  0.00     0.037 A 
HETATM   14  C19 UNL     1       7.116  77.582  52.103  1.00  0.00     0.018 A 
HETATM   15  C20 UNL     1       7.092  77.115  50.804  1.00  0.00     0.010 A 
ENDROOT
BRANCH   1  16
HETATM   16  C7  UNL     1       7.582  79.379  49.917  1.00  0.00    -0.007 A 
HETATM   17  C2  UNL     1       8.883  79.848  49.836  1.00  0.00     0.051 A 
HETATM   18  C3  UNL     1       9.153  81.194  50.012  1.00  0.00     0.019 A 
HETATM   19  C4  UNL     1       8.079  82.009  50.264  1.00  0.00     0.001 A 
HETATM   20  C5  UNL     1       6.783  81.561  50.347  1.00  0.00     0.001 A 
HETATM   21  C6  UNL     1       6.537  80.225  50.170  1.00  0.00     0.013 A 
BRANCH  17  22
HETATM   22  C1  UNL     1       9.996  78.942  49.566  1.00  0.00     0.210 C 
HETATM   23  O1  UNL     1      10.632  79.061  48.493  1.00  0.00    -0.644 OA
HETATM   24  O2  UNL     1      10.392  77.945  50.442  1.00  0.00    -0.644 OA
ENDBRANCH  17  22
ENDBRANCH   1  16
BRANCH  12  25
HETATM   25  O5  UNL     1       6.421  74.569  54.101  1.00  0.00    -0.361 OA
ATOM     26  H5  UNL     1       7.110  74.008  54.437  1.00  0.00     0.217 HD
ENDBRANCH  12  25
TORSDOF 3
ENDMDL
