MODEL 8
REMARK VINA RESULT: -8.117714795      2.975      5.838
REMARK  3 active torsions:
REMARK  status: ('A' for Active; 'I' for Inactive)
REMARK    1  A    between atoms: C1_2  and  C2_4 
REMARK    2  A    between atoms: C7_9  and  C8_10 
REMARK    3  A    between atoms: C17_21  and  O5_22 
ROOT
HETATM    1  C8  UNL     1       8.408  79.715  47.178  1.00  0.00     0.001 A 
HETATM    2  C9  UNL     1       7.896  78.525  47.653  1.00  0.00     0.010 A 
HETATM    3  C10 UNL     1       7.290  77.594  46.841  1.00  0.00     0.019 A 
HETATM    4  C11 UNL     1       6.806  76.426  47.415  1.00  0.00     0.056 A 
HETATM    5  C12 UNL     1       6.942  76.225  48.771  1.00  0.00     0.174 A 
HETATM    6  O3  UNL     1       6.490  75.156  49.243  1.00  0.00    -0.288 OA
HETATM    7  C13 UNL     1       7.540  77.125  49.618  1.00  0.00     0.092 A 
HETATM    8  C14 UNL     1       8.031  78.295  49.083  1.00  0.00     0.091 A 
HETATM    9  O4  UNL     1       8.618  79.200  49.856  1.00  0.00    -0.309 OA
HETATM   10  C15 UNL     1       9.103  80.331  49.400  1.00  0.00     0.089 A 
HETATM   11  C16 UNL     1       9.711  81.248  50.257  1.00  0.00     0.074 A 
HETATM   12  C17 UNL     1      10.230  82.444  49.809  1.00  0.00     0.068 A 
HETATM   13  C18 UNL     1      10.129  82.713  48.460  1.00  0.00     0.037 A 
HETATM   14  C19 UNL     1       9.528  81.806  47.612  1.00  0.00     0.018 A 
HETATM   15  C20 UNL     1       9.006  80.606  48.052  1.00  0.00     0.010 A 
ENDROOT
BRANCH   1  16
HETATM   16  C7  UNL     1       8.301  79.999  45.753  1.00  0.00    -0.007 A 
HETATM   17  C2  UNL     1       7.309  80.850  45.295  1.00  0.00     0.051 A 
HETATM   18  C3  UNL     1       7.195  81.130  43.944  1.00  0.00     0.019 A 
HETATM   19  C4  UNL     1       8.104  80.525  43.113  1.00  0.00     0.001 A 
HETATM   20  C5  UNL     1       9.094  79.678  43.550  1.00  0.00     0.001 A 
HETATM   21  C6  UNL     1       9.189  79.416  44.891  1.00  0.00     0.013 A 
BRANCH  17  22
HETATM   22  C1  UNL     1       6.363  81.472  46.219  1.00  0.00     0.210 C 
HETATM   23  O1  UNL     1       6.335  82.720  46.313  1.00  0.00    -0.644 OA
HETATM   24  O2  UNL     1       5.483  80.747  47.004  1.00  0.00    -0.644 OA
ENDBRANCH  17  22
ENDBRANCH   1  16
BRANCH  12  25
HETATM   25  O5  UNL     1      10.835  83.346  50.689  1.00  0.00    -0.361 OA
ATOM     26  H5  UNL     1      10.422  84.173  50.907  1.00  0.00     0.217 HD
ENDBRANCH  12  25
TORSDOF 3
ENDMDL
