MODEL 7
REMARK VINA RESULT: -8.288978614      3.153      4.801
REMARK  3 active torsions:
REMARK  status: ('A' for Active; 'I' for Inactive)
REMARK    1  A    between atoms: C1_2  and  C2_4 
REMARK    2  A    between atoms: C7_9  and  C8_10 
REMARK    3  A    between atoms: C17_21  and  O5_22 
ROOT
HETATM    1  C8  UNL     1       8.522  79.929  47.078  1.00  0.00     0.001 A 
HETATM    2  C9  UNL     1       8.020  78.698  47.447  1.00  0.00     0.010 A 
HETATM    3  C10 UNL     1       7.929  78.290  48.758  1.00  0.00     0.019 A 
HETATM    4  C11 UNL     1       7.409  77.031  49.028  1.00  0.00     0.056 A 
HETATM    5  C12 UNL     1       6.999  76.226  47.989  1.00  0.00     0.174 A 
HETATM    6  O3  UNL     1       6.535  75.099  48.281  1.00  0.00    -0.288 OA
HETATM    7  C13 UNL     1       7.070  76.592  46.667  1.00  0.00     0.092 A 
HETATM    8  C14 UNL     1       7.581  77.834  46.363  1.00  0.00     0.091 A 
HETATM    9  O4  UNL     1       7.673  78.239  45.103  1.00  0.00    -0.309 OA
HETATM   10  C15 UNL     1       8.151  79.410  44.756  1.00  0.00     0.089 A 
HETATM   11  C16 UNL     1       8.226  79.786  43.415  1.00  0.00     0.074 A 
HETATM   12  C17 UNL     1       8.723  81.009  43.018  1.00  0.00     0.068 A 
HETATM   13  C18 UNL     1       9.154  81.869  44.007  1.00  0.00     0.037 A 
HETATM   14  C19 UNL     1       9.080  81.498  45.333  1.00  0.00     0.018 A 
HETATM   15  C20 UNL     1       8.583  80.275  45.739  1.00  0.00     0.010 A 
ENDROOT
BRANCH   1  16
HETATM   16  C7  UNL     1       8.977  80.837  48.123  1.00  0.00    -0.007 A 
HETATM   17  C2  UNL     1       8.077  81.708  48.715  1.00  0.00     0.051 A 
HETATM   18  C3  UNL     1       8.495  82.576  49.709  1.00  0.00     0.019 A 
HETATM   19  C4  UNL     1       9.820  82.518  50.058  1.00  0.00     0.001 A 
HETATM   20  C5  UNL     1      10.726  81.662  49.481  1.00  0.00     0.001 A 
HETATM   21  C6  UNL     1      10.292  80.811  48.500  1.00  0.00     0.013 A 
BRANCH  17  22
HETATM   22  C1  UNL     1       6.673  81.734  48.310  1.00  0.00     0.210 C 
HETATM   23  O1  UNL     1       5.842  81.050  48.950  1.00  0.00    -0.644 OA
HETATM   24  O2  UNL     1       6.206  82.483  47.244  1.00  0.00    -0.644 OA
ENDBRANCH  17  22
ENDBRANCH   1  16
BRANCH  12  25
HETATM   25  O5  UNL     1       8.787  81.361  41.667  1.00  0.00    -0.361 OA
ATOM     26  H5  UNL     1       9.594  81.675  41.277  1.00  0.00     0.217 HD
ENDBRANCH  12  25
TORSDOF 3
ENDMDL
