MODEL 10
REMARK VINA RESULT: -7.953341334      3.030      5.910
REMARK  3 active torsions:
REMARK  status: ('A' for Active; 'I' for Inactive)
REMARK    1  A    between atoms: C1_2  and  C2_4 
REMARK    2  A    between atoms: C7_9  and  C8_10 
REMARK    3  A    between atoms: C17_21  and  O5_22 
ROOT
HETATM    1  C8  UNL     1       8.512  79.882  47.223  1.00  0.00     0.001 A 
HETATM    2  C9  UNL     1       9.146  80.838  47.988  1.00  0.00     0.010 A 
HETATM    3  C10 UNL     1       9.658  82.001  47.461  1.00  0.00     0.019 A 
HETATM    4  C11 UNL     1      10.280  82.902  48.315  1.00  0.00     0.056 A 
HETATM    5  C12 UNL     1      10.370  82.616  49.659  1.00  0.00     0.174 A 
HETATM    6  O3  UNL     1      10.939  83.459  50.391  1.00  0.00    -0.288 OA
HETATM    7  C13 UNL     1       9.874  81.470  50.229  1.00  0.00     0.092 A 
HETATM    8  C14 UNL     1       9.251  80.553  49.411  1.00  0.00     0.091 A 
HETATM    9  O4  UNL     1       8.753  79.428  49.908  1.00  0.00    -0.309 OA
HETATM   10  C15 UNL     1       8.151  78.521  49.177  1.00  0.00     0.089 A 
HETATM   11  C16 UNL     1       7.646  77.356  49.751  1.00  0.00     0.074 A 
HETATM   12  C17 UNL     1       7.008  76.384  49.009  1.00  0.00     0.068 A 
HETATM   13  C18 UNL     1       6.881  76.604  47.653  1.00  0.00     0.037 A 
HETATM   14  C19 UNL     1       7.380  77.757  47.084  1.00  0.00     0.018 A 
HETATM   15  C20 UNL     1       8.020  78.734  47.820  1.00  0.00     0.010 A 
ENDROOT
BRANCH   1  16
HETATM   16  C7  UNL     1       8.377  80.114  45.790  1.00  0.00    -0.007 A 
HETATM   17  C2  UNL     1       7.340  80.900  45.316  1.00  0.00     0.051 A 
HETATM   18  C3  UNL     1       7.200  81.129  43.958  1.00  0.00     0.019 A 
HETATM   19  C4  UNL     1       8.131  80.544  43.137  1.00  0.00     0.001 A 
HETATM   20  C5  UNL     1       9.165  79.762  43.590  1.00  0.00     0.001 A 
HETATM   21  C6  UNL     1       9.285  79.548  44.937  1.00  0.00     0.013 A 
BRANCH  17  22
HETATM   22  C1  UNL     1       6.372  81.503  46.229  1.00  0.00     0.210 C 
HETATM   23  O1  UNL     1       6.329  82.750  46.333  1.00  0.00    -0.644 OA
HETATM   24  O2  UNL     1       5.489  80.761  46.995  1.00  0.00    -0.644 OA
ENDBRANCH  17  22
ENDBRANCH   1  16
BRANCH  12  25
HETATM   25  O5  UNL     1       6.511  75.224  49.610  1.00  0.00    -0.361 OA
ATOM     26  H5  UNL     1       6.744  74.363  49.285  1.00  0.00     0.217 HD
ENDBRANCH  12  25
TORSDOF 3
ENDMDL
