MODEL 1
REMARK VINA RESULT: -11.227123968      0.000      0.000
REMARK  3 active torsions:
REMARK  status: ('A' for Active; 'I' for Inactive)
REMARK    1  A    between atoms: C1_2  and  C2_4 
REMARK    2  A    between atoms: C7_9  and  C8_10 
REMARK    3  A    between atoms: C17_21  and  O5_22 
ROOT
HETATM    1  C8  UNL     1       7.303  77.854  49.952  1.00  0.00     0.001 A 
HETATM    2  C9  UNL     1       7.143  77.063  51.071  1.00  0.00     0.010 A 
HETATM    3  C10 UNL     1       7.203  77.559  52.353  1.00  0.00     0.019 A 
HETATM    4  C11 UNL     1       7.029  76.681  53.414  1.00  0.00     0.056 A 
HETATM    5  C12 UNL     1       6.801  75.346  53.164  1.00  0.00     0.174 A 
HETATM    6  O3  UNL     1       6.649  74.592  54.154  1.00  0.00    -0.288 OA
HETATM    7  C13 UNL     1       6.731  74.808  51.903  1.00  0.00     0.092 A 
HETATM    8  C14 UNL     1       6.900  75.650  50.826  1.00  0.00     0.091 A 
HETATM    9  O4  UNL     1       6.844  75.184  49.586  1.00  0.00    -0.309 OA
HETATM   10  C15 UNL     1       6.997  75.939  48.524  1.00  0.00     0.089 A 
HETATM   11  C16 UNL     1       6.929  75.398  47.242  1.00  0.00     0.074 A 
HETATM   12  C17 UNL     1       7.085  76.164  46.106  1.00  0.00     0.068 A 
HETATM   13  C18 UNL     1       7.317  77.513  46.281  1.00  0.00     0.037 A 
HETATM   14  C19 UNL     1       7.385  78.050  47.550  1.00  0.00     0.018 A 
HETATM   15  C20 UNL     1       7.229  77.289  48.691  1.00  0.00     0.010 A 
ENDROOT
BRANCH   1  16
HETATM   16  C7  UNL     1       7.548  79.279  50.136  1.00  0.00    -0.007 A 
HETATM   17  C2  UNL     1       8.826  79.784  49.963  1.00  0.00     0.051 A 
HETATM   18  C3  UNL     1       9.074  81.135  50.134  1.00  0.00     0.019 A 
HETATM   19  C4  UNL     1       8.001  81.918  50.477  1.00  0.00     0.001 A 
HETATM   20  C5  UNL     1       6.727  81.434  50.654  1.00  0.00     0.001 A 
HETATM   21  C6  UNL     1       6.504  80.094  50.479  1.00  0.00     0.013 A 
BRANCH  17  22
HETATM   22  C1  UNL     1       9.939  78.911  49.596  1.00  0.00     0.210 C 
HETATM   23  O1  UNL     1      10.508  79.080  48.494  1.00  0.00    -0.644 OA
HETATM   24  O2  UNL     1      10.405  77.895  50.413  1.00  0.00    -0.644 OA
ENDBRANCH  17  22
ENDBRANCH   1  16
BRANCH  12  25
HETATM   25  O5  UNL     1       7.012  75.596  44.832  1.00  0.00    -0.361 OA
ATOM     26  H5  UNL     1       6.612  76.062  44.108  1.00  0.00     0.217 HD
ENDBRANCH  12  25
TORSDOF 3
ENDMDL
