MODEL 17
REMARK VINA RESULT: -4.559925273      1.809      4.543
REMARK  3 active torsions:
REMARK  status: ('A' for Active; 'I' for Inactive)
REMARK    1  A    between atoms: C2_2  and  C4_4 
REMARK    2  A    between atoms: C4_4  and  N1_5 
REMARK    3  A    between atoms: C4_4  and  C5_9 
REMARK       I    between atoms: C5_9  and  N2_11 
ROOT
HETATM    1  C4  UNL     1      79.934  73.978  98.373  1.00  0.00     0.278 C 
ENDROOT
BRANCH   1   2
HETATM    2  C2  UNL     1      79.418  73.266  99.612  1.00  0.00     0.017 C 
HETATM    3  C1  UNL     1      78.135  72.509  99.319  1.00  0.00     0.012 C 
HETATM    4  C3  UNL     1      79.231  74.177 100.778  1.00  0.00     0.012 C 
ENDBRANCH   1   2
BRANCH   1   5
HETATM    5  N1  UNL     1      79.583  73.215  97.180  1.00  0.00    -0.066 N 
ATOM      6  H13 UNL     1      79.837  72.231  97.265  1.00  0.00     0.275 HD
ATOM      7  H12 UNL     1      78.575  73.100  97.081  1.00  0.00     0.275 HD
ATOM      8  H11 UNL     1      80.001  73.648  96.356  1.00  0.00     0.275 HD
ENDBRANCH   1   5
BRANCH   1   9
HETATM    9  C5  UNL     1      81.403  74.023  98.441  1.00  0.00     0.250 C 
HETATM   10  O1  UNL     1      82.069  72.944  98.589  1.00  0.00    -0.271 OA
HETATM   11  N2  UNL     1      82.113  75.224  98.345  1.00  0.00    -0.350 N 
HETATM   12  C6  UNL     1      81.536  76.532  98.123  1.00  0.00     0.126 C 
HETATM   13  C9  UNL     1      83.576  75.385  98.465  1.00  0.00     0.126 C 
HETATM   14  C7  UNL     1      82.448  77.355  99.050  1.00  0.00     0.021 C 
HETATM   15  C8  UNL     1      83.785  76.879  98.521  1.00  0.00     0.021 C 
ENDBRANCH   1   9
TORSDOF 3
ENDMDL
