MODEL 4
REMARK VINA RESULT: -5.120046432      1.369      1.535
REMARK  3 active torsions:
REMARK  status: ('A' for Active; 'I' for Inactive)
REMARK    1  A    between atoms: C2_2  and  C4_4 
REMARK    2  A    between atoms: C4_4  and  N1_5 
REMARK    3  A    between atoms: C4_4  and  C5_9 
REMARK       I    between atoms: C5_9  and  N2_11 
ROOT
HETATM    1  C4  UNL     1      81.801  76.384  98.562  1.00  0.00     0.278 C 
ENDROOT
BRANCH   1   2
HETATM    2  C2  UNL     1      83.067  76.456  97.726  1.00  0.00     0.017 C 
HETATM    3  C1  UNL     1      84.242  75.821  98.447  1.00  0.00     0.012 C 
HETATM    4  C3  UNL     1      83.408  77.843  97.296  1.00  0.00     0.012 C 
ENDBRANCH   1   2
BRANCH   1   5
HETATM    5  N1  UNL     1      82.134  76.497  99.979  1.00  0.00    -0.066 N 
ATOM      6  H13 UNL     1      83.073  76.870 100.123  1.00  0.00     0.275 HD
ATOM      7  H12 UNL     1      81.608  77.240 100.438  1.00  0.00     0.275 HD
ATOM      8  H11 UNL     1      82.005  75.596 100.439  1.00  0.00     0.275 HD
ENDBRANCH   1   5
BRANCH   1   9
HETATM    9  C5  UNL     1      81.190  75.059  98.367  1.00  0.00     0.250 C 
HETATM   10  O1  UNL     1      81.921  74.056  98.070  1.00  0.00    -0.271 OA
HETATM   11  N2  UNL     1      79.814  74.851  98.501  1.00  0.00    -0.350 N 
HETATM   12  C6  UNL     1      78.841  75.851  98.883  1.00  0.00     0.126 C 
HETATM   13  C9  UNL     1      79.096  73.582  98.264  1.00  0.00     0.126 C 
HETATM   14  C7  UNL     1      77.690  75.432  97.950  1.00  0.00     0.021 C 
HETATM   15  C8  UNL     1      77.637  73.963  98.316  1.00  0.00     0.021 C 
ENDBRANCH   1   9
TORSDOF 3
ENDMDL
