MODEL 5
REMARK VINA RESULT: -4.975359852      3.351      4.681
REMARK  3 active torsions:
REMARK  status: ('A' for Active; 'I' for Inactive)
REMARK    1  A    between atoms: C2_2  and  C4_4 
REMARK    2  A    between atoms: C4_4  and  N1_5 
REMARK    3  A    between atoms: C4_4  and  C5_9 
REMARK       I    between atoms: C5_9  and  N2_11 
ROOT
HETATM    1  C4  UNL     1      77.481  73.091  97.471  1.00  0.00     0.278 C 
ENDROOT
BRANCH   1   2
HETATM    2  C2  UNL     1      78.143  74.447  97.294  1.00  0.00     0.017 C 
HETATM    3  C1  UNL     1      79.654  74.318  97.219  1.00  0.00     0.012 C 
HETATM    4  C3  UNL     1      77.755  75.432  98.344  1.00  0.00     0.012 C 
ENDBRANCH   1   2
BRANCH   1   5
HETATM    5  N1  UNL     1      78.095  72.117  96.573  1.00  0.00    -0.066 N 
ATOM      6  H13 UNL     1      78.974  72.457  96.183  1.00  0.00     0.275 HD
ATOM      7  H12 UNL     1      78.458  71.308  97.077  1.00  0.00     0.275 HD
ATOM      8  H11 UNL     1      77.432  71.850  95.846  1.00  0.00     0.275 HD
ENDBRANCH   1   5
BRANCH   1   9
HETATM    9  C5  UNL     1      76.068  73.209  97.078  1.00  0.00     0.250 C 
HETATM   10  O1  UNL     1      75.751  73.276  95.843  1.00  0.00    -0.271 OA
HETATM   11  N2  UNL     1      75.037  73.249  98.022  1.00  0.00    -0.350 N 
HETATM   12  C6  UNL     1      75.199  73.134  99.455  1.00  0.00     0.126 C 
HETATM   13  C9  UNL     1      73.599  73.431  97.738  1.00  0.00     0.126 C 
HETATM   14  C7  UNL     1      74.143  74.164  99.897  1.00  0.00     0.021 C 
HETATM   15  C8  UNL     1      72.972  73.634  99.095  1.00  0.00     0.021 C 
ENDBRANCH   1   9
TORSDOF 3
ENDMDL
