MODEL 8
REMARK VINA RESULT: -4.890144631      1.960      4.671
REMARK  3 active torsions:
REMARK  status: ('A' for Active; 'I' for Inactive)
REMARK    1  A    between atoms: C2_2  and  C4_4 
REMARK    2  A    between atoms: C4_4  and  N1_5 
REMARK    3  A    between atoms: C4_4  and  C5_9 
REMARK       I    between atoms: C5_9  and  N2_11 
ROOT
HETATM    1  C4  UNL     1      81.234  74.362  99.435  1.00  0.00     0.278 C 
ENDROOT
BRANCH   1   2
HETATM    2  C2  UNL     1      80.410  74.825  98.246  1.00  0.00     0.017 C 
HETATM    3  C1  UNL     1      79.059  75.359  98.685  1.00  0.00     0.012 C 
HETATM    4  C3  UNL     1      80.241  73.773  97.203  1.00  0.00     0.012 C 
ENDBRANCH   1   2
BRANCH   1   5
HETATM    5  N1  UNL     1      80.941  75.195 100.597  1.00  0.00    -0.066 N 
ATOM      6  H13 UNL     1      79.998  75.582 100.564  1.00  0.00     0.275 HD
ATOM      7  H12 UNL     1      80.844  74.642 101.449  1.00  0.00     0.275 HD
ATOM      8  H11 UNL     1      81.650  75.921 100.691  1.00  0.00     0.275 HD
ENDBRANCH   1   5
BRANCH   1   9
HETATM    9  C5  UNL     1      82.658  74.551  99.116  1.00  0.00     0.250 C 
HETATM   10  O1  UNL     1      83.521  73.700  99.514  1.00  0.00    -0.271 OA
HETATM   11  N2  UNL     1      83.112  75.649  98.378  1.00  0.00    -0.350 N 
HETATM   12  C6  UNL     1      82.280  76.682  97.802  1.00  0.00     0.126 C 
HETATM   13  C9  UNL     1      84.519  75.966  98.060  1.00  0.00     0.126 C 
HETATM   14  C7  UNL     1      83.189  77.896  98.069  1.00  0.00     0.021 C 
HETATM   15  C8  UNL     1      84.465  77.350  97.462  1.00  0.00     0.021 C 
ENDBRANCH   1   9
TORSDOF 3
ENDMDL
