MODEL 1
REMARK VINA RESULT: -5.610018637      0.000      0.000
REMARK  3 active torsions:
REMARK  status: ('A' for Active; 'I' for Inactive)
REMARK    1  A    between atoms: C2_2  and  C4_4 
REMARK    2  A    between atoms: C4_4  and  N1_5 
REMARK    3  A    between atoms: C4_4  and  C5_9 
REMARK       I    between atoms: C5_9  and  N2_11 
ROOT
HETATM    1  C4  UNL     1      81.745  75.115  98.594  1.00  0.00     0.278 C 
ENDROOT
BRANCH   1   2
HETATM    2  C2  UNL     1      82.228  76.491  98.169  1.00  0.00     0.017 C 
HETATM    3  C1  UNL     1      83.725  76.496  97.916  1.00  0.00     0.012 C 
HETATM    4  C3  UNL     1      81.859  77.568  99.133  1.00  0.00     0.012 C 
ENDBRANCH   1   2
BRANCH   1   5
HETATM    5  N1  UNL     1      82.827  74.145  98.462  1.00  0.00    -0.066 N 
ATOM      6  H13 UNL     1      82.815  73.678  97.556  1.00  0.00     0.275 HD
ATOM      7  H12 UNL     1      83.738  74.597  98.384  1.00  0.00     0.275 HD
ATOM      8  H11 UNL     1      82.795  73.482  99.236  1.00  0.00     0.275 HD
ENDBRANCH   1   5
BRANCH   1   9
HETATM    9  C5  UNL     1      80.674  74.694  97.677  1.00  0.00     0.250 C 
HETATM   10  O1  UNL     1      80.955  74.361  96.477  1.00  0.00    -0.271 OA
HETATM   11  N2  UNL     1      79.334  74.642  98.075  1.00  0.00    -0.350 N 
HETATM   12  C6  UNL     1      78.836  74.931  99.402  1.00  0.00     0.126 C 
HETATM   13  C9  UNL     1      78.181  74.298  97.219  1.00  0.00     0.126 C 
HETATM   14  C7  UNL     1      77.536  75.660  99.014  1.00  0.00     0.021 C 
HETATM   15  C8  UNL     1      76.976  74.619  98.067  1.00  0.00     0.021 C 
ENDBRANCH   1   9
TORSDOF 3
ENDMDL
