MODEL 3
REMARK VINA RESULT: -5.162806237      1.549      4.655
REMARK  3 active torsions:
REMARK  status: ('A' for Active; 'I' for Inactive)
REMARK    1  A    between atoms: C2_2  and  C4_4 
REMARK    2  A    between atoms: C4_4  and  N1_5 
REMARK    3  A    between atoms: C4_4  and  C5_9 
REMARK       I    between atoms: C5_9  and  N2_11 
ROOT
HETATM    1  C4  UNL     1      80.450  74.570  97.565  1.00  0.00     0.278 C 
ENDROOT
BRANCH   1   2
HETATM    2  C2  UNL     1      79.431  74.433  98.684  1.00  0.00     0.017 C 
HETATM    3  C1  UNL     1      78.518  73.242  98.455  1.00  0.00     0.012 C 
HETATM    4  C3  UNL     1      78.629  75.671  98.903  1.00  0.00     0.012 C 
ENDBRANCH   1   2
BRANCH   1   5
HETATM    5  N1  UNL     1      80.297  73.472  96.616  1.00  0.00    -0.066 N 
ATOM      6  H13 UNL     1      79.396  73.004  96.713  1.00  0.00     0.275 HD
ATOM      7  H12 UNL     1      80.189  73.805  95.659  1.00  0.00     0.275 HD
ATOM      8  H11 UNL     1      81.077  72.822  96.710  1.00  0.00     0.275 HD
ENDBRANCH   1   5
BRANCH   1   9
HETATM    9  C5  UNL     1      81.797  74.455  98.146  1.00  0.00     0.250 C 
HETATM   10  O1  UNL     1      82.132  73.397  98.777  1.00  0.00    -0.271 OA
HETATM   11  N2  UNL     1      82.744  75.477  98.030  1.00  0.00    -0.350 N 
HETATM   12  C6  UNL     1      82.563  76.719  97.310  1.00  0.00     0.126 C 
HETATM   13  C9  UNL     1      84.094  75.489  98.628  1.00  0.00     0.126 C 
HETATM   14  C7  UNL     1      83.295  77.665  98.280  1.00  0.00     0.021 C 
HETATM   15  C8  UNL     1      84.593  76.894  98.398  1.00  0.00     0.021 C 
ENDBRANCH   1   9
TORSDOF 3
ENDMDL
