MODEL 1
REMARK VINA RESULT: -7.223198176      0.000      0.000
REMARK  9 active torsions:
REMARK  status: ('A' for Active; 'I' for Inactive)
REMARK       I    between atoms: C2_2  and  N1_4 
REMARK    1  A    between atoms: N1_4  and  C3_6 
REMARK    2  A    between atoms: C4_7  and  O2_8 
REMARK    3  A    between atoms: C6_11  and  C7_12 
REMARK    4  A    between atoms: C8_16  and  C9_17 
REMARK    5  A    between atoms: C9_17  and  O6_18 
REMARK    6  A    between atoms: C9_17  and  C10_20 
REMARK    7  A    between atoms: C10_20  and  O7_21 
REMARK    8  A    between atoms: C10_20  and  C11_23 
REMARK    9  A    between atoms: C11_23  and  O8_24 
ROOT
HETATM    1  C3  UNL     1      22.913  -2.674   8.322  1.00  0.00     0.149 C 
HETATM    2  C4  UNL     1      23.864  -1.636   8.857  1.00  0.00     0.169 C 
HETATM    3  C5  UNL     1      25.054  -2.342   9.376  1.00  0.00     0.050 C 
HETATM    4  C6  UNL     1      25.421  -3.498   8.867  1.00  0.00     0.144 C 
HETATM    5  O5  UNL     1      24.727  -4.101   7.843  1.00  0.00    -0.335 OA
HETATM    6  C8  UNL     1      23.569  -3.552   7.263  1.00  0.00     0.186 C 
ENDROOT
BRANCH   6   7
HETATM    7  C9  UNL     1      22.546  -4.574   6.895  1.00  0.00     0.180 C 
BRANCH   7   8
HETATM    8  O6  UNL     1      22.047  -5.196   8.026  1.00  0.00    -0.390 OA
ATOM      9  H6  UNL     1      21.732  -6.067   7.819  1.00  0.00     0.210 HD
ENDBRANCH   7   8
BRANCH   7  10
HETATM   10  C10 UNL     1      22.979  -5.565   5.875  1.00  0.00     0.173 C 
BRANCH  10  11
HETATM   11  O7  UNL     1      24.038  -6.309   6.449  1.00  0.00    -0.391 OA
ATOM     12  H7  UNL     1      23.875  -7.222   6.246  1.00  0.00     0.210 HD
ENDBRANCH  10  11
BRANCH  10  13
HETATM   13  C11 UNL     1      23.579  -4.908   4.640  1.00  0.00     0.198 C 
BRANCH  13  14
HETATM   14  O8  UNL     1      24.708  -5.606   4.220  1.00  0.00    -0.398 OA
ATOM     15  H8  UNL     1      24.816  -5.526   3.280  1.00  0.00     0.209 HD
ENDBRANCH  13  14
ENDBRANCH  10  13
ENDBRANCH   7  10
ENDBRANCH   6   7
BRANCH   1  16
HETATM   16  N1  UNL     1      21.817  -1.985   7.670  1.00  0.00    -0.351 N 
HETATM   17  C2  UNL     1      20.554  -1.771   8.275  1.00  0.00     0.214 C 
HETATM   18  C1  UNL     1      19.451  -1.049   7.554  1.00  0.00     0.117 C 
HETATM   19  O1  UNL     1      20.372  -2.199   9.436  1.00  0.00    -0.274 OA
ATOM     20  H1  UNL     1      21.963  -1.634   6.724  1.00  0.00     0.163 HD
ENDBRANCH   1  16
BRANCH   2  21
HETATM   21  O2  UNL     1      23.231  -1.009   9.929  1.00  0.00    -0.389 OA
ATOM     22  H2  UNL     1      23.282  -0.072   9.779  1.00  0.00     0.210 HD
ENDBRANCH   2  21
BRANCH   4  23
HETATM   23  C7  UNL     1      26.620  -4.154   9.428  1.00  0.00     0.233 C 
HETATM   24  O3  UNL     1      26.954  -5.300   9.092  1.00  0.00    -0.642 OA
HETATM   25  O4  UNL     1      27.415  -3.496  10.359  1.00  0.00    -0.642 OA
ENDBRANCH   4  23
TORSDOF 9
ENDMDL
