MODEL 2
REMARK VINA RESULT: -7.129292958      1.227      1.861
REMARK  9 active torsions:
REMARK  status: ('A' for Active; 'I' for Inactive)
REMARK       I    between atoms: C2_2  and  N1_4 
REMARK    1  A    between atoms: N1_4  and  C3_6 
REMARK    2  A    between atoms: C4_7  and  O2_8 
REMARK    3  A    between atoms: C6_11  and  C7_12 
REMARK    4  A    between atoms: C8_16  and  C9_17 
REMARK    5  A    between atoms: C9_17  and  O6_18 
REMARK    6  A    between atoms: C9_17  and  C10_20 
REMARK    7  A    between atoms: C10_20  and  O7_21 
REMARK    8  A    between atoms: C10_20  and  C11_23 
REMARK    9  A    between atoms: C11_23  and  O8_24 
ROOT
HETATM    1  C3  UNL     1      22.871  -2.497   8.635  1.00  0.00     0.149 C 
HETATM    2  C4  UNL     1      23.988  -1.503   8.824  1.00  0.00     0.169 C 
HETATM    3  C5  UNL     1      25.150  -2.233   9.373  1.00  0.00     0.050 C 
HETATM    4  C6  UNL     1      25.324  -3.510   9.111  1.00  0.00     0.144 C 
HETATM    5  O5  UNL     1      24.447  -4.221   8.324  1.00  0.00    -0.335 OA
HETATM    6  C8  UNL     1      23.292  -3.662   7.748  1.00  0.00     0.186 C 
ENDROOT
BRANCH   6   7
HETATM    7  C9  UNL     1      22.127  -4.593   7.725  1.00  0.00     0.180 C 
BRANCH   7   8
HETATM    8  O6  UNL     1      21.715  -4.894   9.012  1.00  0.00    -0.390 OA
ATOM      9  H6  UNL     1      20.950  -5.456   8.997  1.00  0.00     0.210 HD
ENDBRANCH   7   8
BRANCH   7  10
HETATM   10  C10 UNL     1      22.316  -5.824   6.913  1.00  0.00     0.173 C 
BRANCH  10  11
HETATM   11  O7  UNL     1      21.763  -5.561   5.636  1.00  0.00    -0.391 OA
ATOM     12  H7  UNL     1      20.933  -6.021   5.596  1.00  0.00     0.210 HD
ENDBRANCH  10  11
BRANCH  10  13
HETATM   13  C11 UNL     1      21.523  -7.006   7.452  1.00  0.00     0.198 C 
BRANCH  13  14
HETATM   14  O8  UNL     1      20.167  -6.843   7.185  1.00  0.00    -0.398 OA
ATOM     15  H8  UNL     1      19.704  -7.663   7.310  1.00  0.00     0.209 HD
ENDBRANCH  13  14
ENDBRANCH  10  13
ENDBRANCH   7  10
ENDBRANCH   6   7
BRANCH   1  16
HETATM   16  N1  UNL     1      21.785  -1.825   7.953  1.00  0.00    -0.351 N 
HETATM   17  C2  UNL     1      20.475  -1.711   8.482  1.00  0.00     0.214 C 
HETATM   18  C1  UNL     1      19.384  -1.002   7.731  1.00  0.00     0.117 C 
HETATM   19  O1  UNL     1      20.242  -2.217   9.602  1.00  0.00    -0.274 OA
ATOM     20  H1  UNL     1      21.972  -1.410   7.040  1.00  0.00     0.163 HD
ENDBRANCH   1  16
BRANCH   2  21
HETATM   21  O2  UNL     1      23.564  -0.581   9.780  1.00  0.00    -0.389 OA
ATOM     22  H2  UNL     1      24.279  -0.464  10.395  1.00  0.00     0.210 HD
ENDBRANCH   2  21
BRANCH   4  23
HETATM   23  C7  UNL     1      26.504  -4.184   9.689  1.00  0.00     0.233 C 
HETATM   24  O3  UNL     1      27.329  -3.572  10.385  1.00  0.00    -0.642 OA
HETATM   25  O4  UNL     1      26.725  -5.538   9.466  1.00  0.00    -0.642 OA
ENDBRANCH   4  23
TORSDOF 9
ENDMDL
