MODEL 3
REMARK VINA RESULT: -6.781319139      3.260      5.565
REMARK  9 active torsions:
REMARK  status: ('A' for Active; 'I' for Inactive)
REMARK       I    between atoms: C2_2  and  N1_4 
REMARK    1  A    between atoms: N1_4  and  C3_6 
REMARK    2  A    between atoms: C4_7  and  O2_8 
REMARK    3  A    between atoms: C6_11  and  C7_12 
REMARK    4  A    between atoms: C8_16  and  C9_17 
REMARK    5  A    between atoms: C9_17  and  O6_18 
REMARK    6  A    between atoms: C9_17  and  C10_20 
REMARK    7  A    between atoms: C10_20  and  O7_21 
REMARK    8  A    between atoms: C10_20  and  C11_23 
REMARK    9  A    between atoms: C11_23  and  O8_24 
ROOT
HETATM    1  C3  UNL     1      25.528  -5.758  10.913  1.00  0.00     0.149 C 
HETATM    2  C4  UNL     1      25.400  -6.373  12.282  1.00  0.00     0.169 C 
HETATM    3  C5  UNL     1      26.576  -5.952  13.073  1.00  0.00     0.050 C 
HETATM    4  C6  UNL     1      27.181  -4.812  12.821  1.00  0.00     0.144 C 
HETATM    5  O5  UNL     1      26.757  -3.965  11.822  1.00  0.00    -0.335 OA
HETATM    6  C8  UNL     1      25.664  -4.242  10.981  1.00  0.00     0.186 C 
ENDROOT
BRANCH   6   7
HETATM    7  C9  UNL     1      25.866  -3.791   9.574  1.00  0.00     0.180 C 
BRANCH   7   8
HETATM    8  O6  UNL     1      27.118  -4.162   9.115  1.00  0.00    -0.390 OA
ATOM      9  H6  UNL     1      27.235  -3.902   8.209  1.00  0.00     0.210 HD
ENDBRANCH   7   8
BRANCH   7  10
HETATM   10  C10 UNL     1      25.602  -2.349   9.326  1.00  0.00     0.173 C 
BRANCH  10  11
HETATM   11  O7  UNL     1      25.388  -1.748  10.590  1.00  0.00    -0.391 OA
ATOM     12  H7  UNL     1      25.316  -2.453  11.221  1.00  0.00     0.210 HD
ENDBRANCH  10  11
BRANCH  10  13
HETATM   13  C11 UNL     1      24.311  -2.117   8.553  1.00  0.00     0.198 C 
BRANCH  13  14
HETATM   14  O8  UNL     1      24.496  -1.135   7.584  1.00  0.00    -0.398 OA
ATOM     15  H8  UNL     1      24.071  -1.386   6.773  1.00  0.00     0.209 HD
ENDBRANCH  13  14
ENDBRANCH  10  13
ENDBRANCH   7  10
ENDBRANCH   6   7
BRANCH   1  16
HETATM   16  N1  UNL     1      24.307  -6.034  10.183  1.00  0.00    -0.351 N 
HETATM   17  C2  UNL     1      24.180  -7.073   9.228  1.00  0.00     0.214 C 
HETATM   18  C1  UNL     1      22.889  -7.316   8.499  1.00  0.00     0.117 C 
HETATM   19  O1  UNL     1      25.177  -7.795   9.001  1.00  0.00    -0.274 OA
ATOM     20  H1  UNL     1      23.493  -5.448  10.366  1.00  0.00     0.163 HD
ENDBRANCH   1  16
BRANCH   2  21
HETATM   21  O2  UNL     1      25.459  -7.756  12.122  1.00  0.00    -0.389 OA
ATOM     22  H2  UNL     1      26.377  -8.001  12.113  1.00  0.00     0.210 HD
ENDBRANCH   2  21
BRANCH   4  23
HETATM   23  C7  UNL     1      28.350  -4.447  13.646  1.00  0.00     0.233 C 
HETATM   24  O3  UNL     1      28.427  -4.762  14.843  1.00  0.00    -0.642 OA
HETATM   25  O4  UNL     1      29.408  -3.734  13.096  1.00  0.00    -0.642 OA
ENDBRANCH   4  23
TORSDOF 9
ENDMDL
