MODEL 5
REMARK VINA RESULT: -6.573325667      2.222      4.519
REMARK  9 active torsions:
REMARK  status: ('A' for Active; 'I' for Inactive)
REMARK       I    between atoms: C2_2  and  N1_4 
REMARK    1  A    between atoms: N1_4  and  C3_6 
REMARK    2  A    between atoms: C4_7  and  O2_8 
REMARK    3  A    between atoms: C6_11  and  C7_12 
REMARK    4  A    between atoms: C8_16  and  C9_17 
REMARK    5  A    between atoms: C9_17  and  O6_18 
REMARK    6  A    between atoms: C9_17  and  C10_20 
REMARK    7  A    between atoms: C10_20  and  O7_21 
REMARK    8  A    between atoms: C10_20  and  C11_23 
REMARK    9  A    between atoms: C11_23  and  O8_24 
ROOT
HETATM    1  C3  UNL     1      24.208  -6.095   7.944  1.00  0.00     0.149 C 
HETATM    2  C4  UNL     1      24.737  -6.566   9.274  1.00  0.00     0.169 C 
HETATM    3  C5  UNL     1      25.678  -5.539   9.771  1.00  0.00     0.050 C 
HETATM    4  C6  UNL     1      25.534  -4.277   9.430  1.00  0.00     0.144 C 
HETATM    5  O5  UNL     1      24.517  -3.854   8.605  1.00  0.00    -0.335 OA
HETATM    6  C8  UNL     1      23.559  -4.720   8.046  1.00  0.00     0.186 C 
ENDROOT
BRANCH   6   7
HETATM    7  C9  UNL     1      23.167  -4.355   6.654  1.00  0.00     0.180 C 
BRANCH   7   8
HETATM    8  O6  UNL     1      24.236  -4.508   5.787  1.00  0.00    -0.390 OA
ATOM      9  H6  UNL     1      24.063  -4.073   4.961  1.00  0.00     0.210 HD
ENDBRANCH   7   8
BRANCH   7  10
HETATM   10  C10 UNL     1      22.532  -3.019   6.504  1.00  0.00     0.173 C 
BRANCH  10  11
HETATM   11  O7  UNL     1      23.534  -2.056   6.772  1.00  0.00    -0.391 OA
ATOM     12  H7  UNL     1      23.570  -1.950   7.715  1.00  0.00     0.210 HD
ENDBRANCH  10  11
BRANCH  10  13
HETATM   13  C11 UNL     1      21.451  -2.766   7.546  1.00  0.00     0.198 C 
BRANCH  13  14
HETATM   14  O8  UNL     1      21.756  -1.634   8.296  1.00  0.00    -0.398 OA
ATOM     15  H8  UNL     1      21.488  -0.849   7.834  1.00  0.00     0.209 HD
ENDBRANCH  13  14
ENDBRANCH  10  13
ENDBRANCH   7  10
ENDBRANCH   6   7
BRANCH   1  16
HETATM   16  N1  UNL     1      23.170  -7.015   7.524  1.00  0.00    -0.351 N 
HETATM   17  C2  UNL     1      23.192  -7.715   6.293  1.00  0.00     0.214 C 
HETATM   18  C1  UNL     1      22.089  -8.659   5.906  1.00  0.00     0.117 C 
HETATM   19  O1  UNL     1      24.161  -7.531   5.523  1.00  0.00    -0.274 OA
ATOM     20  H1  UNL     1      22.379  -7.167   8.150  1.00  0.00     0.163 HD
ENDBRANCH   1  16
BRANCH   2  21
HETATM   21  O2  UNL     1      25.457  -7.737   9.042  1.00  0.00    -0.389 OA
ATOM     22  H2  UNL     1      26.365  -7.556   9.255  1.00  0.00     0.210 HD
ENDBRANCH   2  21
BRANCH   4  23
HETATM   23  C7  UNL     1      26.506  -3.300   9.959  1.00  0.00     0.233 C 
HETATM   24  O3  UNL     1      27.513  -3.656  10.588  1.00  0.00    -0.642 OA
HETATM   25  O4  UNL     1      26.315  -1.937   9.763  1.00  0.00    -0.642 OA
ENDBRANCH   4  23
TORSDOF 9
ENDMDL
