MODEL 4
REMARK VINA RESULT: -6.727680731      2.421      4.327
REMARK  9 active torsions:
REMARK  status: ('A' for Active; 'I' for Inactive)
REMARK       I    between atoms: C2_2  and  N1_4 
REMARK    1  A    between atoms: N1_4  and  C3_6 
REMARK    2  A    between atoms: C4_7  and  O2_8 
REMARK    3  A    between atoms: C6_11  and  C7_12 
REMARK    4  A    between atoms: C8_16  and  C9_17 
REMARK    5  A    between atoms: C9_17  and  O6_18 
REMARK    6  A    between atoms: C9_17  and  C10_20 
REMARK    7  A    between atoms: C10_20  and  O7_21 
REMARK    8  A    between atoms: C10_20  and  C11_23 
REMARK    9  A    between atoms: C11_23  and  O8_24 
ROOT
HETATM    1  C3  UNL     1      24.184  -6.077   7.915  1.00  0.00     0.149 C 
HETATM    2  C4  UNL     1      24.705  -6.535   9.252  1.00  0.00     0.169 C 
HETATM    3  C5  UNL     1      25.640  -5.504   9.747  1.00  0.00     0.050 C 
HETATM    4  C6  UNL     1      25.497  -4.245   9.394  1.00  0.00     0.144 C 
HETATM    5  O5  UNL     1      24.486  -3.830   8.559  1.00  0.00    -0.335 OA
HETATM    6  C8  UNL     1      23.533  -4.701   8.000  1.00  0.00     0.186 C 
ENDROOT
BRANCH   6   7
HETATM    7  C9  UNL     1      23.150  -4.348   6.603  1.00  0.00     0.180 C 
BRANCH   7   8
HETATM    8  O6  UNL     1      24.234  -4.475   5.751  1.00  0.00    -0.390 OA
ATOM      9  H6  UNL     1      24.529  -3.623   5.453  1.00  0.00     0.210 HD
ENDBRANCH   7   8
BRANCH   7  10
HETATM   10  C10 UNL     1      22.484  -3.029   6.443  1.00  0.00     0.173 C 
BRANCH  10  11
HETATM   11  O7  UNL     1      21.269  -3.092   7.168  1.00  0.00    -0.391 OA
ATOM     12  H7  UNL     1      20.730  -3.748   6.744  1.00  0.00     0.210 HD
ENDBRANCH  10  11
BRANCH  10  13
HETATM   13  C11 UNL     1      22.072  -2.753   5.003  1.00  0.00     0.198 C 
BRANCH  13  14
HETATM   14  O8  UNL     1      22.866  -1.750   4.455  1.00  0.00    -0.398 OA
ATOM     15  H8  UNL     1      23.734  -2.082   4.264  1.00  0.00     0.209 HD
ENDBRANCH  13  14
ENDBRANCH  10  13
ENDBRANCH   7  10
ENDBRANCH   6   7
BRANCH   1  16
HETATM   16  N1  UNL     1      23.151  -7.001   7.495  1.00  0.00    -0.351 N 
HETATM   17  C2  UNL     1      23.188  -7.721   6.275  1.00  0.00     0.214 C 
HETATM   18  C1  UNL     1      22.088  -8.669   5.888  1.00  0.00     0.117 C 
HETATM   19  O1  UNL     1      24.169  -7.551   5.517  1.00  0.00    -0.274 OA
ATOM     20  H1  UNL     1      22.351  -7.142   8.112  1.00  0.00     0.163 HD
ENDBRANCH   1  16
BRANCH   2  21
HETATM   21  O2  UNL     1      25.428  -7.707   9.034  1.00  0.00    -0.389 OA
ATOM     22  H2  UNL     1      25.373  -8.224   9.829  1.00  0.00     0.210 HD
ENDBRANCH   2  21
BRANCH   4  23
HETATM   23  C7  UNL     1      26.464  -3.262   9.922  1.00  0.00     0.233 C 
HETATM   24  O3  UNL     1      27.473  -3.612  10.553  1.00  0.00    -0.642 OA
HETATM   25  O4  UNL     1      26.268  -1.900   9.723  1.00  0.00    -0.642 OA
ENDBRANCH   4  23
TORSDOF 9
ENDMDL
