MODEL 20
REMARK VINA RESULT: -5.840800360      2.765      4.064
REMARK  3 active torsions:
REMARK  status: ('A' for Active; 'I' for Inactive)
REMARK    1  A    between atoms: C2_2  and  C3_3 
REMARK    2  A    between atoms: C3_3  and  C4_4 
REMARK    3  A    between atoms: C4_4  and  C5_5 
ROOT
HETATM    1  C5  UNL     1      15.889  17.031  18.787  1.00  0.00     0.082 A 
HETATM    2  N1  UNL     1      17.177  17.202  19.109  1.00  0.00    -0.339 N 
ATOM      3  H1  UNL     1      17.945  17.292  18.444  1.00  0.00     0.167 HD
HETATM    4  C6  UNL     1      17.299  17.237  20.466  1.00  0.00     0.136 A 
HETATM    5  C7  UNL     1      18.354  17.386  21.330  1.00  0.00     0.289 A 
HETATM    6  O1  UNL     1      19.506  17.528  20.848  1.00  0.00    -0.264 OA
HETATM    7  N2  UNL     1      18.120  17.374  22.655  1.00  0.00    -0.262 N 
ATOM      8  H2  UNL     1      18.905  17.485  23.297  1.00  0.00     0.190 HD
HETATM    9  N3  UNL     1      16.906  17.223  23.150  1.00  0.00    -0.262 N 
ATOM     10  H3  UNL     1      16.773  17.219  24.162  1.00  0.00     0.190 HD
HETATM   11  C8  UNL     1      15.846  17.075  22.345  1.00  0.00     0.289 A 
HETATM   12  O2  UNL     1      14.664  16.927  22.765  1.00  0.00    -0.264 OA
HETATM   13  C9  UNL     1      16.037  17.081  20.977  1.00  0.00     0.136 A 
HETATM   14  N4  UNL     1      15.204  16.959  19.938  1.00  0.00    -0.339 N 
ATOM     15  H4  UNL     1      14.194  16.830  20.011  1.00  0.00     0.167 HD
ENDROOT
BRANCH   1  16
HETATM   16  C4  UNL     1      15.286  16.936  17.456  1.00  0.00     0.076 C 
BRANCH  16  17
HETATM   17  C3  UNL     1      15.318  18.268  16.705  1.00  0.00     0.007 C 
BRANCH  17  18
HETATM   18  C2  UNL     1      16.564  18.258  15.846  1.00  0.00    -0.004 C 
HETATM   19  C1  UNL     1      16.264  17.823  14.429  1.00  0.00     0.005 C 
ENDBRANCH  17  18
ENDBRANCH  16  17
ENDBRANCH   1  16
TORSDOF 3
ENDMDL
