MODEL 13
REMARK VINA RESULT: -6.066465158      3.662      5.989
REMARK  3 active torsions:
REMARK  status: ('A' for Active; 'I' for Inactive)
REMARK    1  A    between atoms: C2_2  and  C3_3 
REMARK    2  A    between atoms: C3_3  and  C4_4 
REMARK    3  A    between atoms: C4_4  and  C5_5 
ROOT
HETATM    1  C5  UNL     1      16.381  16.856  18.626  1.00  0.00     0.082 A 
HETATM    2  N1  UNL     1      15.802  15.764  19.141  1.00  0.00    -0.339 N 
ATOM      3  H1  UNL     1      16.068  15.311  20.015  1.00  0.00     0.167 HD
HETATM    4  C6  UNL     1      14.801  15.355  18.312  1.00  0.00     0.136 A 
HETATM    5  C7  UNL     1      13.898  14.323  18.335  1.00  0.00     0.289 A 
HETATM    6  O1  UNL     1      13.929  13.524  19.305  1.00  0.00    -0.264 OA
HETATM    7  N2  UNL     1      13.016  14.202  17.326  1.00  0.00    -0.262 N 
ATOM      8  H2  UNL     1      12.345  13.434  17.345  1.00  0.00     0.190 HD
HETATM    9  N3  UNL     1      12.994  15.047  16.312  1.00  0.00    -0.262 N 
ATOM     10  H3  UNL     1      12.309  14.918  15.567  1.00  0.00     0.190 HD
HETATM   11  C8  UNL     1      13.856  16.070  16.246  1.00  0.00     0.289 A 
HETATM   12  O2  UNL     1      13.878  16.907  15.301  1.00  0.00    -0.264 OA
HETATM   13  C9  UNL     1      14.779  16.235  17.260  1.00  0.00     0.136 A 
HETATM   14  N4  UNL     1      15.746  17.132  17.477  1.00  0.00    -0.339 N 
ATOM     15  H4  UNL     1      15.968  17.913  16.859  1.00  0.00     0.167 HD
ENDROOT
BRANCH   1  16
HETATM   16  C4  UNL     1      17.494  17.639  19.168  1.00  0.00     0.076 C 
BRANCH  16  17
HETATM   17  C3  UNL     1      18.210  16.920  20.312  1.00  0.00     0.007 C 
BRANCH  17  18
HETATM   18  C2  UNL     1      17.982  17.745  21.560  1.00  0.00    -0.004 C 
HETATM   19  C1  UNL     1      16.741  17.307  22.304  1.00  0.00     0.005 C 
ENDBRANCH  17  18
ENDBRANCH  16  17
ENDBRANCH   1  16
TORSDOF 3
ENDMDL
