MODEL 10
REMARK VINA RESULT: -6.130753130      3.590      6.323
REMARK  3 active torsions:
REMARK  status: ('A' for Active; 'I' for Inactive)
REMARK    1  A    between atoms: C2_2  and  C3_3 
REMARK    2  A    between atoms: C3_3  and  C4_4 
REMARK    3  A    between atoms: C4_4  and  C5_5 
ROOT
HETATM    1  C5  UNL     1      16.151  16.667  18.850  1.00  0.00     0.082 A 
HETATM    2  N1  UNL     1      15.836  16.946  17.579  1.00  0.00    -0.339 N 
ATOM      3  H1  UNL     1      16.297  17.644  16.995  1.00  0.00     0.167 HD
HETATM    4  C6  UNL     1      14.801  16.150  17.189  1.00  0.00     0.136 A 
HETATM    5  C7  UNL     1      14.087  16.005  16.027  1.00  0.00     0.289 A 
HETATM    6  O1  UNL     1      14.388  16.732  15.047  1.00  0.00    -0.264 OA
HETATM    7  N2  UNL     1      13.096  15.096  15.977  1.00  0.00    -0.262 N 
ATOM      8  H2  UNL     1      12.566  14.989  15.112  1.00  0.00     0.190 HD
HETATM    9  N3  UNL     1      12.788  14.339  17.013  1.00  0.00    -0.262 N 
ATOM     10  H3  UNL     1      12.029  13.663  16.932  1.00  0.00     0.190 HD
HETATM   11  C8  UNL     1      13.458  14.444  18.168  1.00  0.00     0.289 A 
HETATM   12  O2  UNL     1      13.206  13.745  19.190  1.00  0.00    -0.264 OA
HETATM   13  C9  UNL     1      14.484  15.363  18.267  1.00  0.00     0.136 A 
HETATM   14  N4  UNL     1      15.318  15.699  19.257  1.00  0.00    -0.339 N 
ATOM     15  H4  UNL     1      15.319  15.278  20.187  1.00  0.00     0.167 HD
ENDROOT
BRANCH   1  16
HETATM   16  C4  UNL     1      17.195  17.269  19.683  1.00  0.00     0.076 C 
BRANCH  16  17
HETATM   17  C3  UNL     1      16.848  17.226  21.173  1.00  0.00     0.007 C 
BRANCH  17  18
HETATM   18  C2  UNL     1      18.156  17.304  21.930  1.00  0.00    -0.004 C 
HETATM   19  C1  UNL     1      17.939  17.294  23.426  1.00  0.00     0.005 C 
ENDBRANCH  17  18
ENDBRANCH  16  17
ENDBRANCH   1  16
TORSDOF 3
ENDMDL
