MODEL 2
REMARK VINA RESULT: -7.233088041      1.188      1.936
REMARK  3 active torsions:
REMARK  status: ('A' for Active; 'I' for Inactive)
REMARK    1  A    between atoms: C2_2  and  C3_3 
REMARK    2  A    between atoms: C3_3  and  C4_4 
REMARK    3  A    between atoms: C4_4  and  C5_5 
ROOT
HETATM    1  C5  UNL     1      14.166  16.585  19.972  1.00  0.00     0.082 A 
HETATM    2  N1  UNL     1      13.171  16.561  20.869  1.00  0.00    -0.339 N 
ATOM      3  H1  UNL     1      12.184  16.427  20.652  1.00  0.00     0.167 HD
HETATM    4  C6  UNL     1      13.689  16.743  22.116  1.00  0.00     0.136 A 
HETATM    5  C7  UNL     1      13.152  16.807  23.377  1.00  0.00     0.289 A 
HETATM    6  O1  UNL     1      11.908  16.677  23.504  1.00  0.00    -0.264 OA
HETATM    7  N2  UNL     1      13.970  17.004  24.427  1.00  0.00    -0.262 N 
ATOM      8  H2  UNL     1      13.569  17.051  25.364  1.00  0.00     0.190 HD
HETATM    9  N3  UNL     1      15.275  17.139  24.282  1.00  0.00    -0.262 N 
ATOM     10  H3  UNL     1      15.859  17.288  25.105  1.00  0.00     0.190 HD
HETATM   11  C8  UNL     1      15.844  17.084  23.070  1.00  0.00     0.289 A 
HETATM   12  O2  UNL     1      17.085  17.206  22.874  1.00  0.00    -0.264 OA
HETATM   13  C9  UNL     1      15.044  16.882  21.962  1.00  0.00     0.136 A 
HETATM   14  N4  UNL     1      15.304  16.782  20.655  1.00  0.00    -0.339 N 
ATOM     15  H4  UNL     1      16.233  16.846  20.237  1.00  0.00     0.167 HD
ENDROOT
BRANCH   1  16
HETATM   16  C4  UNL     1      14.086  16.431  18.518  1.00  0.00     0.076 C 
BRANCH  16  17
HETATM   17  C3  UNL     1      14.366  17.740  17.777  1.00  0.00     0.007 C 
BRANCH  17  18
HETATM   18  C2  UNL     1      15.612  17.517  16.948  1.00  0.00    -0.004 C 
HETATM   19  C1  UNL     1      16.849  18.040  17.643  1.00  0.00     0.005 C 
ENDBRANCH  17  18
ENDBRANCH  16  17
ENDBRANCH   1  16
TORSDOF 3
ENDMDL
