MODEL 14
REMARK VINA RESULT: -6.051462787      4.442      6.997
REMARK  3 active torsions:
REMARK  status: ('A' for Active; 'I' for Inactive)
REMARK    1  A    between atoms: C2_2  and  C3_3 
REMARK    2  A    between atoms: C3_3  and  C4_4 
REMARK    3  A    between atoms: C4_4  and  C5_5 
ROOT
HETATM    1  C5  UNL     1      15.431  17.155  17.346  1.00  0.00     0.082 A 
HETATM    2  N1  UNL     1      15.512  17.007  16.018  1.00  0.00    -0.339 N 
ATOM      3  H1  UNL     1      16.215  17.436  15.417  1.00  0.00     0.167 HD
HETATM    4  C6  UNL     1      14.505  16.190  15.596  1.00  0.00     0.136 A 
HETATM    5  C7  UNL     1      14.112  15.705  14.375  1.00  0.00     0.289 A 
HETATM    6  O1  UNL     1      14.773  16.037  13.359  1.00  0.00    -0.264 OA
HETATM    7  N2  UNL     1      13.039  14.895  14.307  1.00  0.00    -0.262 N 
ATOM      8  H2  UNL     1      12.748  14.535  13.399  1.00  0.00     0.190 HD
HETATM    9  N3  UNL     1      12.352  14.553  15.381  1.00  0.00    -0.262 N 
ATOM     10  H3  UNL     1      11.545  13.937  15.285  1.00  0.00     0.190 HD
HETATM   11  C8  UNL     1      12.699  15.002  16.595  1.00  0.00     0.289 A 
HETATM   12  O2  UNL     1      12.078  14.706  17.654  1.00  0.00    -0.264 OA
HETATM   13  C9  UNL     1      13.794  15.836  16.713  1.00  0.00     0.136 A 
HETATM   14  N4  UNL     1      14.377  16.434  17.757  1.00  0.00    -0.339 N 
ATOM     15  H4  UNL     1      14.066  16.354  18.726  1.00  0.00     0.167 HD
ENDROOT
BRANCH   1  16
HETATM   16  C4  UNL     1      16.297  17.938  18.230  1.00  0.00     0.076 C 
BRANCH  16  17
HETATM   17  C3  UNL     1      17.396  17.089  18.871  1.00  0.00     0.007 C 
BRANCH  17  18
HETATM   18  C2  UNL     1      17.364  17.378  20.356  1.00  0.00    -0.004 C 
HETATM   19  C1  UNL     1      16.077  16.905  20.992  1.00  0.00     0.005 C 
ENDBRANCH  17  18
ENDBRANCH  16  17
ENDBRANCH   1  16
TORSDOF 3
ENDMDL
