MODEL 4
REMARK VINA RESULT: -7.107211844      1.190      3.010
REMARK  3 active torsions:
REMARK  status: ('A' for Active; 'I' for Inactive)
REMARK    1  A    between atoms: C2_2  and  C3_3 
REMARK    2  A    between atoms: C3_3  and  C4_4 
REMARK    3  A    between atoms: C4_4  and  C5_5 
ROOT
HETATM    1  C5  UNL     1      14.125  16.508  19.989  1.00  0.00     0.082 A 
HETATM    2  N1  UNL     1      15.285  16.724  20.623  1.00  0.00    -0.339 N 
ATOM      3  H1  UNL     1      16.202  16.769  20.178  1.00  0.00     0.167 HD
HETATM    4  C6  UNL     1      15.046  16.873  21.956  1.00  0.00     0.136 A 
HETATM    5  C7  UNL     1      15.837  17.108  23.052  1.00  0.00     0.289 A 
HETATM    6  O1  UNL     1      17.076  17.226  22.879  1.00  0.00    -0.264 OA
HETATM    7  N2  UNL     1      15.263  17.203  24.265  1.00  0.00    -0.262 N 
ATOM      8  H2  UNL     1      15.852  17.378  25.079  1.00  0.00     0.190 HD
HETATM    9  N3  UNL     1      13.960  17.077  24.434  1.00  0.00    -0.262 N 
ATOM     10  H3  UNL     1      13.566  17.156  25.371  1.00  0.00     0.190 HD
HETATM   11  C8  UNL     1      13.148  16.847  23.394  1.00  0.00     0.289 A 
HETATM   12  O2  UNL     1      11.896  16.719  23.498  1.00  0.00    -0.264 OA
HETATM   13  C9  UNL     1      13.692  16.743  22.128  1.00  0.00     0.136 A 
HETATM   14  N4  UNL     1      13.161  16.522  20.921  1.00  0.00    -0.339 N 
ATOM     15  H4  UNL     1      12.167  16.385  20.737  1.00  0.00     0.167 HD
ENDROOT
BRANCH   1  16
HETATM   16  C4  UNL     1      13.894  16.293  18.559  1.00  0.00     0.076 C 
BRANCH  16  17
HETATM   17  C3  UNL     1      15.161  16.500  17.726  1.00  0.00     0.007 C 
BRANCH  17  18
HETATM   18  C2  UNL     1      15.183  17.956  17.316  1.00  0.00    -0.004 C 
HETATM   19  C1  UNL     1      16.541  18.372  16.797  1.00  0.00     0.005 C 
ENDBRANCH  17  18
ENDBRANCH  16  17
ENDBRANCH   1  16
TORSDOF 3
ENDMDL
