MODEL 5
REMARK VINA RESULT: -6.972474851      2.112      3.571
REMARK  3 active torsions:
REMARK  status: ('A' for Active; 'I' for Inactive)
REMARK    1  A    between atoms: C2_2  and  C3_3 
REMARK    2  A    between atoms: C3_3  and  C4_4 
REMARK    3  A    between atoms: C4_4  and  C5_5 
ROOT
HETATM    1  C5  UNL     1      16.287  17.163  19.783  1.00  0.00     0.082 A 
HETATM    2  N1  UNL     1      17.313  17.414  20.605  1.00  0.00    -0.339 N 
ATOM      3  H1  UNL     1      18.262  17.645  20.312  1.00  0.00     0.167 HD
HETATM    4  C6  UNL     1      16.888  17.312  21.896  1.00  0.00     0.136 A 
HETATM    5  C7  UNL     1      17.491  17.461  23.119  1.00  0.00     0.289 A 
HETATM    6  O1  UNL     1      18.712  17.759  23.151  1.00  0.00    -0.264 OA
HETATM    7  N2  UNL     1      16.760  17.283  24.235  1.00  0.00    -0.262 N 
ATOM      8  H2  UNL     1      17.210  17.394  25.144  1.00  0.00     0.190 HD
HETATM    9  N3  UNL     1      15.479  16.969  24.189  1.00  0.00    -0.262 N 
ATOM     10  H3  UNL     1      14.962  16.843  25.060  1.00  0.00     0.190 HD
HETATM   11  C8  UNL     1      14.847  16.814  23.018  1.00  0.00     0.289 A 
HETATM   12  O2  UNL     1      13.624  16.515  22.917  1.00  0.00    -0.264 OA
HETATM   13  C9  UNL     1      15.557  16.987  21.846  1.00  0.00     0.136 A 
HETATM   14  N4  UNL     1      15.221  16.903  20.554  1.00  0.00    -0.339 N 
ATOM     15  H4  UNL     1      14.289  16.676  20.207  1.00  0.00     0.167 HD
ENDROOT
BRANCH   1  16
HETATM   16  C4  UNL     1      16.272  17.159  18.318  1.00  0.00     0.076 C 
BRANCH  16  17
HETATM   17  C3  UNL     1      14.937  17.641  17.748  1.00  0.00     0.007 C 
BRANCH  17  18
HETATM   18  C2  UNL     1      15.256  18.432  16.498  1.00  0.00    -0.004 C 
HETATM   19  C1  UNL     1      16.745  18.628  16.322  1.00  0.00     0.005 C 
ENDBRANCH  17  18
ENDBRANCH  16  17
ENDBRANCH   1  16
TORSDOF 3
ENDMDL
