MODEL 7
REMARK VINA RESULT: -6.934011036      2.054      2.493
REMARK  3 active torsions:
REMARK  status: ('A' for Active; 'I' for Inactive)
REMARK    1  A    between atoms: C2_2  and  C3_3 
REMARK    2  A    between atoms: C3_3  and  C4_4 
REMARK    3  A    between atoms: C4_4  and  C5_5 
ROOT
HETATM    1  C5  UNL     1      15.990  16.912  19.801  1.00  0.00     0.082 A 
HETATM    2  N1  UNL     1      14.958  16.739  20.636  1.00  0.00    -0.339 N 
ATOM      3  H1  UNL     1      14.006  16.503  20.357  1.00  0.00     0.167 HD
HETATM    4  C6  UNL     1      15.381  16.930  21.917  1.00  0.00     0.136 A 
HETATM    5  C7  UNL     1      14.772  16.882  23.145  1.00  0.00     0.289 A 
HETATM    6  O1  UNL     1      13.547  16.607  23.194  1.00  0.00    -0.264 OA
HETATM    7  N2  UNL     1      15.503  17.130  24.248  1.00  0.00    -0.262 N 
ATOM      8  H2  UNL     1      15.049  17.094  25.160  1.00  0.00     0.190 HD
HETATM    9  N3  UNL     1      16.789  17.418  24.184  1.00  0.00    -0.262 N 
ATOM     10  H3  UNL     1      17.306  17.599  25.045  1.00  0.00     0.190 HD
HETATM   11  C8  UNL     1      17.427  17.475  23.007  1.00  0.00     0.289 A 
HETATM   12  O2  UNL     1      18.655  17.745  22.889  1.00  0.00    -0.264 OA
HETATM   13  C9  UNL     1      16.718  17.228  21.848  1.00  0.00     0.136 A 
HETATM   14  N4  UNL     1      17.059  17.210  20.555  1.00  0.00    -0.339 N 
ATOM     15  H4  UNL     1      17.995  17.395  20.196  1.00  0.00     0.167 HD
ENDROOT
BRANCH   1  16
HETATM   16  C4  UNL     1      16.009  16.807  18.340  1.00  0.00     0.076 C 
BRANCH  16  17
HETATM   17  C3  UNL     1      16.699  18.002  17.679  1.00  0.00     0.007 C 
BRANCH  17  18
HETATM   18  C2  UNL     1      15.846  18.400  16.495  1.00  0.00    -0.004 C 
HETATM   19  C1  UNL     1      14.375  18.177  16.763  1.00  0.00     0.005 C 
ENDBRANCH  17  18
ENDBRANCH  16  17
ENDBRANCH   1  16
TORSDOF 3
ENDMDL
