MODEL 3
REMARK VINA RESULT: -8.168734019      2.089      6.658
REMARK  5 active torsions:
REMARK  status: ('A' for Active; 'I' for Inactive)
REMARK    1  A    between atoms: C4_9  and  C5_10 
REMARK    2  A    between atoms: C5_10  and  N3_11 
REMARK    3  A    between atoms: C7_13  and  O2_14 
REMARK    4  A    between atoms: C8_16  and  C9_17 
REMARK    5  A    between atoms: C9_17  and  O3_18 
ROOT
HETATM    1  O1  UNL     1      57.653  16.695  46.598  1.00  0.00    -0.266 OA
HETATM    2  C1  UNL     1      57.877  16.821  45.350  1.00  0.00     0.275 A 
HETATM    3  N1  UNL     1      58.985  17.498  44.940  1.00  0.00    -0.318 N 
ATOM      4  H1  UNL     1      59.625  17.898  45.626  1.00  0.00     0.169 HD
HETATM    5  C2  UNL     1      59.230  17.636  43.624  1.00  0.00     0.184 A 
HETATM    6  N2  UNL     1      58.410  17.122  42.699  1.00  0.00    -0.350 N 
ATOM      7  H2  UNL     1      58.623  17.244  41.709  1.00  0.00     0.166 HD
HETATM    8  C3  UNL     1      57.310  16.447  43.067  1.00  0.00     0.075 A 
HETATM    9  C4  UNL     1      56.276  15.803  42.377  1.00  0.00     0.015 A 
HETATM   10  C11 UNL     1      55.405  15.277  43.303  1.00  0.00     0.099 A 
HETATM   11  N4  UNL     1      55.859  15.569  44.531  1.00  0.00    -0.359 N 
ATOM     12  H4  UNL     1      55.414  15.303  45.410  1.00  0.00     0.165 HD
HETATM   13  C12 UNL     1      57.017  16.281  44.408  1.00  0.00     0.128 A 
ENDROOT
BRANCH   9  14
HETATM   14  C5  UNL     1      56.221  15.755  40.891  1.00  0.00     0.315 C 
BRANCH  14  15
HETATM   15  N3  UNL     1      55.105  16.486  40.387  1.00  0.00     0.095 N 
HETATM   16  C6  UNL     1      55.442  17.871  40.056  1.00  0.00     0.304 C 
HETATM   17  C7  UNL     1      54.176  18.289  39.308  1.00  0.00     0.154 C 
HETATM   18  C8  UNL     1      53.571  17.003  38.780  1.00  0.00     0.068 C 
HETATM   19  C10 UNL     1      54.670  16.006  39.068  1.00  0.00     0.282 C 
BRANCH  17  20
HETATM   20  O2  UNL     1      53.297  18.908  40.193  1.00  0.00    -0.393 OA
ATOM     21  H2  UNL     1      52.492  19.129  39.738  1.00  0.00     0.210 HD
ENDBRANCH  17  20
BRANCH  18  22
HETATM   22  C9  UNL     1      53.311  17.163  37.304  1.00  0.00     0.173 C 
BRANCH  22  23
HETATM   23  O3  UNL     1      51.974  17.151  36.988  1.00  0.00    -0.400 OA
ATOM     24  H3  UNL     1      51.776  17.627  36.190  1.00  0.00     0.209 HD
ENDBRANCH  22  23
ENDBRANCH  18  22
ENDBRANCH  14  15
ENDBRANCH   9  14
TORSDOF 5
ENDMDL
