MODEL 6
REMARK VINA RESULT: -8.000434778      2.210      6.152
REMARK  5 active torsions:
REMARK  status: ('A' for Active; 'I' for Inactive)
REMARK    1  A    between atoms: C4_9  and  C5_10 
REMARK    2  A    between atoms: C5_10  and  N3_11 
REMARK    3  A    between atoms: C7_13  and  O2_14 
REMARK    4  A    between atoms: C8_16  and  C9_17 
REMARK    5  A    between atoms: C9_17  and  O3_18 
ROOT
HETATM    1  O1  UNL     1      56.947  16.482  46.396  1.00  0.00    -0.266 OA
HETATM    2  C1  UNL     1      57.478  16.646  45.250  1.00  0.00     0.275 A 
HETATM    3  N1  UNL     1      58.589  17.426  45.139  1.00  0.00    -0.318 N 
ATOM      4  H1  UNL     1      58.988  17.870  45.966  1.00  0.00     0.169 HD
HETATM    5  C2  UNL     1      59.156  17.606  43.932  1.00  0.00     0.184 A 
HETATM    6  N2  UNL     1      58.658  17.036  42.829  1.00  0.00    -0.350 N 
ATOM      7  H2  UNL     1      59.111  17.192  41.929  1.00  0.00     0.166 HD
HETATM    8  C3  UNL     1      57.565  16.260  42.901  1.00  0.00     0.075 A 
HETATM    9  C4  UNL     1      56.811  15.537  41.969  1.00  0.00     0.015 A 
HETATM   10  C11 UNL     1      55.779  14.921  42.639  1.00  0.00     0.099 A 
HETATM   11  N4  UNL     1      55.867  15.233  43.941  1.00  0.00    -0.359 N 
ATOM     12  H4  UNL     1      55.232  14.915  44.674  1.00  0.00     0.165 HD
HETATM   13  C12 UNL     1      56.947  16.046  44.120  1.00  0.00     0.128 A 
ENDROOT
BRANCH   9  14
HETATM   14  C5  UNL     1      57.152  15.508  40.521  1.00  0.00     0.315 C 
BRANCH  14  15
HETATM   15  N3  UNL     1      56.215  16.257  39.750  1.00  0.00     0.095 N 
HETATM   16  C6  UNL     1      54.939  15.560  39.582  1.00  0.00     0.304 C 
HETATM   17  C7  UNL     1      54.090  16.683  38.987  1.00  0.00     0.154 C 
HETATM   18  C8  UNL     1      54.745  17.974  39.442  1.00  0.00     0.068 C 
HETATM   19  C10 UNL     1      55.756  17.467  40.445  1.00  0.00     0.282 C 
BRANCH  17  20
HETATM   20  O2  UNL     1      54.110  16.596  37.598  1.00  0.00    -0.393 OA
ATOM     21  H2  UNL     1      53.492  17.219  37.232  1.00  0.00     0.210 HD
ENDBRANCH  17  20
BRANCH  18  22
HETATM   22  C9  UNL     1      53.695  18.849  40.076  1.00  0.00     0.173 C 
BRANCH  22  23
HETATM   23  O3  UNL     1      54.022  20.184  40.054  1.00  0.00    -0.400 OA
ATOM     24  H3  UNL     1      53.577  20.664  39.366  1.00  0.00     0.209 HD
ENDBRANCH  22  23
ENDBRANCH  18  22
ENDBRANCH  14  15
ENDBRANCH   9  14
TORSDOF 5
ENDMDL
