MODEL 2
REMARK VINA RESULT: -8.538536688      1.846      6.448
REMARK  5 active torsions:
REMARK  status: ('A' for Active; 'I' for Inactive)
REMARK    1  A    between atoms: C4_9  and  C5_10 
REMARK    2  A    between atoms: C5_10  and  N3_11 
REMARK    3  A    between atoms: C7_13  and  O2_14 
REMARK    4  A    between atoms: C8_16  and  C9_17 
REMARK    5  A    between atoms: C9_17  and  O3_18 
ROOT
HETATM    1  O1  UNL     1      60.846  17.773  45.881  1.00  0.00    -0.266 OA
HETATM    2  C1  UNL     1      60.045  18.078  44.937  1.00  0.00     0.275 A 
HETATM    3  N1  UNL     1      60.478  18.898  43.940  1.00  0.00    -0.318 N 
ATOM      4  H1  UNL     1      61.431  19.260  43.951  1.00  0.00     0.169 HD
HETATM    5  C2  UNL     1      59.640  19.227  42.940  1.00  0.00     0.184 A 
HETATM    6  N2  UNL     1      58.384  18.767  42.896  1.00  0.00    -0.350 N 
ATOM      7  H2  UNL     1      57.773  19.035  42.124  1.00  0.00     0.166 HD
HETATM    8  C3  UNL     1      57.923  17.956  43.862  1.00  0.00     0.075 A 
HETATM    9  C4  UNL     1      56.702  17.319  44.109  1.00  0.00     0.015 A 
HETATM   10  C11 UNL     1      56.822  16.603  45.278  1.00  0.00     0.099 A 
HETATM   11  N4  UNL     1      58.064  16.771  45.758  1.00  0.00    -0.359 N 
ATOM     12  H4  UNL     1      58.433  16.355  46.613  1.00  0.00     0.165 HD
HETATM   13  C12 UNL     1      58.748  17.591  44.910  1.00  0.00     0.128 A 
ENDROOT
BRANCH   9  14
HETATM   14  C5  UNL     1      55.533  17.460  43.200  1.00  0.00     0.315 C 
BRANCH  14  15
HETATM   15  N3  UNL     1      55.861  17.076  41.866  1.00  0.00     0.095 N 
HETATM   16  C6  UNL     1      55.831  15.626  41.674  1.00  0.00     0.304 C 
HETATM   17  C7  UNL     1      55.938  15.550  40.151  1.00  0.00     0.154 C 
HETATM   18  C8  UNL     1      55.413  16.877  39.638  1.00  0.00     0.068 C 
HETATM   19  C10 UNL     1      54.835  17.485  40.897  1.00  0.00     0.282 C 
BRANCH  17  20
HETATM   20  O2  UNL     1      57.271  15.386  39.786  1.00  0.00    -0.393 OA
ATOM     21  H2  UNL     1      57.412  15.758  38.923  1.00  0.00     0.210 HD
ENDBRANCH  17  20
BRANCH  18  22
HETATM   22  C9  UNL     1      54.361  16.609  38.594  1.00  0.00     0.173 C 
BRANCH  22  23
HETATM   23  O3  UNL     1      53.813  15.353  38.693  1.00  0.00    -0.400 OA
ATOM     24  H3  UNL     1      53.997  14.930  39.523  1.00  0.00     0.209 HD
ENDBRANCH  22  23
ENDBRANCH  18  22
ENDBRANCH  14  15
ENDBRANCH   9  14
TORSDOF 5
ENDMDL
