MODEL 5
REMARK VINA RESULT: -8.034384641      2.400      2.812
REMARK  5 active torsions:
REMARK  status: ('A' for Active; 'I' for Inactive)
REMARK    1  A    between atoms: C4_9  and  C5_10 
REMARK    2  A    between atoms: C5_10  and  N3_11 
REMARK    3  A    between atoms: C7_13  and  O2_14 
REMARK    4  A    between atoms: C8_16  and  C9_17 
REMARK    5  A    between atoms: C9_17  and  O3_18 
ROOT
HETATM    1  O1  UNL     1      53.405  16.729  37.598  1.00  0.00    -0.266 OA
HETATM    2  C1  UNL     1      53.935  17.305  38.603  1.00  0.00     0.275 A 
HETATM    3  N1  UNL     1      53.402  18.474  39.055  1.00  0.00    -0.318 N 
ATOM      4  H1  UNL     1      52.588  18.879  38.592  1.00  0.00     0.169 HD
HETATM    5  C2  UNL     1      53.955  19.090  40.115  1.00  0.00     0.184 A 
HETATM    6  N2  UNL     1      55.022  18.584  40.745  1.00  0.00    -0.350 N 
ATOM      7  H2  UNL     1      55.418  19.075  41.546  1.00  0.00     0.166 HD
HETATM    8  C3  UNL     1      55.573  17.433  40.328  1.00  0.00     0.075 A 
HETATM    9  C4  UNL     1      56.658  16.655  40.749  1.00  0.00     0.015 A 
HETATM   10  C11 UNL     1      56.747  15.560  39.919  1.00  0.00     0.099 A 
HETATM   11  N4  UNL     1      55.763  15.632  39.009  1.00  0.00    -0.359 N 
ATOM     12  H4  UNL     1      55.587  14.953  38.268  1.00  0.00     0.165 HD
HETATM   13  C12 UNL     1      55.039  16.764  39.242  1.00  0.00     0.128 A 
ENDROOT
BRANCH   9  14
HETATM   14  C5  UNL     1      57.509  17.037  41.907  1.00  0.00     0.315 C 
BRANCH  14  15
HETATM   15  N3  UNL     1      56.884  16.703  43.145  1.00  0.00     0.095 N 
HETATM   16  C6  UNL     1      57.005  15.282  43.471  1.00  0.00     0.304 C 
HETATM   17  C7  UNL     1      56.514  15.291  44.919  1.00  0.00     0.154 C 
HETATM   18  C8  UNL     1      56.755  16.701  45.423  1.00  0.00     0.068 C 
HETATM   19  C10 UNL     1      57.578  17.291  44.299  1.00  0.00     0.282 C 
BRANCH  17  20
HETATM   20  O2  UNL     1      55.154  14.994  44.950  1.00  0.00    -0.393 OA
ATOM     21  H2  UNL     1      54.867  14.917  45.853  1.00  0.00     0.210 HD
ENDBRANCH  17  20
BRANCH  18  22
HETATM   22  C9  UNL     1      57.521  16.625  46.718  1.00  0.00     0.173 C 
BRANCH  22  23
HETATM   23  O3  UNL     1      57.384  15.415  47.355  1.00  0.00    -0.400 OA
ATOM     24  H3  UNL     1      57.311  14.684  46.753  1.00  0.00     0.209 HD
ENDBRANCH  22  23
ENDBRANCH  18  22
ENDBRANCH  14  15
ENDBRANCH   9  14
TORSDOF 5
ENDMDL
