MODEL 7
REMARK VINA RESULT: -7.486627723      1.837      2.309
REMARK  5 active torsions:
REMARK  status: ('A' for Active; 'I' for Inactive)
REMARK    1  A    between atoms: C4_9  and  C5_10 
REMARK    2  A    between atoms: C5_10  and  N3_11 
REMARK    3  A    between atoms: C7_13  and  O2_14 
REMARK    4  A    between atoms: C8_16  and  C9_17 
REMARK    5  A    between atoms: C9_17  and  O3_18 
ROOT
HETATM    1  O1  UNL     1      53.435  15.703  38.296  1.00  0.00    -0.266 OA
HETATM    2  C1  UNL     1      53.918  16.689  38.943  1.00  0.00     0.275 A 
HETATM    3  N1  UNL     1      53.243  17.871  38.952  1.00  0.00    -0.318 N 
ATOM      4  H1  UNL     1      52.363  17.963  38.446  1.00  0.00     0.169 HD
HETATM    5  C2  UNL     1      53.745  18.918  39.633  1.00  0.00     0.184 A 
HETATM    6  N2  UNL     1      54.897  18.830  40.308  1.00  0.00    -0.350 N 
ATOM      7  H2  UNL     1      55.251  19.641  40.814  1.00  0.00     0.166 HD
HETATM    8  C3  UNL     1      55.589  17.679  40.323  1.00  0.00     0.075 A 
HETATM    9  C4  UNL     1      56.789  17.262  40.910  1.00  0.00     0.015 A 
HETATM   10  C11 UNL     1      56.998  15.946  40.568  1.00  0.00     0.099 A 
HETATM   11  N4  UNL     1      55.980  15.536  39.798  1.00  0.00    -0.359 N 
ATOM     12  H4  UNL     1      55.872  14.603  39.399  1.00  0.00     0.165 HD
HETATM   13  C12 UNL     1      55.112  16.577  39.637  1.00  0.00     0.128 A 
ENDROOT
BRANCH   9  14
HETATM   14  C5  UNL     1      57.622  18.169  41.745  1.00  0.00     0.315 C 
BRANCH  14  15
HETATM   15  N3  UNL     1      57.972  17.560  42.986  1.00  0.00     0.095 N 
HETATM   16  C6  UNL     1      58.120  18.533  44.069  1.00  0.00     0.304 C 
HETATM   17  C7  UNL     1      58.208  17.593  45.271  1.00  0.00     0.154 C 
HETATM   18  C8  UNL     1      57.513  16.315  44.842  1.00  0.00     0.068 C 
HETATM   19  C10 UNL     1      56.886  16.733  43.530  1.00  0.00     0.282 C 
BRANCH  17  20
HETATM   20  O2  UNL     1      59.545  17.338  45.565  1.00  0.00    -0.393 OA
ATOM     21  H2  UNL     1      59.727  17.596  46.462  1.00  0.00     0.210 HD
ENDBRANCH  17  20
BRANCH  18  22
HETATM   22  C9  UNL     1      56.484  15.954  45.882  1.00  0.00     0.173 C 
BRANCH  22  23
HETATM   23  O3  UNL     1      57.039  15.532  47.065  1.00  0.00    -0.400 OA
ATOM     24  H3  UNL     1      56.393  15.363  47.740  1.00  0.00     0.209 HD
ENDBRANCH  22  23
ENDBRANCH  18  22
ENDBRANCH  14  15
ENDBRANCH   9  14
TORSDOF 5
ENDMDL
