MODEL 4
REMARK VINA RESULT: -8.118566928      2.243      2.978
REMARK  5 active torsions:
REMARK  status: ('A' for Active; 'I' for Inactive)
REMARK    1  A    between atoms: C4_9  and  C5_10 
REMARK    2  A    between atoms: C5_10  and  N3_11 
REMARK    3  A    between atoms: C7_13  and  O2_14 
REMARK    4  A    between atoms: C8_16  and  C9_17 
REMARK    5  A    between atoms: C9_17  and  O3_18 
ROOT
HETATM    1  O1  UNL     1      53.447  16.073  37.981  1.00  0.00    -0.266 OA
HETATM    2  C1  UNL     1      53.974  16.904  38.791  1.00  0.00     0.275 A 
HETATM    3  N1  UNL     1      53.380  18.114  38.981  1.00  0.00    -0.318 N 
ATOM      4  H1  UNL     1      52.524  18.349  38.480  1.00  0.00     0.169 HD
HETATM    5  C2  UNL     1      53.930  18.997  39.834  1.00  0.00     0.184 A 
HETATM    6  N2  UNL     1      55.052  18.718  40.508  1.00  0.00    -0.350 N 
ATOM      7  H2  UNL     1      55.444  19.409  41.147  1.00  0.00     0.166 HD
HETATM    8  C3  UNL     1      55.665  17.534  40.347  1.00  0.00     0.075 A 
HETATM    9  C4  UNL     1      56.815  16.943  40.881  1.00  0.00     0.015 A 
HETATM   10  C11 UNL     1      56.946  15.689  40.331  1.00  0.00     0.099 A 
HETATM   11  N4  UNL     1      55.927  15.483  39.484  1.00  0.00    -0.359 N 
ATOM     12  H4  UNL     1      55.769  14.638  38.935  1.00  0.00     0.165 HD
HETATM   13  C12 UNL     1      55.136  16.595  39.479  1.00  0.00     0.128 A 
ENDROOT
BRANCH   9  14
HETATM   14  C5  UNL     1      57.682  17.640  41.869  1.00  0.00     0.315 C 
BRANCH  14  15
HETATM   15  N3  UNL     1      57.557  17.066  43.168  1.00  0.00     0.095 N 
HETATM   16  C6  UNL     1      57.028  18.011  44.153  1.00  0.00     0.304 C 
HETATM   17  C7  UNL     1      56.752  17.063  45.320  1.00  0.00     0.154 C 
HETATM   18  C8  UNL     1      56.569  15.692  44.699  1.00  0.00     0.068 C 
HETATM   19  C10 UNL     1      56.517  16.028  43.225  1.00  0.00     0.282 C 
BRANCH  17  20
HETATM   20  O2  UNL     1      57.845  17.058  46.183  1.00  0.00    -0.393 OA
ATOM     21  H2  UNL     1      58.192  16.176  46.251  1.00  0.00     0.210 HD
ENDBRANCH  17  20
BRANCH  18  22
HETATM   22  C9  UNL     1      55.275  15.105  45.199  1.00  0.00     0.173 C 
BRANCH  22  23
HETATM   23  O3  UNL     1      54.712  14.212  44.319  1.00  0.00    -0.400 OA
ATOM     24  H3  UNL     1      55.037  14.309  43.432  1.00  0.00     0.209 HD
ENDBRANCH  22  23
ENDBRANCH  18  22
ENDBRANCH  14  15
ENDBRANCH   9  14
TORSDOF 5
ENDMDL
