MODEL 3
REMARK VINA RESULT: -9.256026182      1.026      1.311
REMARK  5 active torsions:
REMARK  status: ('A' for Active; 'I' for Inactive)
REMARK    1  A    between atoms: C4_4  and  N1_5 
REMARK    2  A    between atoms: C11_18  and  O3_19 
REMARK    3  A    between atoms: O3_19  and  C12_20 
REMARK    4  A    between atoms: C15_23  and  O4_24 
REMARK    5  A    between atoms: C16_26  and  C17_27 
ROOT
HETATM    1  C1  UNL     1      22.097   7.879   4.378  1.00  0.00     0.051 C 
HETATM    2  C2  UNL     1      20.955   7.051   3.965  1.00  0.00    -0.025 A 
HETATM    3  C3  UNL     1      20.574   6.048   4.858  1.00  0.00     0.041 A 
HETATM    4  C4  UNL     1      19.496   5.197   4.593  1.00  0.00     0.062 A 
HETATM    5  C8  UNL     1      18.830   5.392   3.424  1.00  0.00     0.041 A 
HETATM    6  C9  UNL     1      19.221   6.398   2.543  1.00  0.00    -0.025 A 
HETATM    7  C10 UNL     1      18.481   6.545   1.281  1.00  0.00     0.051 C 
HETATM    8  C11 UNL     1      20.302   7.263   2.783  1.00  0.00     0.088 A 
ENDROOT
BRANCH   8   9
HETATM    9  O3  UNL     1      20.690   8.251   1.914  1.00  0.00    -0.310 OA
BRANCH   9  10
HETATM   10  C12 UNL     1      21.637   8.389   0.978  1.00  0.00     0.077 A 
HETATM   11  C13 UNL     1      22.032   7.315   0.209  1.00  0.00     0.040 A 
HETATM   12  C14 UNL     1      23.018   7.441  -0.754  1.00  0.00     0.040 A 
HETATM   13  C15 UNL     1      23.625   8.649  -0.967  1.00  0.00     0.076 A 
HETATM   14  C16 UNL     1      23.274   9.772  -0.228  1.00  0.00     0.001 A 
HETATM   15  C20 UNL     1      22.273   9.605   0.735  1.00  0.00     0.051 A 
BRANCH  13  16
HETATM   16  O4  UNL     1      24.602   8.782  -1.928  1.00  0.00    -0.360 OA
ATOM     17  H4  UNL     1      25.391   9.281  -1.750  1.00  0.00     0.217 HD
ENDBRANCH  13  16
BRANCH  14  18
HETATM   18  C17 UNL     1      24.075  10.999  -0.365  1.00  0.00    -0.075 C 
HETATM   19  C18 UNL     1      25.278  11.082   0.503  1.00  0.00     0.044 C 
HETATM   20  C19 UNL     1      23.319  12.260  -0.631  1.00  0.00     0.044 C 
ENDBRANCH  14  18
ENDBRANCH   9  10
ENDBRANCH   8   9
BRANCH   4  21
HETATM   21  N1  UNL     1      19.224   4.206   5.546  1.00  0.00    -0.206 N 
HETATM   22  N2  UNL     1      18.092   4.333   6.271  1.00  0.00    -0.296 N 
HETATM   23  C5  UNL     1      17.704   3.500   7.223  1.00  0.00     0.182 A 
ATOM     24  H2  UNL     1      17.491   5.132   6.069  1.00  0.00     0.187 HD
HETATM   25  C6  UNL     1      18.540   2.429   7.472  1.00  0.00     0.266 A 
HETATM   26  O1  UNL     1      18.249   1.601   8.354  1.00  0.00    -0.267 OA
HETATM   27  N3  UNL     1      19.698   2.283   6.736  1.00  0.00    -0.273 N 
HETATM   28  C7  UNL     1      20.035   3.167   5.782  1.00  0.00     0.348 A 
ATOM     29  H3  UNL     1      20.310   1.488   6.919  1.00  0.00     0.173 HD
HETATM   30  O2  UNL     1      21.121   2.964   5.149  1.00  0.00    -0.245 OA
ENDBRANCH   4  21
TORSDOF 5
ENDMDL
