MODEL 14
REMARK VINA RESULT: -7.852100521      3.507      9.006
REMARK  5 active torsions:
REMARK  status: ('A' for Active; 'I' for Inactive)
REMARK    1  A    between atoms: C4_4  and  N1_5 
REMARK    2  A    between atoms: C11_18  and  O3_19 
REMARK    3  A    between atoms: O3_19  and  C12_20 
REMARK    4  A    between atoms: C15_23  and  O4_24 
REMARK    5  A    between atoms: C16_26  and  C17_27 
ROOT
HETATM    1  C1  UNL     1      22.765   8.293   5.006  1.00  0.00     0.051 C 
HETATM    2  C2  UNL     1      22.365   8.025   3.617  1.00  0.00    -0.025 A 
HETATM    3  C3  UNL     1      22.741   8.989   2.679  1.00  0.00     0.041 A 
HETATM    4  C4  UNL     1      22.434   8.852   1.321  1.00  0.00     0.062 A 
HETATM    5  C8  UNL     1      21.755   7.734   0.952  1.00  0.00     0.041 A 
HETATM    6  C9  UNL     1      21.388   6.780   1.900  1.00  0.00    -0.025 A 
HETATM    7  C10 UNL     1      20.630   5.604   1.447  1.00  0.00     0.051 C 
HETATM    8  C11 UNL     1      21.680   6.895   3.269  1.00  0.00     0.088 A 
ENDROOT
BRANCH   8   9
HETATM    9  O3  UNL     1      21.316   5.959   4.204  1.00  0.00    -0.310 OA
BRANCH   9  10
HETATM   10  C12 UNL     1      20.165   5.417   4.621  1.00  0.00     0.077 A 
HETATM   11  C13 UNL     1      18.983   6.120   4.545  1.00  0.00     0.040 A 
HETATM   12  C14 UNL     1      17.789   5.576   4.983  1.00  0.00     0.040 A 
HETATM   13  C15 UNL     1      17.758   4.312   5.506  1.00  0.00     0.076 A 
HETATM   14  C16 UNL     1      18.913   3.547   5.612  1.00  0.00     0.001 A 
HETATM   15  C20 UNL     1      20.100   4.132   5.157  1.00  0.00     0.051 A 
BRANCH  13  16
HETATM   16  O4  UNL     1      16.572   3.761   5.939  1.00  0.00    -0.360 OA
ATOM     17  H4  UNL     1      16.055   3.211   5.362  1.00  0.00     0.217 HD
ENDBRANCH  13  16
BRANCH  14  18
HETATM   18  C17 UNL     1      18.862   2.270   6.343  1.00  0.00    -0.075 C 
HETATM   19  C18 UNL     1      18.927   2.374   7.824  1.00  0.00     0.044 C 
HETATM   20  C19 UNL     1      19.541   1.106   5.696  1.00  0.00     0.044 C 
ENDBRANCH  14  18
ENDBRANCH   9  10
ENDBRANCH   8   9
BRANCH   4  21
HETATM   21  N1  UNL     1      22.832   9.896   0.475  1.00  0.00    -0.206 N 
HETATM   22  N2  UNL     1      24.022   9.771  -0.150  1.00  0.00    -0.296 N 
HETATM   23  C5  UNL     1      24.552  10.675  -0.960  1.00  0.00     0.182 A 
ATOM     24  H2  UNL     1      24.553   8.916   0.014  1.00  0.00     0.187 HD
HETATM   25  C6  UNL     1      23.809  11.821  -1.160  1.00  0.00     0.266 A 
HETATM   26  O1  UNL     1      24.237  12.721  -1.905  1.00  0.00    -0.267 OA
HETATM   27  N3  UNL     1      22.588  11.961  -0.532  1.00  0.00    -0.273 N 
HETATM   28  C7  UNL     1      22.107  11.004   0.279  1.00  0.00     0.348 A 
ATOM     29  H3  UNL     1      22.040  12.807  -0.688  1.00  0.00     0.173 HD
HETATM   30  O2  UNL     1      20.974  11.210   0.824  1.00  0.00    -0.245 OA
ENDBRANCH   4  21
TORSDOF 5
ENDMDL
