MODEL 12
REMARK VINA RESULT: -8.170433496      3.521      9.145
REMARK  5 active torsions:
REMARK  status: ('A' for Active; 'I' for Inactive)
REMARK    1  A    between atoms: C4_4  and  N1_5 
REMARK    2  A    between atoms: C11_18  and  O3_19 
REMARK    3  A    between atoms: O3_19  and  C12_20 
REMARK    4  A    between atoms: C15_23  and  O4_24 
REMARK    5  A    between atoms: C16_26  and  C17_27 
ROOT
HETATM    1  C1  UNL     1      20.898   5.710   1.262  1.00  0.00     0.051 C 
HETATM    2  C2  UNL     1      21.541   6.854   1.925  1.00  0.00    -0.025 A 
HETATM    3  C3  UNL     1      21.919   7.908   1.092  1.00  0.00     0.041 A 
HETATM    4  C4  UNL     1      22.530   9.062   1.595  1.00  0.00     0.062 A 
HETATM    5  C8  UNL     1      22.737   9.114   2.937  1.00  0.00     0.041 A 
HETATM    6  C9  UNL     1      22.353   8.054   3.757  1.00  0.00    -0.025 A 
HETATM    7  C10 UNL     1      22.628   8.154   5.198  1.00  0.00     0.051 C 
HETATM    8  C11 UNL     1      21.742   6.883   3.277  1.00  0.00     0.088 A 
ENDROOT
BRANCH   8   9
HETATM    9  O3  UNL     1      21.368   5.838   4.083  1.00  0.00    -0.310 OA
BRANCH   9  10
HETATM   10  C12 UNL     1      20.212   5.356   4.556  1.00  0.00     0.077 A 
HETATM   11  C13 UNL     1      19.061   6.112   4.513  1.00  0.00     0.040 A 
HETATM   12  C14 UNL     1      17.862   5.631   5.009  1.00  0.00     0.040 A 
HETATM   13  C15 UNL     1      17.795   4.379   5.557  1.00  0.00     0.076 A 
HETATM   14  C16 UNL     1      18.918   3.564   5.632  1.00  0.00     0.001 A 
HETATM   15  C20 UNL     1      20.110   4.086   5.119  1.00  0.00     0.051 A 
BRANCH  13  16
HETATM   16  O4  UNL     1      16.604   3.892   6.047  1.00  0.00    -0.360 OA
ATOM     17  H4  UNL     1      16.247   3.074   5.723  1.00  0.00     0.217 HD
ENDBRANCH  13  16
BRANCH  14  18
HETATM   18  C17 UNL     1      18.839   2.304   6.389  1.00  0.00    -0.075 C 
HETATM   19  C18 UNL     1      18.842   2.442   7.869  1.00  0.00     0.044 C 
HETATM   20  C19 UNL     1      19.546   1.128   5.797  1.00  0.00     0.044 C 
ENDBRANCH  14  18
ENDBRANCH   9  10
ENDBRANCH   8   9
BRANCH   4  21
HETATM   21  N1  UNL     1      22.894  10.042   0.662  1.00  0.00    -0.206 N 
HETATM   22  N2  UNL     1      24.106   9.926   0.078  1.00  0.00    -0.296 N 
HETATM   23  C5  UNL     1      24.608  10.778  -0.803  1.00  0.00     0.182 A 
ATOM     24  H2  UNL     1      24.678   9.121   0.335  1.00  0.00     0.187 HD
HETATM   25  C6  UNL     1      23.809  11.857  -1.128  1.00  0.00     0.266 A 
HETATM   26  O1  UNL     1      24.209  12.706  -1.945  1.00  0.00    -0.267 OA
HETATM   27  N3  UNL     1      22.567  11.986  -0.543  1.00  0.00    -0.273 N 
HETATM   28  C7  UNL     1      22.116  11.084   0.345  1.00  0.00     0.348 A 
ATOM     29  H3  UNL     1      21.978  12.781  -0.790  1.00  0.00     0.173 HD
HETATM   30  O2  UNL     1      20.959  11.276   0.843  1.00  0.00    -0.245 OA
ENDBRANCH   4  21
TORSDOF 5
ENDMDL
