MODEL 4
REMARK VINA RESULT: -8.959935984      1.222      2.429
REMARK  5 active torsions:
REMARK  status: ('A' for Active; 'I' for Inactive)
REMARK    1  A    between atoms: C4_4  and  N1_5 
REMARK    2  A    between atoms: C11_18  and  O3_19 
REMARK    3  A    between atoms: O3_19  and  C12_20 
REMARK    4  A    between atoms: C15_23  and  O4_24 
REMARK    5  A    between atoms: C16_26  and  C17_27 
ROOT
HETATM    1  C1  UNL     1      18.393   6.096   0.731  1.00  0.00     0.051 C 
HETATM    2  C2  UNL     1      19.095   6.382   1.991  1.00  0.00    -0.025 A 
HETATM    3  C3  UNL     1      18.959   5.421   2.995  1.00  0.00     0.041 A 
HETATM    4  C4  UNL     1      19.584   5.564   4.238  1.00  0.00     0.062 A 
HETATM    5  C8  UNL     1      20.336   6.681   4.426  1.00  0.00     0.041 A 
HETATM    6  C9  UNL     1      20.462   7.631   3.414  1.00  0.00    -0.025 A 
HETATM    7  C10 UNL     1      21.265   8.833   3.683  1.00  0.00     0.051 C 
HETATM    8  C11 UNL     1      19.842   7.514   2.158  1.00  0.00     0.088 A 
ENDROOT
BRANCH   8   9
HETATM    9  O3  UNL     1      19.963   8.450   1.163  1.00  0.00    -0.310 OA
BRANCH   9  10
HETATM   10  C12 UNL     1      20.881   9.355   0.801  1.00  0.00     0.077 A 
HETATM   11  C13 UNL     1      20.610  10.704   0.869  1.00  0.00     0.040 A 
HETATM   12  C14 UNL     1      21.546  11.649   0.488  1.00  0.00     0.040 A 
HETATM   13  C15 UNL     1      22.775  11.257   0.032  1.00  0.00     0.076 A 
HETATM   14  C16 UNL     1      23.115   9.913  -0.061  1.00  0.00     0.001 A 
HETATM   15  C20 UNL     1      22.142   8.989   0.335  1.00  0.00     0.051 A 
BRANCH  13  16
HETATM   16  O4  UNL     1      23.714  12.192  -0.343  1.00  0.00    -0.360 OA
ATOM     17  H4  UNL     1      23.557  13.118  -0.203  1.00  0.00     0.217 HD
ENDBRANCH  13  16
BRANCH  14  18
HETATM   18  C17 UNL     1      24.375   9.537  -0.724  1.00  0.00    -0.075 C 
HETATM   19  C18 UNL     1      24.404   8.178  -1.324  1.00  0.00     0.044 C 
HETATM   20  C19 UNL     1      25.632  10.051  -0.101  1.00  0.00     0.044 C 
ENDBRANCH  14  18
ENDBRANCH   9  10
ENDBRANCH   8   9
BRANCH   4  21
HETATM   21  N1  UNL     1      19.353   4.553   5.181  1.00  0.00    -0.206 N 
HETATM   22  N2  UNL     1      20.287   3.586   5.299  1.00  0.00    -0.296 N 
HETATM   23  C5  UNL     1      20.208   2.552   6.122  1.00  0.00     0.182 A 
ATOM     24  H2  UNL     1      21.116   3.657   4.709  1.00  0.00     0.187 HD
HETATM   25  C6  UNL     1      19.073   2.484   6.906  1.00  0.00     0.266 A 
HETATM   26  O1  UNL     1      18.920   1.542   7.704  1.00  0.00    -0.267 OA
HETATM   27  N3  UNL     1      18.113   3.469   6.801  1.00  0.00    -0.273 N 
HETATM   28  C7  UNL     1      18.254   4.494   5.943  1.00  0.00     0.348 A 
ATOM     29  H3  UNL     1      17.278   3.418   7.386  1.00  0.00     0.173 HD
HETATM   30  O2  UNL     1      17.321   5.360   5.903  1.00  0.00    -0.245 OA
ENDBRANCH   4  21
TORSDOF 5
ENDMDL
