MODEL 5
REMARK VINA RESULT: -8.858932499      1.280      1.805
REMARK  5 active torsions:
REMARK  status: ('A' for Active; 'I' for Inactive)
REMARK    1  A    between atoms: C4_4  and  N1_5 
REMARK    2  A    between atoms: C11_18  and  O3_19 
REMARK    3  A    between atoms: O3_19  and  C12_20 
REMARK    4  A    between atoms: C15_23  and  O4_24 
REMARK    5  A    between atoms: C16_26  and  C17_27 
ROOT
HETATM    1  C1  UNL     1      22.408   6.586   2.671  1.00  0.00     0.051 C 
HETATM    2  C2  UNL     1      20.985   6.239   2.802  1.00  0.00    -0.025 A 
HETATM    3  C3  UNL     1      20.650   5.447   3.901  1.00  0.00     0.041 A 
HETATM    4  C4  UNL     1      19.331   5.054   4.150  1.00  0.00     0.062 A 
HETATM    5  C8  UNL     1      18.384   5.483   3.274  1.00  0.00     0.041 A 
HETATM    6  C9  UNL     1      18.734   6.275   2.182  1.00  0.00    -0.025 A 
HETATM    7  C10 UNL     1      17.672   6.686   1.251  1.00  0.00     0.051 C 
HETATM    8  C11 UNL     1      20.051   6.679   1.906  1.00  0.00     0.088 A 
ENDROOT
BRANCH   8   9
HETATM    9  O3  UNL     1      20.397   7.455   0.829  1.00  0.00    -0.310 OA
BRANCH   9  10
HETATM   10  C12 UNL     1      21.123   8.564   0.638  1.00  0.00     0.077 A 
HETATM   11  C13 UNL     1      20.624   9.802   0.978  1.00  0.00     0.040 A 
HETATM   12  C14 UNL     1      21.360  10.957   0.775  1.00  0.00     0.040 A 
HETATM   13  C15 UNL     1      22.612  10.890   0.228  1.00  0.00     0.076 A 
HETATM   14  C16 UNL     1      23.176   9.674  -0.136  1.00  0.00     0.001 A 
HETATM   15  C20 UNL     1      22.402   8.529   0.086  1.00  0.00     0.051 A 
BRANCH  13  16
HETATM   16  O4  UNL     1      23.352  12.035   0.029  1.00  0.00    -0.360 OA
ATOM     17  H4  UNL     1      23.388  12.445  -0.827  1.00  0.00     0.217 HD
ENDBRANCH  13  16
BRANCH  14  18
HETATM   18  C17 UNL     1      24.445   9.667  -0.883  1.00  0.00    -0.075 C 
HETATM   19  C18 UNL     1      24.731   8.428  -1.652  1.00  0.00     0.044 C 
HETATM   20  C19 UNL     1      25.596  10.371  -0.243  1.00  0.00     0.044 C 
ENDBRANCH  14  18
ENDBRANCH   9  10
ENDBRANCH   8   9
BRANCH   4  21
HETATM   21  N1  UNL     1      19.115   4.232   5.265  1.00  0.00    -0.206 N 
HETATM   22  N2  UNL     1      20.013   3.252   5.499  1.00  0.00    -0.296 N 
HETATM   23  C5  UNL     1      19.941   2.379   6.492  1.00  0.00     0.182 A 
ATOM     24  H2  UNL     1      20.806   3.178   4.862  1.00  0.00     0.187 HD
HETATM   25  C6  UNL     1      18.855   2.506   7.335  1.00  0.00     0.266 A 
HETATM   26  O1  UNL     1      18.711   1.723   8.291  1.00  0.00    -0.267 OA
HETATM   27  N3  UNL     1      17.932   3.507   7.112  1.00  0.00    -0.273 N 
HETATM   28  C7  UNL     1      18.064   4.361   6.083  1.00  0.00     0.348 A 
ATOM     29  H3  UNL     1      17.134   3.600   7.740  1.00  0.00     0.173 HD
HETATM   30  O2  UNL     1      17.167   5.255   5.943  1.00  0.00    -0.245 OA
ENDBRANCH   4  21
TORSDOF 5
ENDMDL
