MODEL 16
REMARK VINA RESULT: -7.717278123      3.403      9.099
REMARK  5 active torsions:
REMARK  status: ('A' for Active; 'I' for Inactive)
REMARK    1  A    between atoms: C4_4  and  N1_5 
REMARK    2  A    between atoms: C11_18  and  O3_19 
REMARK    3  A    between atoms: O3_19  and  C12_20 
REMARK    4  A    between atoms: C15_23  and  O4_24 
REMARK    5  A    between atoms: C16_26  and  C17_27 
ROOT
HETATM    1  C1  UNL     1      22.663   8.133   4.971  1.00  0.00     0.051 C 
HETATM    2  C2  UNL     1      22.233   7.862   3.591  1.00  0.00    -0.025 A 
HETATM    3  C3  UNL     1      22.550   8.844   2.651  1.00  0.00     0.041 A 
HETATM    4  C4  UNL     1      22.209   8.706   1.301  1.00  0.00     0.062 A 
HETATM    5  C8  UNL     1      21.557   7.568   0.942  1.00  0.00     0.041 A 
HETATM    6  C9  UNL     1      21.249   6.597   1.893  1.00  0.00    -0.025 A 
HETATM    7  C10 UNL     1      20.518   5.399   1.452  1.00  0.00     0.051 C 
HETATM    8  C11 UNL     1      21.576   6.712   3.255  1.00  0.00     0.088 A 
ENDROOT
BRANCH   8   9
HETATM    9  O3  UNL     1      21.269   5.758   4.191  1.00  0.00    -0.310 OA
BRANCH   9  10
HETATM   10  C12 UNL     1      20.145   5.219   4.681  1.00  0.00     0.077 A 
HETATM   11  C13 UNL     1      18.965   5.930   4.687  1.00  0.00     0.040 A 
HETATM   12  C14 UNL     1      17.799   5.389   5.200  1.00  0.00     0.040 A 
HETATM   13  C15 UNL     1      17.795   4.122   5.716  1.00  0.00     0.076 A 
HETATM   14  C16 UNL     1      18.950   3.350   5.741  1.00  0.00     0.001 A 
HETATM   15  C20 UNL     1      20.108   3.932   5.212  1.00  0.00     0.051 A 
BRANCH  13  16
HETATM   16  O4  UNL     1      16.637   3.575   6.223  1.00  0.00    -0.360 OA
ATOM     17  H4  UNL     1      16.397   2.679   6.021  1.00  0.00     0.217 HD
ENDBRANCH  13  16
BRANCH  14  18
HETATM   18  C17 UNL     1      18.940   2.069   6.466  1.00  0.00    -0.075 C 
HETATM   19  C18 UNL     1      19.180   2.157   7.930  1.00  0.00     0.044 C 
HETATM   20  C19 UNL     1      19.498   0.889   5.737  1.00  0.00     0.044 C 
ENDBRANCH  14  18
ENDBRANCH   9  10
ENDBRANCH   8   9
BRANCH   4  21
HETATM   21  N1  UNL     1      22.549   9.768   0.452  1.00  0.00    -0.206 N 
HETATM   22  N2  UNL     1      21.781  10.877   0.503  1.00  0.00    -0.296 N 
HETATM   23  C5  UNL     1      21.953  11.954  -0.248  1.00  0.00     0.182 A 
ATOM     24  H2  UNL     1      21.010  10.886   1.171  1.00  0.00     0.187 HD
HETATM   25  C6  UNL     1      23.005  11.910  -1.141  1.00  0.00     0.266 A 
HETATM   26  O1  UNL     1      23.233  12.881  -1.886  1.00  0.00    -0.267 OA
HETATM   27  N3  UNL     1      23.802  10.785  -1.202  1.00  0.00    -0.273 N 
HETATM   28  C7  UNL     1      23.572   9.724  -0.411  1.00  0.00     0.348 A 
ATOM     29  H3  UNL     1      24.581  10.759  -1.860  1.00  0.00     0.173 HD
HETATM   30  O2  UNL     1      24.351   8.723  -0.529  1.00  0.00    -0.245 OA
ENDBRANCH   4  21
TORSDOF 5
ENDMDL
