MODEL 2
REMARK VINA RESULT: -10.396437567      0.457      1.664
REMARK  5 active torsions:
REMARK  status: ('A' for Active; 'I' for Inactive)
REMARK    1  A    between atoms: C4_4  and  N1_5 
REMARK    2  A    between atoms: C11_18  and  O3_19 
REMARK    3  A    between atoms: O3_19  and  C12_20 
REMARK    4  A    between atoms: C15_23  and  O4_24 
REMARK    5  A    between atoms: C16_26  and  C17_27 
ROOT
HETATM    1  C1  UNL     1      18.735   5.968   1.078  1.00  0.00     0.051 C 
HETATM    2  C2  UNL     1      19.391   6.192   2.375  1.00  0.00    -0.025 A 
HETATM    3  C3  UNL     1      19.099   5.262   3.374  1.00  0.00     0.041 A 
HETATM    4  C4  UNL     1      19.664   5.352   4.650  1.00  0.00     0.062 A 
HETATM    5  C8  UNL     1      20.518   6.386   4.876  1.00  0.00     0.041 A 
HETATM    6  C9  UNL     1      20.800   7.306   3.867  1.00  0.00    -0.025 A 
HETATM    7  C10 UNL     1      21.709   8.420   4.176  1.00  0.00     0.051 C 
HETATM    8  C11 UNL     1      20.243   7.241   2.579  1.00  0.00     0.088 A 
ENDROOT
BRANCH   8   9
HETATM    9  O3  UNL     1      20.517   8.148   1.588  1.00  0.00    -0.310 OA
BRANCH   9  10
HETATM   10  C12 UNL     1      21.520   8.354   0.725  1.00  0.00     0.077 A 
HETATM   11  C13 UNL     1      22.127   7.297   0.082  1.00  0.00     0.040 A 
HETATM   12  C14 UNL     1      23.172   7.494  -0.803  1.00  0.00     0.040 A 
HETATM   13  C15 UNL     1      23.627   8.758  -1.063  1.00  0.00     0.076 A 
HETATM   14  C16 UNL     1      23.060   9.868  -0.450  1.00  0.00     0.001 A 
HETATM   15  C20 UNL     1      22.005   9.628   0.437  1.00  0.00     0.051 A 
BRANCH  13  16
HETATM   16  O4  UNL     1      24.663   8.962  -1.948  1.00  0.00    -0.360 OA
ATOM     17  H4  UNL     1      24.628   8.600  -2.825  1.00  0.00     0.217 HD
ENDBRANCH  13  16
BRANCH  14  18
HETATM   18  C17 UNL     1      23.697  11.185  -0.621  1.00  0.00    -0.075 C 
HETATM   19  C18 UNL     1      24.895  11.433   0.223  1.00  0.00     0.044 C 
HETATM   20  C19 UNL     1      22.783  12.336  -0.889  1.00  0.00     0.044 C 
ENDBRANCH  14  18
ENDBRANCH   9  10
ENDBRANCH   8   9
BRANCH   4  21
HETATM   21  N1  UNL     1      19.275   4.381   5.584  1.00  0.00    -0.206 N 
HETATM   22  N2  UNL     1      20.153   3.394   5.858  1.00  0.00    -0.296 N 
HETATM   23  C5  UNL     1      19.930   2.391   6.694  1.00  0.00     0.182 A 
ATOM     24  H2  UNL     1      21.056   3.422   5.386  1.00  0.00     0.187 HD
HETATM   25  C6  UNL     1      18.697   2.382   7.317  1.00  0.00     0.266 A 
HETATM   26  O1  UNL     1      18.407   1.473   8.115  1.00  0.00    -0.267 OA
HETATM   27  N3  UNL     1      17.792   3.388   7.050  1.00  0.00    -0.273 N 
HETATM   28  C7  UNL     1      18.081   4.378   6.189  1.00  0.00     0.348 A 
ATOM     29  H3  UNL     1      16.884   3.381   7.517  1.00  0.00     0.173 HD
HETATM   30  O2  UNL     1      17.190   5.267   5.995  1.00  0.00    -0.245 OA
ENDBRANCH   4  21
TORSDOF 5
ENDMDL
