MODEL 1
REMARK VINA RESULT: -11.129921275      0.000      0.000
REMARK  5 active torsions:
REMARK  status: ('A' for Active; 'I' for Inactive)
REMARK    1  A    between atoms: C4_4  and  N1_5 
REMARK    2  A    between atoms: C11_18  and  O3_19 
REMARK    3  A    between atoms: O3_19  and  C12_20 
REMARK    4  A    between atoms: C15_23  and  O4_24 
REMARK    5  A    between atoms: C16_26  and  C17_27 
ROOT
HETATM    1  C1  UNL     1      22.133   8.042   4.309  1.00  0.00     0.051 C 
HETATM    2  C2  UNL     1      20.995   7.221   3.871  1.00  0.00    -0.025 A 
HETATM    3  C3  UNL     1      20.572   6.239   4.768  1.00  0.00     0.041 A 
HETATM    4  C4  UNL     1      19.493   5.395   4.481  1.00  0.00     0.062 A 
HETATM    5  C8  UNL     1      18.869   5.577   3.287  1.00  0.00     0.041 A 
HETATM    6  C9  UNL     1      19.303   6.563   2.402  1.00  0.00    -0.025 A 
HETATM    7  C10 UNL     1      18.608   6.696   1.113  1.00  0.00     0.051 C 
HETATM    8  C11 UNL     1      20.385   7.420   2.664  1.00  0.00     0.088 A 
ENDROOT
BRANCH   8   9
HETATM    9  O3  UNL     1      20.815   8.387   1.792  1.00  0.00    -0.310 OA
BRANCH   9  10
HETATM   10  C12 UNL     1      21.786   8.492   0.877  1.00  0.00     0.077 A 
HETATM   11  C13 UNL     1      22.082   7.441   0.037  1.00  0.00     0.040 A 
HETATM   12  C14 UNL     1      23.091   7.532  -0.906  1.00  0.00     0.040 A 
HETATM   13  C15 UNL     1      23.822   8.682  -1.026  1.00  0.00     0.076 A 
HETATM   14  C16 UNL     1      23.576   9.781  -0.211  1.00  0.00     0.001 A 
HETATM   15  C20 UNL     1      22.547   9.650   0.729  1.00  0.00     0.051 A 
BRANCH  13  16
HETATM   16  O4  UNL     1      24.823   8.782  -1.966  1.00  0.00    -0.360 OA
ATOM     17  H4  UNL     1      25.006   9.611  -2.391  1.00  0.00     0.217 HD
ENDBRANCH  13  16
BRANCH  14  18
HETATM   18  C17 UNL     1      24.501  10.925  -0.252  1.00  0.00    -0.075 C 
HETATM   19  C18 UNL     1      25.622  10.882   0.723  1.00  0.00     0.044 C 
HETATM   20  C19 UNL     1      23.897  12.257  -0.561  1.00  0.00     0.044 C 
ENDBRANCH  14  18
ENDBRANCH   9  10
ENDBRANCH   8   9
BRANCH   4  21
HETATM   21  N1  UNL     1      19.176   4.425   5.441  1.00  0.00    -0.206 N 
HETATM   22  N2  UNL     1      20.083   3.450   5.665  1.00  0.00    -0.296 N 
HETATM   23  C5  UNL     1      19.926   2.449   6.518  1.00  0.00     0.182 A 
ATOM     24  H2  UNL     1      20.955   3.487   5.136  1.00  0.00     0.187 HD
HETATM   25  C6  UNL     1      18.735   2.428   7.217  1.00  0.00     0.266 A 
HETATM   26  O1  UNL     1      18.509   1.519   8.035  1.00  0.00    -0.267 OA
HETATM   27  N3  UNL     1      17.802   3.420   7.003  1.00  0.00    -0.273 N 
HETATM   28  C7  UNL     1      18.023   4.409   6.120  1.00  0.00     0.348 A 
ATOM     29  H3  UNL     1      16.925   3.403   7.525  1.00  0.00     0.173 HD
HETATM   30  O2  UNL     1      17.109   5.285   5.978  1.00  0.00    -0.245 OA
ENDBRANCH   4  21
TORSDOF 5
ENDMDL
