MODEL 20
REMARK VINA RESULT: -8.357186261      4.417      9.192
REMARK  6 active torsions:
REMARK  status: ('A' for Active; 'I' for Inactive)
REMARK    1  A    between atoms: C2_2  and  C3_3 
REMARK    2  A    between atoms: C3_3  and  C4_4 
REMARK    3  A    between atoms: C4_4  and  C5_5 
REMARK    4  A    between atoms: C6_6  and  C8_8 
REMARK    5  A    between atoms: C9_9  and  C10_10 
REMARK    6  A    between atoms: C19_19  and  C20_20 
ROOT
HETATM    1  C5  UNL     1      25.494  28.613   8.052  1.00  0.00     0.062 C 
HETATM    2  C6  UNL     1      26.059  27.539   7.496  1.00  0.00    -0.054 C 
HETATM    3  C7  UNL     1      25.687  27.104   6.165  1.00  0.00     0.049 C 
ENDROOT
BRANCH   2   4
HETATM    4  C8  UNL     1      27.073  26.836   8.321  1.00  0.00     0.008 C 
HETATM    5  C9  UNL     1      26.790  26.119   9.366  1.00  0.00     0.009 C 
BRANCH   5   6
HETATM    6  C10 UNL     1      27.703  25.398  10.235  1.00  0.00    -0.048 C 
HETATM    7  C11 UNL     1      27.434  24.083  10.470  1.00  0.00    -0.077 C 
HETATM    8  C12 UNL     1      26.222  23.528   9.803  1.00  0.00     0.044 C 
HETATM    9  C13 UNL     1      28.222  23.189  11.297  1.00  0.00     0.034 C 
HETATM   10  C14 UNL     1      29.022  23.868  12.372  1.00  0.00     0.005 C 
HETATM   11  C15 UNL     1      28.802  25.352  12.373  1.00  0.00     0.014 C 
HETATM   12  C16 UNL     1      28.900  25.874  10.905  1.00  0.00    -0.020 C 
HETATM   13  C17 UNL     1      30.165  25.250  10.304  1.00  0.00     0.020 C 
HETATM   14  C18 UNL     1      29.181  27.332  10.990  1.00  0.00     0.020 C 
ENDBRANCH   5   6
ENDBRANCH   2   4
BRANCH   1  15
HETATM   15  C4  UNL     1      24.546  29.492   7.622  1.00  0.00    -0.127 C 
BRANCH  15  16
HETATM   16  C3  UNL     1      23.691  30.292   7.226  1.00  0.00     0.062 C 
BRANCH  16  17
HETATM   17  C2  UNL     1      22.265  30.019   6.903  1.00  0.00    -0.048 C 
HETATM   18  C1  UNL     1      21.784  28.653   6.691  1.00  0.00     0.049 C 
HETATM   19  C19 UNL     1      21.475  31.077   6.836  1.00  0.00     0.091 C 
BRANCH  19  20
HETATM   20  C20 UNL     1      20.091  31.086   6.558  1.00  0.00     0.199 C 
HETATM   21  O1  UNL     1      19.748  31.270   5.319  1.00  0.00    -0.644 OA
HETATM   22  O2  UNL     1      19.046  30.925   7.419  1.00  0.00    -0.644 OA
ENDBRANCH  19  20
ENDBRANCH  16  17
ENDBRANCH  15  16
ENDBRANCH   1  15
TORSDOF 6
ENDMDL
