MODEL 6
REMARK VINA RESULT: -9.103633965      2.107      3.331
REMARK  6 active torsions:
REMARK  status: ('A' for Active; 'I' for Inactive)
REMARK    1  A    between atoms: C2_2  and  C3_3 
REMARK    2  A    between atoms: C3_3  and  C4_4 
REMARK    3  A    between atoms: C4_4  and  C5_5 
REMARK    4  A    between atoms: C6_6  and  C8_8 
REMARK    5  A    between atoms: C9_9  and  C10_10 
REMARK    6  A    between atoms: C19_19  and  C20_20 
ROOT
HETATM    1  C5  UNL     1      25.671  27.798   8.664  1.00  0.00     0.062 C 
HETATM    2  C6  UNL     1      26.067  29.021   8.305  1.00  0.00    -0.054 C 
HETATM    3  C7  UNL     1      27.457  29.415   8.406  1.00  0.00     0.049 C 
ENDROOT
BRANCH   2   4
HETATM    4  C8  UNL     1      25.004  29.929   7.806  1.00  0.00     0.008 C 
HETATM    5  C9  UNL     1      25.211  31.157   7.437  1.00  0.00     0.009 C 
BRANCH   5   6
HETATM    6  C10 UNL     1      24.246  32.120   6.938  1.00  0.00    -0.048 C 
HETATM    7  C11 UNL     1      24.281  32.409   5.607  1.00  0.00    -0.077 C 
HETATM    8  C12 UNL     1      25.316  31.696   4.805  1.00  0.00     0.044 C 
HETATM    9  C13 UNL     1      23.403  33.332   4.914  1.00  0.00     0.034 C 
HETATM   10  C14 UNL     1      22.825  34.418   5.777  1.00  0.00     0.005 C 
HETATM   11  C15 UNL     1      23.318  34.324   7.190  1.00  0.00     0.014 C 
HETATM   12  C16 UNL     1      23.212  32.839   7.661  1.00  0.00    -0.020 C 
HETATM   13  C17 UNL     1      21.811  32.356   7.264  1.00  0.00     0.020 C 
HETATM   14  C18 UNL     1      23.215  32.863   9.148  1.00  0.00     0.020 C 
ENDBRANCH   5   6
ENDBRANCH   2   4
BRANCH   1  15
HETATM   15  C4  UNL     1      26.332  26.715   9.160  1.00  0.00    -0.127 C 
BRANCH  15  16
HETATM   16  C3  UNL     1      26.928  25.728   9.607  1.00  0.00     0.062 C 
BRANCH  16  17
HETATM   17  C2  UNL     1      28.044  25.703  10.589  1.00  0.00    -0.048 C 
HETATM   18  C1  UNL     1      28.770  26.923  10.944  1.00  0.00     0.049 C 
HETATM   19  C19 UNL     1      28.321  24.523  11.119  1.00  0.00     0.091 C 
BRANCH  19  20
HETATM   20  C20 UNL     1      29.319  24.236  12.075  1.00  0.00     0.199 C 
HETATM   21  O1  UNL     1      30.299  23.480  11.682  1.00  0.00    -0.644 OA
HETATM   22  O2  UNL     1      29.402  24.646  13.373  1.00  0.00    -0.644 OA
ENDBRANCH  19  20
ENDBRANCH  16  17
ENDBRANCH  15  16
ENDBRANCH   1  15
TORSDOF 6
ENDMDL
