MODEL 2
REMARK VINA RESULT: -9.231193586      1.565      2.942
REMARK  6 active torsions:
REMARK  status: ('A' for Active; 'I' for Inactive)
REMARK    1  A    between atoms: C2_2  and  C3_3 
REMARK    2  A    between atoms: C3_3  and  C4_4 
REMARK    3  A    between atoms: C4_4  and  C5_5 
REMARK    4  A    between atoms: C6_6  and  C8_8 
REMARK    5  A    between atoms: C9_9  and  C10_10 
REMARK    6  A    between atoms: C19_19  and  C20_20 
ROOT
HETATM    1  C5  UNL     1      25.969  27.629   8.833  1.00  0.00     0.062 C 
HETATM    2  C6  UNL     1      25.712  28.015   7.581  1.00  0.00    -0.054 C 
HETATM    3  C7  UNL     1      25.962  27.131   6.461  1.00  0.00     0.049 C 
ENDROOT
BRANCH   2   4
HETATM    4  C8  UNL     1      25.164  29.385   7.422  1.00  0.00     0.008 C 
HETATM    5  C9  UNL     1      24.328  29.731   6.490  1.00  0.00     0.009 C 
BRANCH   5   6
HETATM    6  C10 UNL     1      23.739  31.035   6.250  1.00  0.00    -0.048 C 
HETATM    7  C11 UNL     1      24.269  31.786   5.244  1.00  0.00    -0.077 C 
HETATM    8  C12 UNL     1      25.406  31.177   4.496  1.00  0.00     0.044 C 
HETATM    9  C13 UNL     1      23.821  33.105   4.842  1.00  0.00     0.034 C 
HETATM   10  C14 UNL     1      23.140  33.896   5.922  1.00  0.00     0.005 C 
HETATM   11  C15 UNL     1      23.099  33.142   7.218  1.00  0.00     0.014 C 
HETATM   12  C16 UNL     1      22.630  31.680   6.933  1.00  0.00    -0.020 C 
HETATM   13  C17 UNL     1      21.399  31.786   6.025  1.00  0.00     0.020 C 
HETATM   14  C18 UNL     1      22.126  31.136   8.222  1.00  0.00     0.020 C 
ENDBRANCH   5   6
ENDBRANCH   2   4
BRANCH   1  15
HETATM   15  C4  UNL     1      26.468  26.479   9.366  1.00  0.00    -0.127 C 
BRANCH  15  16
HETATM   16  C3  UNL     1      26.914  25.432   9.848  1.00  0.00     0.062 C 
BRANCH  16  17
HETATM   17  C2  UNL     1      28.203  25.231  10.562  1.00  0.00    -0.048 C 
HETATM   18  C1  UNL     1      29.304  26.186  10.421  1.00  0.00     0.049 C 
HETATM   19  C19 UNL     1      28.278  24.157  11.329  1.00  0.00     0.091 C 
BRANCH  19  20
HETATM   20  C20 UNL     1      29.380  23.750  12.113  1.00  0.00     0.199 C 
HETATM   21  O1  UNL     1      30.105  22.782  11.638  1.00  0.00    -0.644 OA
HETATM   22  O2  UNL     1      29.798  24.236  13.316  1.00  0.00    -0.644 OA
ENDBRANCH  19  20
ENDBRANCH  16  17
ENDBRANCH  15  16
ENDBRANCH   1  15
TORSDOF 6
ENDMDL
