MODEL 11
REMARK VINA RESULT: -8.878003584      1.879      3.079
REMARK  6 active torsions:
REMARK  status: ('A' for Active; 'I' for Inactive)
REMARK    1  A    between atoms: C2_2  and  C3_3 
REMARK    2  A    between atoms: C3_3  and  C4_4 
REMARK    3  A    between atoms: C4_4  and  C5_5 
REMARK    4  A    between atoms: C6_6  and  C8_8 
REMARK    5  A    between atoms: C9_9  and  C10_10 
REMARK    6  A    between atoms: C19_19  and  C20_20 
ROOT
HETATM    1  C5  UNL     1      26.382  28.632   8.771  1.00  0.00     0.062 C 
HETATM    2  C6  UNL     1      25.787  28.414   7.596  1.00  0.00    -0.054 C 
HETATM    3  C7  UNL     1      26.103  27.242   6.805  1.00  0.00     0.049 C 
ENDROOT
BRANCH   2   4
HETATM    4  C8  UNL     1      24.799  29.434   7.167  1.00  0.00     0.008 C 
HETATM    5  C9  UNL     1      25.066  30.699   7.042  1.00  0.00     0.009 C 
BRANCH   5   6
HETATM    6  C10 UNL     1      24.176  31.770   6.633  1.00  0.00    -0.048 C 
HETATM    7  C11 UNL     1      24.272  32.206   5.346  1.00  0.00    -0.077 C 
HETATM    8  C12 UNL     1      25.290  31.527   4.494  1.00  0.00     0.044 C 
HETATM    9  C13 UNL     1      23.473  33.254   4.742  1.00  0.00     0.034 C 
HETATM   10  C14 UNL     1      22.931  34.268   5.708  1.00  0.00     0.005 C 
HETATM   11  C15 UNL     1      23.369  33.984   7.114  1.00  0.00     0.014 C 
HETATM   12  C16 UNL     1      23.162  32.465   7.406  1.00  0.00    -0.020 C 
HETATM   13  C17 UNL     1      21.750  32.116   6.920  1.00  0.00     0.020 C 
HETATM   14  C18 UNL     1      23.117  32.319   8.886  1.00  0.00     0.020 C 
ENDBRANCH   5   6
ENDBRANCH   2   4
BRANCH   1  15
HETATM   15  C4  UNL     1      27.321  27.944   9.479  1.00  0.00    -0.127 C 
BRANCH  15  16
HETATM   16  C3  UNL     1      28.167  27.317  10.126  1.00  0.00     0.062 C 
BRANCH  16  17
HETATM   17  C2  UNL     1      28.110  25.900  10.572  1.00  0.00    -0.048 C 
HETATM   18  C1  UNL     1      26.953  25.056  10.269  1.00  0.00     0.049 C 
HETATM   19  C19 UNL     1      29.164  25.460  11.238  1.00  0.00     0.091 C 
BRANCH  19  20
HETATM   20  C20 UNL     1      29.359  24.162  11.757  1.00  0.00     0.199 C 
HETATM   21  O1  UNL     1      30.190  23.398  11.115  1.00  0.00    -0.644 OA
HETATM   22  O2  UNL     1      28.791  23.586  12.855  1.00  0.00    -0.644 OA
ENDBRANCH  19  20
ENDBRANCH  16  17
ENDBRANCH  15  16
ENDBRANCH   1  15
TORSDOF 6
ENDMDL
