MODEL 8
REMARK VINA RESULT: -9.021940976      1.511      2.832
REMARK  6 active torsions:
REMARK  status: ('A' for Active; 'I' for Inactive)
REMARK    1  A    between atoms: C2_2  and  C3_3 
REMARK    2  A    between atoms: C3_3  and  C4_4 
REMARK    3  A    between atoms: C4_4  and  C5_5 
REMARK    4  A    between atoms: C6_6  and  C8_8 
REMARK    5  A    between atoms: C9_9  and  C10_10 
REMARK    6  A    between atoms: C19_19  and  C20_20 
ROOT
HETATM    1  C5  UNL     1      26.742  27.849   8.571  1.00  0.00     0.062 C 
HETATM    2  C6  UNL     1      25.999  28.061   7.481  1.00  0.00    -0.054 C 
HETATM    3  C7  UNL     1      25.920  27.069   6.428  1.00  0.00     0.049 C 
ENDROOT
BRANCH   2   4
HETATM    4  C8  UNL     1      25.277  29.355   7.427  1.00  0.00     0.008 C 
HETATM    5  C9  UNL     1      24.578  29.757   6.409  1.00  0.00     0.009 C 
BRANCH   5   6
HETATM    6  C10 UNL     1      23.840  30.998   6.258  1.00  0.00    -0.048 C 
HETATM    7  C11 UNL     1      24.311  31.899   5.351  1.00  0.00    -0.077 C 
HETATM    8  C12 UNL     1      25.542  31.506   4.609  1.00  0.00     0.044 C 
HETATM    9  C13 UNL     1      23.718  33.187   5.047  1.00  0.00     0.034 C 
HETATM   10  C14 UNL     1      22.903  33.783   6.159  1.00  0.00     0.005 C 
HETATM   11  C15 UNL     1      22.906  32.910   7.378  1.00  0.00     0.014 C 
HETATM   12  C16 UNL     1      22.635  31.436   6.940  1.00  0.00    -0.020 C 
HETATM   13  C17 UNL     1      21.435  31.479   5.986  1.00  0.00     0.020 C 
HETATM   14  C18 UNL     1      22.153  30.715   8.148  1.00  0.00     0.020 C 
ENDBRANCH   5   6
ENDBRANCH   2   4
BRANCH   1  15
HETATM   15  C4  UNL     1      27.531  26.813   8.970  1.00  0.00    -0.127 C 
BRANCH  15  16
HETATM   16  C3  UNL     1      28.252  25.878   9.335  1.00  0.00     0.062 C 
BRANCH  16  17
HETATM   17  C2  UNL     1      27.855  24.658  10.088  1.00  0.00    -0.048 C 
HETATM   18  C1  UNL     1      26.455  24.241  10.172  1.00  0.00     0.049 C 
HETATM   19  C19 UNL     1      28.840  23.983  10.655  1.00  0.00     0.091 C 
BRANCH  19  20
HETATM   20  C20 UNL     1      28.729  22.795  11.411  1.00  0.00     0.199 C 
HETATM   21  O1  UNL     1      28.762  22.923  12.703  1.00  0.00    -0.644 OA
HETATM   22  O2  UNL     1      28.590  21.512  10.971  1.00  0.00    -0.644 OA
ENDBRANCH  19  20
ENDBRANCH  16  17
ENDBRANCH  15  16
ENDBRANCH   1  15
TORSDOF 6
ENDMDL
