MODEL 18
REMARK VINA RESULT: -8.395349799      5.206      9.224
REMARK  6 active torsions:
REMARK  status: ('A' for Active; 'I' for Inactive)
REMARK    1  A    between atoms: C2_2  and  C3_3 
REMARK    2  A    between atoms: C3_3  and  C4_4 
REMARK    3  A    between atoms: C4_4  and  C5_5 
REMARK    4  A    between atoms: C6_6  and  C8_8 
REMARK    5  A    between atoms: C9_9  and  C10_10 
REMARK    6  A    between atoms: C19_19  and  C20_20 
ROOT
HETATM    1  C5  UNL     1      26.187  30.512   6.404  1.00  0.00     0.062 C 
HETATM    2  C6  UNL     1      26.760  30.709   7.593  1.00  0.00    -0.054 C 
HETATM    3  C7  UNL     1      26.605  31.964   8.299  1.00  0.00     0.049 C 
ENDROOT
BRANCH   2   4
HETATM    4  C8  UNL     1      27.552  29.574   8.130  1.00  0.00     0.008 C 
HETATM    5  C9  UNL     1      27.084  28.686   8.954  1.00  0.00     0.009 C 
BRANCH   5   6
HETATM    6  C10 UNL     1      27.772  27.547   9.534  1.00  0.00    -0.048 C 
HETATM    7  C11 UNL     1      27.562  26.330   8.958  1.00  0.00    -0.077 C 
HETATM    8  C12 UNL     1      26.640  26.305   7.786  1.00  0.00     0.044 C 
HETATM    9  C13 UNL     1      28.157  25.076   9.379  1.00  0.00     0.034 C 
HETATM   10  C14 UNL     1      28.558  25.024  10.825  1.00  0.00     0.005 C 
HETATM   11  C15 UNL     1      28.220  26.299  11.540  1.00  0.00     0.014 C 
HETATM   12  C16 UNL     1      28.684  27.504  10.663  1.00  0.00    -0.020 C 
HETATM   13  C17 UNL     1      30.117  27.190  10.214  1.00  0.00     0.020 C 
HETATM   14  C18 UNL     1      28.803  28.673  11.575  1.00  0.00     0.020 C 
ENDBRANCH   5   6
ENDBRANCH   2   4
BRANCH   1  15
HETATM   15  C4  UNL     1      25.408  31.296   5.607  1.00  0.00    -0.127 C 
BRANCH  15  16
HETATM   16  C3  UNL     1      24.708  32.012   4.882  1.00  0.00     0.062 C 
BRANCH  16  17
HETATM   17  C2  UNL     1      23.636  32.957   5.294  1.00  0.00    -0.048 C 
HETATM   18  C1  UNL     1      22.809  33.645   4.302  1.00  0.00     0.049 C 
HETATM   19  C19 UNL     1      23.478  33.119   6.597  1.00  0.00     0.091 C 
BRANCH  19  20
HETATM   20  C20 UNL     1      22.531  33.946   7.240  1.00  0.00     0.199 C 
HETATM   21  O1  UNL     1      22.999  34.969   7.890  1.00  0.00    -0.644 OA
HETATM   22  O2  UNL     1      21.174  33.822   7.277  1.00  0.00    -0.644 OA
ENDBRANCH  19  20
ENDBRANCH  16  17
ENDBRANCH  15  16
ENDBRANCH   1  15
TORSDOF 6
ENDMDL
