MODEL 5
REMARK VINA RESULT: -9.140552231      2.174      3.161
REMARK  6 active torsions:
REMARK  status: ('A' for Active; 'I' for Inactive)
REMARK    1  A    between atoms: C2_2  and  C3_3 
REMARK    2  A    between atoms: C3_3  and  C4_4 
REMARK    3  A    between atoms: C4_4  and  C5_5 
REMARK    4  A    between atoms: C6_6  and  C8_8 
REMARK    5  A    between atoms: C9_9  and  C10_10 
REMARK    6  A    between atoms: C19_19  and  C20_20 
ROOT
HETATM    1  C5  UNL     1      26.622  28.156   8.647  1.00  0.00     0.062 C 
HETATM    2  C6  UNL     1      26.811  29.335   8.050  1.00  0.00    -0.054 C 
HETATM    3  C7  UNL     1      28.145  29.838   7.796  1.00  0.00     0.049 C 
ENDROOT
BRANCH   2   4
HETATM    4  C8  UNL     1      25.583  30.077   7.672  1.00  0.00     0.008 C 
HETATM    5  C9  UNL     1      25.584  31.241   7.095  1.00  0.00     0.009 C 
BRANCH   5   6
HETATM    6  C10 UNL     1      24.445  32.044   6.689  1.00  0.00    -0.048 C 
HETATM    7  C11 UNL     1      24.182  32.126   5.355  1.00  0.00    -0.077 C 
HETATM    8  C12 UNL     1      25.102  31.375   4.454  1.00  0.00     0.044 C 
HETATM    9  C13 UNL     1      23.093  32.867   4.748  1.00  0.00     0.034 C 
HETATM   10  C14 UNL     1      22.592  34.028   5.559  1.00  0.00     0.005 C 
HETATM   11  C15 UNL     1      23.366  34.188   6.834  1.00  0.00     0.014 C 
HETATM   12  C16 UNL     1      23.509  32.789   7.512  1.00  0.00    -0.020 C 
HETATM   13  C17 UNL     1      22.115  32.150   7.493  1.00  0.00     0.020 C 
HETATM   14  C18 UNL     1      23.809  33.041   8.947  1.00  0.00     0.020 C 
ENDBRANCH   5   6
ENDBRANCH   2   4
BRANCH   1  15
HETATM   15  C4  UNL     1      27.478  27.212   9.131  1.00  0.00    -0.127 C 
BRANCH  15  16
HETATM   16  C3  UNL     1      28.250  26.350   9.567  1.00  0.00     0.062 C 
BRANCH  16  17
HETATM   17  C2  UNL     1      27.903  25.064  10.227  1.00  0.00    -0.048 C 
HETATM   18  C1  UNL     1      26.540  24.532  10.184  1.00  0.00     0.049 C 
HETATM   19  C19 UNL     1      28.898  24.439  10.833  1.00  0.00     0.091 C 
BRANCH  19  20
HETATM   20  C20 UNL     1      28.834  23.206  11.519  1.00  0.00     0.199 C 
HETATM   21  O1  UNL     1      28.797  23.264  12.817  1.00  0.00    -0.644 OA
HETATM   22  O2  UNL     1      28.803  21.944  11.007  1.00  0.00    -0.644 OA
ENDBRANCH  19  20
ENDBRANCH  16  17
ENDBRANCH  15  16
ENDBRANCH   1  15
TORSDOF 6
ENDMDL
