MODEL 7
REMARK VINA RESULT: -6.342457390      2.235      6.665
REMARK  9 active torsions:
REMARK  status: ('A' for Active; 'I' for Inactive)
REMARK    1  A    between atoms: O1_1  and  C1_3 
REMARK    2  A    between atoms: C2_4  and  O2_5 
REMARK    3  A    between atoms: C3_7  and  O3_8 
REMARK    4  A    between atoms: O3_8  and  P1_9 
REMARK    5  A    between atoms: C4_13  and  O7_14 
REMARK    6  A    between atoms: C5_16  and  O8_17 
REMARK    7  A    between atoms: O8_17  and  P2_18 
REMARK    8  A    between atoms: C6_22  and  O12_23 
REMARK    9  A    between atoms: O12_23  and  P3_24 
ROOT
HETATM    1  C1  UNL     1      20.997  -3.659  12.167  1.00  0.00     0.181 C 
HETATM    2  C2  UNL     1      21.668  -3.491  13.486  1.00  0.00     0.181 C 
HETATM    3  C3  UNL     1      22.553  -2.275  13.574  1.00  0.00     0.198 C 
HETATM    4  C4  UNL     1      23.467  -2.189  12.374  1.00  0.00     0.182 C 
HETATM    5  C5  UNL     1      22.701  -2.248  11.079  1.00  0.00     0.199 C 
HETATM    6  C6  UNL     1      21.955  -3.570  10.995  1.00  0.00     0.199 C 
ENDROOT
BRANCH   3   7
HETATM    7  O3  UNL     1      23.334  -2.420  14.719  1.00  0.00    -0.272 OA
BRANCH   7   8
HETATM    8  P1  UNL     1      22.945  -1.582  15.951  1.00  0.00     0.422 P 
HETATM    9  O4  UNL     1      22.528  -0.657  17.107  1.00  0.00    -0.617 OA
HETATM   10  O5  UNL     1      23.408  -2.781  16.993  1.00  0.00    -0.617 OA
HETATM   11  O6  UNL     1      24.103  -0.479  15.475  1.00  0.00    -0.617 OA
ENDBRANCH   7   8
ENDBRANCH   3   7
BRANCH   2  12
HETATM   12  O2  UNL     1      22.374  -4.645  13.859  1.00  0.00    -0.390 OA
ATOM     13  H2  UNL     1      23.306  -4.553  13.700  1.00  0.00     0.210 HD
ENDBRANCH   2  12
BRANCH   4  14
HETATM   14  O7  UNL     1      24.205  -1.031  12.406  1.00  0.00    -0.390 OA
ATOM     15  H7  UNL     1      25.124  -1.222  12.549  1.00  0.00     0.210 HD
ENDBRANCH   4  14
BRANCH   1  16
HETATM   16  O1  UNL     1      20.454  -4.961  12.136  1.00  0.00    -0.390 OA
ATOM     17  H1  UNL     1      19.741  -4.954  11.509  1.00  0.00     0.210 HD
ENDBRANCH   1  16
BRANCH   5  18
HETATM   18  O8  UNL     1      23.568  -2.103  10.038  1.00  0.00    -0.272 OA
BRANCH  18  19
HETATM   19  P2  UNL     1      23.427  -0.658   9.251  1.00  0.00     0.422 P 
HETATM   20  O9  UNL     1      22.230  -0.236  10.098  1.00  0.00    -0.617 OA
HETATM   21  O10 UNL     1      24.269   0.675   9.869  1.00  0.00    -0.617 OA
HETATM   22  O11 UNL     1      22.731  -0.528   7.798  1.00  0.00    -0.617 OA
ENDBRANCH  18  19
ENDBRANCH   5  18
BRANCH   6  23
HETATM   23  O12 UNL     1      21.202  -3.604   9.854  1.00  0.00    -0.272 OA
BRANCH  23  24
HETATM   24  P3  UNL     1      21.896  -4.608   8.757  1.00  0.00     0.422 P 
HETATM   25  O13 UNL     1      21.597  -3.665   7.588  1.00  0.00    -0.617 OA
HETATM   26  O14 UNL     1      22.211  -5.613   9.868  1.00  0.00    -0.617 OA
HETATM   27  O15 UNL     1      20.920  -5.735   8.002  1.00  0.00    -0.617 OA
ENDBRANCH  23  24
ENDBRANCH   6  23
TORSDOF 9
ENDMDL
