MODEL 6
REMARK VINA RESULT: -6.364135927      2.596      6.819
REMARK  9 active torsions:
REMARK  status: ('A' for Active; 'I' for Inactive)
REMARK    1  A    between atoms: O1_1  and  C1_3 
REMARK    2  A    between atoms: C2_4  and  O2_5 
REMARK    3  A    between atoms: C3_7  and  O3_8 
REMARK    4  A    between atoms: O3_8  and  P1_9 
REMARK    5  A    between atoms: C4_13  and  O7_14 
REMARK    6  A    between atoms: C5_16  and  O8_17 
REMARK    7  A    between atoms: O8_17  and  P2_18 
REMARK    8  A    between atoms: C6_22  and  O12_23 
REMARK    9  A    between atoms: O12_23  and  P3_24 
ROOT
HETATM    1  C1  UNL     1      20.753  -2.514  12.226  1.00  0.00     0.181 C 
HETATM    2  C2  UNL     1      20.201  -3.881  12.434  1.00  0.00     0.181 C 
HETATM    3  C3  UNL     1      20.268  -4.360  13.861  1.00  0.00     0.198 C 
HETATM    4  C4  UNL     1      21.645  -4.130  14.440  1.00  0.00     0.182 C 
HETATM    5  C5  UNL     1      22.082  -2.696  14.295  1.00  0.00     0.199 C 
HETATM    6  C6  UNL     1      22.137  -2.333  12.820  1.00  0.00     0.199 C 
ENDROOT
BRANCH   3   7
HETATM    7  O3  UNL     1      20.016  -5.730  13.845  1.00  0.00    -0.272 OA
BRANCH   7   8
HETATM    8  P1  UNL     1      18.630  -6.201  14.324  1.00  0.00     0.422 P 
HETATM    9  O4  UNL     1      17.255  -6.590  14.892  1.00  0.00    -0.617 OA
HETATM   10  O5  UNL     1      18.538  -7.351  13.139  1.00  0.00    -0.617 OA
HETATM   11  O6  UNL     1      19.355  -6.627  15.765  1.00  0.00    -0.617 OA
ENDBRANCH   7   8
ENDBRANCH   3   7
BRANCH   2  12
HETATM   12  O2  UNL     1      20.792  -4.816  11.570  1.00  0.00    -0.390 OA
ATOM     13  H2  UNL     1      20.218  -5.555  11.407  1.00  0.00     0.210 HD
ENDBRANCH   2  12
BRANCH   4  14
HETATM   14  O7  UNL     1      21.678  -4.477  15.768  1.00  0.00    -0.390 OA
ATOM     15  H7  UNL     1      22.568  -4.660  16.045  1.00  0.00     0.210 HD
ENDBRANCH   4  14
BRANCH   1  16
HETATM   16  O1  UNL     1      20.892  -2.325  10.835  1.00  0.00    -0.390 OA
ATOM     17  H1  UNL     1      21.794  -2.524  10.612  1.00  0.00     0.210 HD
ENDBRANCH   1  16
BRANCH   5  18
HETATM   18  O8  UNL     1      23.299  -2.536  14.888  1.00  0.00    -0.272 OA
BRANCH  18  19
HETATM   19  P2  UNL     1      23.269  -1.543  16.207  1.00  0.00     0.422 P 
HETATM   20  O9  UNL     1      23.317  -2.718  17.179  1.00  0.00    -0.617 OA
HETATM   21  O10 UNL     1      24.747  -1.019  16.848  1.00  0.00    -0.617 OA
HETATM   22  O11 UNL     1      21.907  -0.861  16.747  1.00  0.00    -0.617 OA
ENDBRANCH  18  19
ENDBRANCH   5  18
BRANCH   6  23
HETATM   23  O12 UNL     1      22.467  -1.013  12.680  1.00  0.00    -0.272 OA
BRANCH  23  24
HETATM   24  P3  UNL     1      23.548  -0.835  11.459  1.00  0.00     0.422 P 
HETATM   25  O13 UNL     1      24.535  -1.827  12.082  1.00  0.00    -0.617 OA
HETATM   26  O14 UNL     1      22.626   0.184  10.784  1.00  0.00    -0.617 OA
HETATM   27  O15 UNL     1      24.731   0.333  11.626  1.00  0.00    -0.617 OA
ENDBRANCH  23  24
ENDBRANCH   6  23
TORSDOF 9
ENDMDL
