MODEL 20
REMARK VINA RESULT: -5.848313211      1.647      4.041
REMARK  9 active torsions:
REMARK  status: ('A' for Active; 'I' for Inactive)
REMARK    1  A    between atoms: O1_1  and  C1_3 
REMARK    2  A    between atoms: C2_4  and  O2_5 
REMARK    3  A    between atoms: C3_7  and  O3_8 
REMARK    4  A    between atoms: O3_8  and  P1_9 
REMARK    5  A    between atoms: C4_13  and  O7_14 
REMARK    6  A    between atoms: C5_16  and  O8_17 
REMARK    7  A    between atoms: O8_17  and  P2_18 
REMARK    8  A    between atoms: C6_22  and  O12_23 
REMARK    9  A    between atoms: O12_23  and  P3_24 
ROOT
HETATM    1  C1  UNL     1      23.302  -3.369  11.143  1.00  0.00     0.181 C 
HETATM    2  C2  UNL     1      23.144  -2.761   9.793  1.00  0.00     0.181 C 
HETATM    3  C3  UNL     1      23.423  -1.281   9.751  1.00  0.00     0.198 C 
HETATM    4  C4  UNL     1      22.694  -0.566  10.865  1.00  0.00     0.182 C 
HETATM    5  C5  UNL     1      22.998  -1.168  12.212  1.00  0.00     0.199 C 
HETATM    6  C6  UNL     1      22.550  -2.620  12.227  1.00  0.00     0.199 C 
ENDROOT
BRANCH   3   7
HETATM    7  O3  UNL     1      22.942  -0.809   8.531  1.00  0.00    -0.272 OA
BRANCH   7   8
HETATM    8  P1  UNL     1      23.848   0.149   7.736  1.00  0.00     0.422 P 
HETATM    9  O4  UNL     1      24.832   1.016   6.933  1.00  0.00    -0.617 OA
HETATM   10  O5  UNL     1      22.794   1.409   7.927  1.00  0.00    -0.617 OA
HETATM   11  O6  UNL     1      25.004  -0.082   8.918  1.00  0.00    -0.617 OA
ENDBRANCH   7   8
ENDBRANCH   3   7
BRANCH   2  12
HETATM   12  O2  UNL     1      21.886  -3.044   9.241  1.00  0.00    -0.390 OA
ATOM     13  H2  UNL     1      21.336  -2.270   9.205  1.00  0.00     0.210 HD
ENDBRANCH   2  12
BRANCH   4  14
HETATM   14  O7  UNL     1      23.024   0.767  10.885  1.00  0.00    -0.390 OA
ATOM     15  H7  UNL     1      23.359   1.017  11.738  1.00  0.00     0.210 HD
ENDBRANCH   4  14
BRANCH   1  16
HETATM   16  O1  UNL     1      22.736  -4.660  11.089  1.00  0.00    -0.390 OA
ATOM     17  H1  UNL     1      22.083  -4.712  11.778  1.00  0.00     0.210 HD
ENDBRANCH   1  16
BRANCH   5  18
HETATM   18  O8  UNL     1      22.366  -0.446  13.179  1.00  0.00    -0.272 OA
BRANCH  18  19
HETATM   19  P2  UNL     1      23.395   0.394  14.161  1.00  0.00     0.422 P 
HETATM   20  O9  UNL     1      22.245   1.017  14.948  1.00  0.00    -0.617 OA
HETATM   21  O10 UNL     1      23.910  -0.342  15.597  1.00  0.00    -0.617 OA
HETATM   22  O11 UNL     1      24.114   1.763  13.692  1.00  0.00    -0.617 OA
ENDBRANCH  18  19
ENDBRANCH   5  18
BRANCH   6  23
HETATM   23  O12 UNL     1      22.884  -3.195  13.422  1.00  0.00    -0.272 OA
BRANCH  23  24
HETATM   24  P3  UNL     1      21.549  -3.844  14.121  1.00  0.00     0.422 P 
HETATM   25  O13 UNL     1      22.363  -4.529  15.223  1.00  0.00    -0.617 OA
HETATM   26  O14 UNL     1      20.668  -3.209  13.042  1.00  0.00    -0.617 OA
HETATM   27  O15 UNL     1      21.070  -5.367  13.629  1.00  0.00    -0.617 OA
ENDBRANCH  23  24
ENDBRANCH   6  23
TORSDOF 9
ENDMDL
