MODEL 5
REMARK VINA RESULT: -6.375734763      1.952      3.834
REMARK  9 active torsions:
REMARK  status: ('A' for Active; 'I' for Inactive)
REMARK    1  A    between atoms: O1_1  and  C1_3 
REMARK    2  A    between atoms: C2_4  and  O2_5 
REMARK    3  A    between atoms: C3_7  and  O3_8 
REMARK    4  A    between atoms: O3_8  and  P1_9 
REMARK    5  A    between atoms: C4_13  and  O7_14 
REMARK    6  A    between atoms: C5_16  and  O8_17 
REMARK    7  A    between atoms: O8_17  and  P2_18 
REMARK    8  A    between atoms: C6_22  and  O12_23 
REMARK    9  A    between atoms: O12_23  and  P3_24 
ROOT
HETATM    1  C1  UNL     1      23.833  -3.596  11.918  1.00  0.00     0.181 C 
HETATM    2  C2  UNL     1      23.502  -3.344  10.488  1.00  0.00     0.181 C 
HETATM    3  C3  UNL     1      23.370  -1.885  10.136  1.00  0.00     0.198 C 
HETATM    4  C4  UNL     1      22.488  -1.171  11.134  1.00  0.00     0.182 C 
HETATM    5  C5  UNL     1      22.959  -1.379  12.550  1.00  0.00     0.199 C 
HETATM    6  C6  UNL     1      22.919  -2.862  12.881  1.00  0.00     0.199 C 
ENDROOT
BRANCH   3   7
HETATM    7  O3  UNL     1      22.766  -1.820   8.883  1.00  0.00    -0.272 OA
BRANCH   7   8
HETATM    8  P1  UNL     1      23.526  -1.076   7.769  1.00  0.00     0.422 P 
HETATM    9  O4  UNL     1      24.308  -0.247   6.737  1.00  0.00    -0.617 OA
HETATM   10  O5  UNL     1      23.129  -2.222   6.643  1.00  0.00    -0.617 OA
HETATM   11  O6  UNL     1      22.463   0.192   7.993  1.00  0.00    -0.617 OA
ENDBRANCH   7   8
ENDBRANCH   3   7
BRANCH   2  12
HETATM   12  O2  UNL     1      22.360  -4.056  10.088  1.00  0.00    -0.390 OA
ATOM     13  H2  UNL     1      21.587  -3.504  10.081  1.00  0.00     0.210 HD
ENDBRANCH   2  12
BRANCH   4  14
HETATM   14  O7  UNL     1      22.446   0.176  10.869  1.00  0.00    -0.390 OA
ATOM     15  H7  UNL     1      21.717   0.384  10.297  1.00  0.00     0.210 HD
ENDBRANCH   4  14
BRANCH   1  16
HETATM   16  O1  UNL     1      23.636  -4.972  12.158  1.00  0.00    -0.390 OA
ATOM     17  H1  UNL     1      22.702  -5.109  12.270  1.00  0.00     0.210 HD
ENDBRANCH   1  16
BRANCH   5  18
HETATM   18  O8  UNL     1      22.166  -0.663  13.396  1.00  0.00    -0.272 OA
BRANCH  18  19
HETATM   19  P2  UNL     1      23.003   0.367  14.379  1.00  0.00     0.422 P 
HETATM   20  O9  UNL     1      23.947   0.783  13.254  1.00  0.00    -0.617 OA
HETATM   21  O10 UNL     1      22.489   1.978  14.472  1.00  0.00    -0.617 OA
HETATM   22  O11 UNL     1      24.117  -0.151  15.428  1.00  0.00    -0.617 OA
ENDBRANCH  18  19
ENDBRANCH   5  18
BRANCH   6  23
HETATM   23  O12 UNL     1      23.409  -3.068  14.140  1.00  0.00    -0.272 OA
BRANCH  23  24
HETATM   24  P3  UNL     1      22.229  -3.673  15.106  1.00  0.00     0.422 P 
HETATM   25  O13 UNL     1      21.379  -4.128  13.915  1.00  0.00    -0.617 OA
HETATM   26  O14 UNL     1      23.008  -3.229  16.347  1.00  0.00    -0.617 OA
HETATM   27  O15 UNL     1      20.966  -2.661  15.525  1.00  0.00    -0.617 OA
ENDBRANCH  23  24
ENDBRANCH   6  23
TORSDOF 9
ENDMDL
