MODEL 8
REMARK VINA RESULT: -6.328009480      2.179      6.597
REMARK  9 active torsions:
REMARK  status: ('A' for Active; 'I' for Inactive)
REMARK    1  A    between atoms: O1_1  and  C1_3 
REMARK    2  A    between atoms: C2_4  and  O2_5 
REMARK    3  A    between atoms: C3_7  and  O3_8 
REMARK    4  A    between atoms: O3_8  and  P1_9 
REMARK    5  A    between atoms: C4_13  and  O7_14 
REMARK    6  A    between atoms: C5_16  and  O8_17 
REMARK    7  A    between atoms: O8_17  and  P2_18 
REMARK    8  A    between atoms: C6_22  and  O12_23 
REMARK    9  A    between atoms: O12_23  and  P3_24 
ROOT
HETATM    1  C1  UNL     1      20.993  -3.609  12.151  1.00  0.00     0.181 C 
HETATM    2  C2  UNL     1      21.659  -3.458  13.474  1.00  0.00     0.181 C 
HETATM    3  C3  UNL     1      22.564  -2.258  13.573  1.00  0.00     0.198 C 
HETATM    4  C4  UNL     1      23.487  -2.184  12.379  1.00  0.00     0.182 C 
HETATM    5  C5  UNL     1      22.728  -2.224  11.078  1.00  0.00     0.199 C 
HETATM    6  C6  UNL     1      21.960  -3.532  10.984  1.00  0.00     0.199 C 
ENDROOT
BRANCH   3   7
HETATM    7  O3  UNL     1      23.336  -2.420  14.721  1.00  0.00    -0.272 OA
BRANCH   7   8
HETATM    8  P1  UNL     1      22.949  -1.586  15.957  1.00  0.00     0.422 P 
HETATM    9  O4  UNL     1      22.535  -0.664  17.115  1.00  0.00    -0.617 OA
HETATM   10  O5  UNL     1      23.416  -2.787  16.994  1.00  0.00    -0.617 OA
HETATM   11  O6  UNL     1      24.105  -0.480  15.479  1.00  0.00    -0.617 OA
ENDBRANCH   7   8
ENDBRANCH   3   7
BRANCH   2  12
HETATM   12  O2  UNL     1      22.342  -4.626  13.847  1.00  0.00    -0.390 OA
ATOM     13  H2  UNL     1      23.206  -4.667  13.455  1.00  0.00     0.210 HD
ENDBRANCH   2  12
BRANCH   4  14
HETATM   14  O7  UNL     1      24.245  -1.039  12.419  1.00  0.00    -0.390 OA
ATOM     15  H7  UNL     1      24.843  -1.057  13.157  1.00  0.00     0.210 HD
ENDBRANCH   4  14
BRANCH   1  16
HETATM   16  O1  UNL     1      20.428  -4.901  12.112  1.00  0.00    -0.390 OA
ATOM     17  H1  UNL     1      20.344  -5.145  11.197  1.00  0.00     0.210 HD
ENDBRANCH   1  16
BRANCH   5  18
HETATM   18  O8  UNL     1      23.604  -2.091  10.043  1.00  0.00    -0.272 OA
BRANCH  18  19
HETATM   19  P2  UNL     1      23.442  -0.672   9.213  1.00  0.00     0.422 P 
HETATM   20  O9  UNL     1      22.250  -0.234  10.059  1.00  0.00    -0.617 OA
HETATM   21  O10 UNL     1      24.278   0.687   9.781  1.00  0.00    -0.617 OA
HETATM   22  O11 UNL     1      22.730  -0.593   7.765  1.00  0.00    -0.617 OA
ENDBRANCH  18  19
ENDBRANCH   5  18
BRANCH   6  23
HETATM   23  O12 UNL     1      21.213  -3.549   9.839  1.00  0.00    -0.272 OA
BRANCH  23  24
HETATM   24  P3  UNL     1      21.788  -4.695   8.815  1.00  0.00     0.422 P 
HETATM   25  O13 UNL     1      22.270  -5.590   9.962  1.00  0.00    -0.617 OA
HETATM   26  O14 UNL     1      21.356  -3.848   7.615  1.00  0.00    -0.617 OA
HETATM   27  O15 UNL     1      23.384  -4.581   8.332  1.00  0.00    -0.617 OA
ENDBRANCH  23  24
ENDBRANCH   6  23
TORSDOF 9
ENDMDL
