MODEL 1
REMARK VINA RESULT: -8.186898677      0.000      0.000
REMARK  7 active torsions:
REMARK  status: ('A' for Active; 'I' for Inactive)
REMARK    1  A    between atoms: C2_2  and  N1_3 
REMARK    2  A    between atoms: N1_3  and  C4_5 
REMARK    3  A    between atoms: N1_3  and  C6_7 
REMARK    4  A    between atoms: C6_7  and  C7_8 
REMARK    5  A    between atoms: C7_8  and  C8_9 
REMARK    6  A    between atoms: C8_9  and  N2_10 
REMARK    7  A    between atoms: C9_11  and  C10_12 
ROOT
HETATM    1  N2  UNL     1      37.424  24.839   6.009  1.00  0.00    -0.345 N 
HETATM    2  C9  UNL     1      37.845  25.391   7.144  1.00  0.00     0.056 A 
HETATM    3  C16 UNL     1      39.148  25.807   7.353  1.00  0.00     0.005 A 
HETATM    4  C17 UNL     1      39.541  26.376   8.552  1.00  0.00     0.041 A 
HETATM    5  C18 UNL     1      40.845  26.778   8.720  1.00  0.00     0.047 A 
HETATM    6  N3  UNL     1      41.184  27.358   9.983  1.00  0.00    -0.102 NA
HETATM    7  C19 UNL     1      41.786  26.635   7.733  1.00  0.00     0.027 A 
HETATM    8  C20 UNL     1      41.390  26.063   6.527  1.00  0.00     0.015 A 
HETATM    9  C21 UNL     1      40.085  25.659   6.352  1.00  0.00    -0.011 A 
HETATM   10  C22 UNL     1      39.645  25.082   5.164  1.00  0.00     0.002 A 
HETATM   11  C23 UNL     1      40.553  24.924   4.155  1.00  0.00     0.016 A 
HETATM   12  C24 UNL     1      40.094  24.341   2.963  1.00  0.00     0.027 A 
HETATM   13  C25 UNL     1      38.785  23.950   2.825  1.00  0.00     0.048 A 
HETATM   14  N4  UNL     1      38.374  23.367   1.598  1.00  0.00    -0.102 NA
HETATM   15  C26 UNL     1      37.859  24.104   3.833  1.00  0.00     0.057 A 
HETATM   16  C27 UNL     1      38.305  24.679   5.016  1.00  0.00     0.048 A 
ENDROOT
BRANCH   1  17
HETATM   17  C8  UNL     1      36.026  24.420   5.902  1.00  0.00     0.131 C 
BRANCH  17  18
HETATM   18  C7  UNL     1      35.725  23.107   6.531  1.00  0.00     0.048 C 
BRANCH  18  19
HETATM   19  C6  UNL     1      34.349  23.058   7.077  1.00  0.00     0.238 C 
BRANCH  19  20
HETATM   20  N1  UNL     1      33.810  21.857   7.576  1.00  0.00    -0.071 N 
HETATM   21  C3  UNL     1      34.437  20.634   7.203  1.00  0.00     0.272 C 
BRANCH  20  22
HETATM   22  C2  UNL     1      33.893  21.882   9.072  1.00  0.00     0.232 C 
HETATM   23  C1  UNL     1      32.977  22.947   9.611  1.00  0.00     0.035 C 
ENDBRANCH  20  22
BRANCH  20  24
HETATM   24  C4  UNL     1      32.372  21.692   7.347  1.00  0.00     0.232 C 
HETATM   25  C5  UNL     1      31.972  21.831   5.918  1.00  0.00     0.035 C 
ENDBRANCH  20  24
ENDBRANCH  19  20
ENDBRANCH  18  19
ENDBRANCH  17  18
ENDBRANCH   1  17
BRANCH   2  26
HETATM   26  C10 UNL     1      36.924  25.623   8.239  1.00  0.00    -0.008 A 
HETATM   27  C11 UNL     1      36.849  24.685   9.243  1.00  0.00     0.014 A 
HETATM   28  C12 UNL     1      35.993  24.875  10.285  1.00  0.00     0.001 A 
HETATM   29  C13 UNL     1      35.210  25.997  10.329  1.00  0.00     0.000 A 
HETATM   30  C14 UNL     1      35.282  26.931   9.331  1.00  0.00     0.001 A 
HETATM   31  C15 UNL     1      36.138  26.765   8.268  1.00  0.00     0.014 A 
ENDBRANCH   2  26
TORSDOF 7
ENDMDL
