MODEL 3
REMARK VINA RESULT: -7.750335102      4.262     10.361
REMARK  7 active torsions:
REMARK  status: ('A' for Active; 'I' for Inactive)
REMARK    1  A    between atoms: C2_2  and  N1_3 
REMARK    2  A    between atoms: N1_3  and  C4_5 
REMARK    3  A    between atoms: N1_3  and  C6_7 
REMARK    4  A    between atoms: C6_7  and  C7_8 
REMARK    5  A    between atoms: C7_8  and  C8_9 
REMARK    6  A    between atoms: C8_9  and  N2_10 
REMARK    7  A    between atoms: C9_11  and  C10_12 
ROOT
HETATM    1  N2  UNL     1      31.398  22.985  11.703  1.00  0.00    -0.345 N 
HETATM    2  C9  UNL     1      31.252  21.812  11.092  1.00  0.00     0.056 A 
HETATM    3  C16 UNL     1      30.685  20.703  11.694  1.00  0.00     0.005 A 
HETATM    4  C17 UNL     1      30.553  19.502  11.016  1.00  0.00     0.041 A 
HETATM    5  C18 UNL     1      29.983  18.423  11.650  1.00  0.00     0.047 A 
HETATM    6  N3  UNL     1      29.878  17.213  10.893  1.00  0.00    -0.102 NA
HETATM    7  C19 UNL     1      29.535  18.489  12.944  1.00  0.00     0.027 A 
HETATM    8  C20 UNL     1      29.667  19.696  13.624  1.00  0.00     0.015 A 
HETATM    9  C21 UNL     1      30.236  20.782  12.995  1.00  0.00    -0.011 A 
HETATM   10  C22 UNL     1      30.389  22.008  13.636  1.00  0.00     0.002 A 
HETATM   11  C23 UNL     1      29.952  22.115  14.926  1.00  0.00     0.016 A 
HETATM   12  C24 UNL     1      30.113  23.358  15.558  1.00  0.00     0.027 A 
HETATM   13  C25 UNL     1      30.686  24.417  14.900  1.00  0.00     0.048 A 
HETATM   14  N4  UNL     1      30.823  25.652  15.586  1.00  0.00    -0.102 NA
HETATM   15  C26 UNL     1      31.129  24.325  13.600  1.00  0.00     0.057 A 
HETATM   16  C27 UNL     1      30.975  23.098  12.966  1.00  0.00     0.048 A 
ENDROOT
BRANCH   1  17
HETATM   17  C8  UNL     1      32.027  24.088  10.977  1.00  0.00     0.131 C 
BRANCH  17  18
HETATM   18  C7  UNL     1      33.484  24.242  11.228  1.00  0.00     0.048 C 
BRANCH  18  19
HETATM   19  C6  UNL     1      34.278  24.086   9.988  1.00  0.00     0.238 C 
BRANCH  19  20
HETATM   20  N1  UNL     1      35.240  25.046   9.617  1.00  0.00    -0.071 N 
HETATM   21  C3  UNL     1      35.109  26.363  10.142  1.00  0.00     0.272 C 
BRANCH  20  22
HETATM   22  C2  UNL     1      36.584  24.582  10.092  1.00  0.00     0.232 C 
HETATM   23  C1  UNL     1      37.656  25.467   9.517  1.00  0.00     0.035 C 
ENDBRANCH  20  22
BRANCH  20  24
HETATM   24  C4  UNL     1      35.448  25.175   8.172  1.00  0.00     0.232 C 
HETATM   25  C5  UNL     1      34.974  23.998   7.390  1.00  0.00     0.035 C 
ENDBRANCH  20  24
ENDBRANCH  19  20
ENDBRANCH  18  19
ENDBRANCH  17  18
ENDBRANCH   1  17
BRANCH   2  26
HETATM   26  C10 UNL     1      31.658  21.644   9.710  1.00  0.00    -0.008 A 
HETATM   27  C11 UNL     1      30.883  22.211   8.725  1.00  0.00     0.014 A 
HETATM   28  C12 UNL     1      31.239  22.070   7.418  1.00  0.00     0.001 A 
HETATM   29  C13 UNL     1      32.366  21.365   7.090  1.00  0.00     0.000 A 
HETATM   30  C14 UNL     1      33.138  20.800   8.068  1.00  0.00     0.001 A 
HETATM   31  C15 UNL     1      32.803  20.926   9.395  1.00  0.00     0.014 A 
ENDBRANCH   2  26
TORSDOF 7
ENDMDL
