MODEL 2
REMARK VINA RESULT: -7.788199684      1.995      6.299
REMARK  7 active torsions:
REMARK  status: ('A' for Active; 'I' for Inactive)
REMARK    1  A    between atoms: C2_2  and  N1_3 
REMARK    2  A    between atoms: N1_3  and  C4_5 
REMARK    3  A    between atoms: N1_3  and  C6_7 
REMARK    4  A    between atoms: C6_7  and  C7_8 
REMARK    5  A    between atoms: C7_8  and  C8_9 
REMARK    6  A    between atoms: C8_9  and  N2_10 
REMARK    7  A    between atoms: C9_11  and  C10_12 
ROOT
HETATM    1  N2  UNL     1      36.209  23.802   5.865  1.00  0.00    -0.345 N 
HETATM    2  C9  UNL     1      36.540  25.025   6.270  1.00  0.00     0.056 A 
HETATM    3  C16 UNL     1      36.153  25.557   7.488  1.00  0.00     0.005 A 
HETATM    4  C17 UNL     1      36.524  26.836   7.867  1.00  0.00     0.041 A 
HETATM    5  C18 UNL     1      36.119  27.327   9.086  1.00  0.00     0.047 A 
HETATM    6  N3  UNL     1      36.536  28.656   9.416  1.00  0.00    -0.102 NA
HETATM    7  C19 UNL     1      35.354  26.591   9.953  1.00  0.00     0.027 A 
HETATM    8  C20 UNL     1      34.983  25.305   9.571  1.00  0.00     0.015 A 
HETATM    9  C21 UNL     1      35.385  24.806   8.351  1.00  0.00    -0.011 A 
HETATM   10  C22 UNL     1      35.038  23.526   7.929  1.00  0.00     0.002 A 
HETATM   11  C23 UNL     1      34.277  22.760   8.765  1.00  0.00     0.016 A 
HETATM   12  C24 UNL     1      33.936  21.471   8.325  1.00  0.00     0.027 A 
HETATM   13  C25 UNL     1      34.354  21.008   7.102  1.00  0.00     0.048 A 
HETATM   14  N4  UNL     1      33.980  19.697   6.706  1.00  0.00    -0.102 NA
HETATM   15  C26 UNL     1      35.122  21.769   6.249  1.00  0.00     0.057 A 
HETATM   16  C27 UNL     1      35.464  23.045   6.676  1.00  0.00     0.048 A 
ENDROOT
BRANCH   1  17
HETATM   17  C8  UNL     1      36.659  23.346   4.549  1.00  0.00     0.131 C 
BRANCH  17  18
HETATM   18  C7  UNL     1      37.878  22.496   4.573  1.00  0.00     0.048 C 
BRANCH  18  19
HETATM   19  C6  UNL     1      38.564  22.477   3.260  1.00  0.00     0.238 C 
BRANCH  19  20
HETATM   20  N1  UNL     1      39.900  22.906   3.134  1.00  0.00    -0.071 N 
HETATM   21  C3  UNL     1      40.656  23.103   4.325  1.00  0.00     0.272 C 
BRANCH  20  22
HETATM   22  C2  UNL     1      40.663  21.868   2.369  1.00  0.00     0.232 C 
HETATM   23  C1  UNL     1      42.139  22.135   2.490  1.00  0.00     0.035 C 
ENDBRANCH  20  22
BRANCH  20  24
HETATM   24  C4  UNL     1      40.082  24.101   2.305  1.00  0.00     0.232 C 
HETATM   25  C5  UNL     1      38.849  24.522   1.581  1.00  0.00     0.035 C 
ENDBRANCH  20  24
ENDBRANCH  19  20
ENDBRANCH  18  19
ENDBRANCH  17  18
ENDBRANCH   1  17
BRANCH   2  26
HETATM   26  C10 UNL     1      37.379  25.874   5.447  1.00  0.00    -0.008 A 
HETATM   27  C11 UNL     1      38.736  25.879   5.677  1.00  0.00     0.014 A 
HETATM   28  C12 UNL     1      39.548  26.666   4.920  1.00  0.00     0.001 A 
HETATM   29  C13 UNL     1      39.013  27.450   3.934  1.00  0.00     0.000 A 
HETATM   30  C14 UNL     1      37.665  27.448   3.703  1.00  0.00     0.001 A 
HETATM   31  C15 UNL     1      36.820  26.662   4.451  1.00  0.00     0.014 A 
ENDBRANCH   2  26
TORSDOF 7
ENDMDL
