MODEL 18
REMARK VINA RESULT: -7.373674553      2.589      7.361
REMARK  7 active torsions:
REMARK  status: ('A' for Active; 'I' for Inactive)
REMARK    1  A    between atoms: C2_2  and  N1_3 
REMARK    2  A    between atoms: N1_3  and  C4_5 
REMARK    3  A    between atoms: N1_3  and  C6_7 
REMARK    4  A    between atoms: C6_7  and  C7_8 
REMARK    5  A    between atoms: C7_8  and  C8_9 
REMARK    6  A    between atoms: C8_9  and  N2_10 
REMARK    7  A    between atoms: C9_11  and  C10_12 
ROOT
HETATM    1  N2  UNL     1      40.491  25.879   6.180  1.00  0.00    -0.345 N 
HETATM    2  C9  UNL     1      39.342  25.209   6.170  1.00  0.00     0.056 A 
HETATM    3  C16 UNL     1      38.513  25.099   7.273  1.00  0.00     0.005 A 
HETATM    4  C17 UNL     1      37.324  24.391   7.214  1.00  0.00     0.041 A 
HETATM    5  C18 UNL     1      36.528  24.306   8.332  1.00  0.00     0.047 A 
HETATM    6  N3  UNL     1      35.314  23.559   8.203  1.00  0.00    -0.102 NA
HETATM    7  C19 UNL     1      36.868  24.902   9.518  1.00  0.00     0.027 A 
HETATM    8  C20 UNL     1      38.063  25.615   9.576  1.00  0.00     0.015 A 
HETATM    9  C21 UNL     1      38.865  25.705   8.459  1.00  0.00    -0.011 A 
HETATM   10  C22 UNL     1      40.068  26.406   8.471  1.00  0.00     0.002 A 
HETATM   11  C23 UNL     1      40.442  27.016   9.635  1.00  0.00     0.016 A 
HETATM   12  C24 UNL     1      41.657  27.720   9.631  1.00  0.00     0.027 A 
HETATM   13  C25 UNL     1      42.431  27.787   8.499  1.00  0.00     0.048 A 
HETATM   14  N4  UNL     1      43.650  28.512   8.550  1.00  0.00    -0.102 NA
HETATM   15  C26 UNL     1      42.067  27.177   7.319  1.00  0.00     0.057 A 
HETATM   16  C27 UNL     1      40.866  26.479   7.315  1.00  0.00     0.048 A 
ENDROOT
BRANCH   1  17
HETATM   17  C8  UNL     1      41.299  25.917   4.961  1.00  0.00     0.131 C 
BRANCH  17  18
HETATM   18  C7  UNL     1      42.297  24.821   4.846  1.00  0.00     0.048 C 
BRANCH  18  19
HETATM   19  C6  UNL     1      43.219  25.029   3.706  1.00  0.00     0.238 C 
BRANCH  19  20
HETATM   20  N1  UNL     1      43.170  24.194   2.573  1.00  0.00    -0.071 N 
HETATM   21  C3  UNL     1      44.345  23.470   2.222  1.00  0.00     0.272 C 
BRANCH  20  22
HETATM   22  C2  UNL     1      42.131  23.138   2.804  1.00  0.00     0.232 C 
HETATM   23  C1  UNL     1      42.690  21.791   2.436  1.00  0.00     0.035 C 
ENDBRANCH  20  22
BRANCH  20  24
HETATM   24  C4  UNL     1      42.684  24.846   1.353  1.00  0.00     0.232 C 
HETATM   25  C5  UNL     1      41.200  24.969   1.289  1.00  0.00     0.035 C 
ENDBRANCH  20  24
ENDBRANCH  19  20
ENDBRANCH  18  19
ENDBRANCH  17  18
ENDBRANCH   1  17
BRANCH   2  26
HETATM   26  C10 UNL     1      38.869  24.572   4.956  1.00  0.00    -0.008 A 
HETATM   27  C11 UNL     1      39.075  23.220   4.802  1.00  0.00     0.014 A 
HETATM   28  C12 UNL     1      38.642  22.594   3.673  1.00  0.00     0.001 A 
HETATM   29  C13 UNL     1      38.004  23.311   2.697  1.00  0.00     0.000 A 
HETATM   30  C14 UNL     1      37.799  24.655   2.847  1.00  0.00     0.001 A 
HETATM   31  C15 UNL     1      38.225  25.314   3.977  1.00  0.00     0.014 A 
ENDBRANCH   2  26
TORSDOF 7
ENDMDL
