MODEL 4
REMARK VINA RESULT: -5.156200672      8.170     11.477
REMARK  5 active torsions:
REMARK  status: ('A' for Active; 'I' for Inactive)
REMARK    1  A    between atoms: S1_2  and  C2_3 
REMARK    2  A    between atoms: C2_3  and  C3_4 
REMARK    3  A    between atoms: C4_6  and  N1_7 
REMARK    4  A    between atoms: C11_19  and  O2_20 
REMARK    5  A    between atoms: C12_22  and  O3_23 
ROOT
HETATM    1  C3  UNL     1      58.078  66.183  24.174  1.00  0.00     0.165 C 
HETATM    2  O1  UNL     1      58.557  66.657  25.378  1.00  0.00    -0.355 OA
HETATM    3  C4  UNL     1      59.876  66.198  25.364  1.00  0.00     0.261 C 
HETATM    4  C11 UNL     1      59.657  64.719  25.115  1.00  0.00     0.198 C 
HETATM    5  C12 UNL     1      58.629  64.787  23.983  1.00  0.00     0.180 C 
ENDROOT
BRANCH   3   6
HETATM    6  N1  UNL     1      60.577  66.472  26.578  1.00  0.00    -0.312 N 
HETATM    7  C5  UNL     1      59.985  66.933  27.702  1.00  0.00     0.096 A 
HETATM    8  C6  UNL     1      60.909  67.105  28.717  1.00  0.00     0.036 A 
HETATM    9  C7  UNL     1      62.127  66.733  28.188  1.00  0.00     0.051 A 
HETATM   10  C8  UNL     1      63.372  66.708  28.752  1.00  0.00     0.131 A 
HETATM   11  C10 UNL     1      61.876  66.357  26.887  1.00  0.00     0.124 A 
HETATM   12  N2  UNL     1      63.548  67.111  30.097  1.00  0.00    -0.082 NA
HETATM   13  N3  UNL     1      64.389  66.286  27.965  1.00  0.00    -0.340 N 
HETATM   14  C9  UNL     1      64.155  65.918  26.702  1.00  0.00     0.183 A 
ATOM     15  H3  UNL     1      65.338  66.248  28.337  1.00  0.00     0.167 HD
HETATM   16  N4  UNL     1      62.910  65.945  26.141  1.00  0.00    -0.338 N 
ATOM     17  H4  UNL     1      62.770  65.657  25.173  1.00  0.00     0.168 HD
ENDBRANCH   3   6
BRANCH   4  18
HETATM   18  O2  UNL     1      60.811  64.078  24.718  1.00  0.00    -0.388 OA
ATOM     19  H2  UNL     1      60.640  63.212  24.364  1.00  0.00     0.210 HD
ENDBRANCH   4  18
BRANCH   1  20
HETATM   20  C2  UNL     1      56.575  66.170  24.083  1.00  0.00     0.108 C 
BRANCH  20  21
HETATM   21  S1  UNL     1      55.930  67.493  23.045  1.00  0.00    -0.171 SA
HETATM   22  C1  UNL     1      55.796  68.991  24.074  1.00  0.00     0.089 C 
ENDBRANCH  20  21
ENDBRANCH   1  20
BRANCH   5  23
HETATM   23  O3  UNL     1      59.332  64.754  22.767  1.00  0.00    -0.390 OA
ATOM     24  H3  UNL     1      59.805  63.931  22.719  1.00  0.00     0.210 HD
ENDBRANCH   5  23
TORSDOF 5
ENDMDL
