MODEL 5
REMARK VINA RESULT: -5.130083002      3.239      5.925
REMARK  5 active torsions:
REMARK  status: ('A' for Active; 'I' for Inactive)
REMARK    1  A    between atoms: S1_2  and  C2_3 
REMARK    2  A    between atoms: C2_3  and  C3_4 
REMARK    3  A    between atoms: C4_6  and  N1_7 
REMARK    4  A    between atoms: C11_19  and  O2_20 
REMARK    5  A    between atoms: C12_22  and  O3_23 
ROOT
HETATM    1  C3  UNL     1      54.877  74.535  20.155  1.00  0.00     0.165 C 
HETATM    2  O1  UNL     1      55.072  73.519  21.067  1.00  0.00    -0.355 OA
HETATM    3  C4  UNL     1      56.442  73.276  20.940  1.00  0.00     0.261 C 
HETATM    4  C11 UNL     1      56.549  73.043  19.446  1.00  0.00     0.198 C 
HETATM    5  C12 UNL     1      55.707  74.214  18.931  1.00  0.00     0.180 C 
ENDROOT
BRANCH   3   6
HETATM    6  N1  UNL     1      56.889  72.168  21.722  1.00  0.00    -0.312 N 
HETATM    7  C5  UNL     1      58.161  72.011  22.149  1.00  0.00     0.096 A 
HETATM    8  C6  UNL     1      58.300  70.847  22.884  1.00  0.00     0.036 A 
HETATM    9  C7  UNL     1      57.052  70.262  22.906  1.00  0.00     0.051 A 
HETATM   10  C8  UNL     1      56.623  69.102  23.490  1.00  0.00     0.131 A 
HETATM   11  C10 UNL     1      56.228  71.099  22.188  1.00  0.00     0.124 A 
HETATM   12  N2  UNL     1      57.534  68.295  24.212  1.00  0.00    -0.082 NA
HETATM   13  N3  UNL     1      55.316  68.789  23.334  1.00  0.00    -0.340 N 
HETATM   14  C9  UNL     1      54.508  69.595  22.639  1.00  0.00     0.183 A 
ATOM     15  H3  UNL     1      54.945  67.934  23.749  1.00  0.00     0.167 HD
HETATM   16  N4  UNL     1      54.939  70.753  22.057  1.00  0.00    -0.338 N 
ATOM     17  H4  UNL     1      54.294  71.343  21.533  1.00  0.00     0.168 HD
ENDBRANCH   3   6
BRANCH   4  18
HETATM   18  O2  UNL     1      57.850  73.115  18.996  1.00  0.00    -0.388 OA
ATOM     19  H2  UNL     1      57.992  72.592  18.216  1.00  0.00     0.210 HD
ENDBRANCH   4  18
BRANCH   1  20
HETATM   20  C2  UNL     1      53.435  74.737  19.772  1.00  0.00     0.108 C 
BRANCH  20  21
HETATM   21  S1  UNL     1      53.092  74.244  18.074  1.00  0.00    -0.171 SA
HETATM   22  C1  UNL     1      52.387  75.685  17.210  1.00  0.00     0.089 C 
ENDBRANCH  20  21
ENDBRANCH   1  20
BRANCH   5  23
HETATM   23  O3  UNL     1      56.577  75.291  18.693  1.00  0.00    -0.390 OA
ATOM     24  H3  UNL     1      56.576  75.850  19.462  1.00  0.00     0.210 HD
ENDBRANCH   5  23
TORSDOF 5
ENDMDL
