MODEL 1
REMARK VINA RESULT: -6.583936289      0.000      0.000
REMARK  5 active torsions:
REMARK  status: ('A' for Active; 'I' for Inactive)
REMARK    1  A    between atoms: S1_2  and  C2_3 
REMARK    2  A    between atoms: C2_3  and  C3_4 
REMARK    3  A    between atoms: C4_6  and  N1_7 
REMARK    4  A    between atoms: C11_19  and  O2_20 
REMARK    5  A    between atoms: C12_22  and  O3_23 
ROOT
HETATM    1  C3  UNL     1      58.092  71.492  22.018  1.00  0.00     0.165 C 
HETATM    2  O1  UNL     1      57.031  71.755  21.176  1.00  0.00    -0.355 OA
HETATM    3  C4  UNL     1      57.572  72.720  20.323  1.00  0.00     0.261 C 
HETATM    4  C11 UNL     1      58.068  73.740  21.329  1.00  0.00     0.198 C 
HETATM    5  C12 UNL     1      58.764  72.812  22.329  1.00  0.00     0.180 C 
ENDROOT
BRANCH   3   6
HETATM    6  N1  UNL     1      56.618  73.249  19.401  1.00  0.00    -0.312 N 
HETATM    7  C5  UNL     1      56.755  73.189  18.058  1.00  0.00     0.096 A 
HETATM    8  C6  UNL     1      55.680  73.781  17.420  1.00  0.00     0.036 A 
HETATM    9  C7  UNL     1      54.844  74.226  18.422  1.00  0.00     0.051 A 
HETATM   10  C8  UNL     1      53.644  74.880  18.355  1.00  0.00     0.131 A 
HETATM   11  C10 UNL     1      55.455  73.882  19.607  1.00  0.00     0.124 A 
HETATM   12  N2  UNL     1      53.082  75.200  17.097  1.00  0.00    -0.082 NA
HETATM   13  N3  UNL     1      53.054  75.191  19.533  1.00  0.00    -0.340 N 
HETATM   14  C9  UNL     1      53.639  74.860  20.688  1.00  0.00     0.183 A 
ATOM     15  H3  UNL     1      52.158  75.679  19.540  1.00  0.00     0.167 HD
HETATM   16  N4  UNL     1      54.837  74.207  20.751  1.00  0.00    -0.338 N 
ATOM     17  H4  UNL     1      55.254  73.971  21.651  1.00  0.00     0.168 HD
ENDBRANCH   3   6
BRANCH   4  18
HETATM   18  O2  UNL     1      58.950  74.640  20.771  1.00  0.00    -0.388 OA
ATOM     19  H2  UNL     1      59.857  74.407  20.934  1.00  0.00     0.210 HD
ENDBRANCH   4  18
BRANCH   1  20
HETATM   20  C2  UNL     1      57.696  70.793  23.291  1.00  0.00     0.108 C 
BRANCH  20  21
HETATM   21  S1  UNL     1      56.717  69.311  22.994  1.00  0.00    -0.171 SA
HETATM   22  C1  UNL     1      54.959  69.783  23.070  1.00  0.00     0.089 C 
ENDBRANCH  20  21
ENDBRANCH   1  20
BRANCH   5  23
HETATM   23  O3  UNL     1      60.114  72.719  21.954  1.00  0.00    -0.390 OA
ATOM     24  H3  UNL     1      60.644  72.746  22.742  1.00  0.00     0.210 HD
ENDBRANCH   5  23
TORSDOF 5
ENDMDL
