MODEL 3
REMARK VINA RESULT: -5.290544379      7.174     10.463
REMARK  5 active torsions:
REMARK  status: ('A' for Active; 'I' for Inactive)
REMARK    1  A    between atoms: S1_2  and  C2_3 
REMARK    2  A    between atoms: C2_3  and  C3_4 
REMARK    3  A    between atoms: C4_6  and  N1_7 
REMARK    4  A    between atoms: C11_19  and  O2_20 
REMARK    5  A    between atoms: C12_22  and  O3_23 
ROOT
HETATM    1  C3  UNL     1      56.819  67.572  23.783  1.00  0.00     0.165 C 
HETATM    2  O1  UNL     1      58.048  67.504  24.404  1.00  0.00    -0.355 OA
HETATM    3  C4  UNL     1      58.451  66.200  24.105  1.00  0.00     0.261 C 
HETATM    4  C11 UNL     1      57.256  65.414  24.606  1.00  0.00     0.198 C 
HETATM    5  C12 UNL     1      56.118  66.251  24.014  1.00  0.00     0.180 C 
ENDROOT
BRANCH   3   6
HETATM    6  N1  UNL     1      59.678  65.834  24.739  1.00  0.00    -0.312 N 
HETATM    7  C5  UNL     1      60.630  65.074  24.154  1.00  0.00     0.096 A 
HETATM    8  C6  UNL     1      61.705  64.882  25.002  1.00  0.00     0.036 A 
HETATM    9  C7  UNL     1      61.396  65.557  26.165  1.00  0.00     0.051 A 
HETATM   10  C8  UNL     1      62.102  65.699  27.327  1.00  0.00     0.131 A 
HETATM   11  C10 UNL     1      60.155  66.119  25.958  1.00  0.00     0.124 A 
HETATM   12  N2  UNL     1      63.372  65.089  27.462  1.00  0.00    -0.082 NA
HETATM   13  N3  UNL     1      61.524  66.434  28.305  1.00  0.00    -0.340 N 
HETATM   14  C9  UNL     1      60.321  66.983  28.114  1.00  0.00     0.183 A 
ATOM     15  H3  UNL     1      62.009  66.570  29.193  1.00  0.00     0.167 HD
HETATM   16  N4  UNL     1      59.618  66.840  26.952  1.00  0.00    -0.338 N 
ATOM     17  H4  UNL     1      58.701  67.273  26.842  1.00  0.00     0.168 HD
ENDBRANCH   3   6
BRANCH   4  18
HETATM   18  O2  UNL     1      57.240  64.121  24.126  1.00  0.00    -0.388 OA
ATOM     19  H2  UNL     1      56.736  63.537  24.681  1.00  0.00     0.210 HD
ENDBRANCH   4  18
BRANCH   1  20
HETATM   20  C2  UNL     1      55.961  68.712  24.262  1.00  0.00     0.108 C 
BRANCH  20  21
HETATM   21  S1  UNL     1      55.638  69.929  22.975  1.00  0.00    -0.171 SA
HETATM   22  C1  UNL     1      57.231  70.676  22.505  1.00  0.00     0.089 C 
ENDBRANCH  20  21
ENDBRANCH   1  20
BRANCH   5  23
HETATM   23  O3  UNL     1      55.791  65.701  22.764  1.00  0.00    -0.390 OA
ATOM     24  H3  UNL     1      56.291  64.901  22.650  1.00  0.00     0.210 HD
ENDBRANCH   5  23
TORSDOF 5
ENDMDL
