MODEL 2
REMARK VINA RESULT: -7.730804654      1.100      2.421
REMARK  5 active torsions:
REMARK  status: ('A' for Active; 'I' for Inactive)
REMARK    1  A    between atoms: C4_9  and  C5_10 
REMARK    2  A    between atoms: C6_12  and  C7_13 
REMARK    3  A    between atoms: C7_13  and  O2_14 
REMARK    4  A    between atoms: C8_16  and  O3_17 
REMARK    5  A    between atoms: C9_19  and  O4_20 
ROOT
HETATM    1  N1  UNL     1      52.254  41.000  17.898  1.00  0.00    -0.080 NA
HETATM    2  C1  UNL     1      53.065  40.639  19.000  1.00  0.00     0.147 A 
HETATM    3  N2  UNL     1      52.742  40.883  20.287  1.00  0.00    -0.339 N 
ATOM      4  H2  UNL     1      51.839  41.317  20.474  1.00  0.00     0.167 HD
HETATM    5  C2  UNL     1      53.522  40.597  21.338  1.00  0.00     0.182 A 
HETATM    6  N3  UNL     1      54.738  40.010  21.147  1.00  0.00    -0.349 N 
ATOM      7  H3  UNL     1      55.348  39.786  21.933  1.00  0.00     0.167 HD
HETATM    8  C3  UNL     1      55.104  39.737  19.874  1.00  0.00     0.091 A 
HETATM    9  C4  UNL     1      56.260  39.093  19.449  1.00  0.00     0.086 A 
HETATM   10  N4  UNL     1      56.124  39.004  18.099  1.00  0.00    -0.299 N 
ATOM     11  H4  UNL     1      56.804  38.575  17.471  1.00  0.00     0.186 HD
HETATM   12  N5  UNL     1      54.965  39.563  17.710  1.00  0.00    -0.295 N 
ATOM     13  H5  UNL     1      54.636  39.625  16.747  1.00  0.00     0.187 HD
HETATM   14  C10 UNL     1      54.296  40.037  18.803  1.00  0.00     0.118 A 
ENDROOT
BRANCH   9  15
HETATM   15  C5  UNL     1      57.435  38.783  20.235  1.00  0.00     0.207 C 
HETATM   16  O1  UNL     1      57.128  37.608  21.019  1.00  0.00    -0.367 OA
HETATM   17  C6  UNL     1      57.958  37.520  22.079  1.00  0.00     0.177 C 
HETATM   18  C8  UNL     1      58.802  38.822  22.074  1.00  0.00     0.180 C 
HETATM   19  C9  UNL     1      57.713  39.712  21.425  1.00  0.00     0.184 C 
BRANCH  17  20
HETATM   20  C7  UNL     1      57.321  37.427  23.441  1.00  0.00     0.198 C 
BRANCH  20  21
HETATM   21  O2  UNL     1      56.179  36.650  23.494  1.00  0.00    -0.398 OA
ATOM     22  H2  UNL     1      55.549  36.913  24.155  1.00  0.00     0.209 HD
ENDBRANCH  20  21
ENDBRANCH  17  20
BRANCH  18  23
HETATM   23  O3  UNL     1      59.811  38.581  21.134  1.00  0.00    -0.390 OA
ATOM     24  H3  UNL     1      60.168  39.441  20.944  1.00  0.00     0.210 HD
ENDBRANCH  18  23
BRANCH  19  25
HETATM   25  O4  UNL     1      58.330  40.900  20.989  1.00  0.00    -0.390 OA
ATOM     26  H4  UNL     1      58.546  41.453  21.730  1.00  0.00     0.210 HD
ENDBRANCH  19  25
ENDBRANCH   9  15
TORSDOF 5
ENDMDL
