MODEL 4
REMARK VINA RESULT: -7.116997368      4.424      7.122
REMARK  5 active torsions:
REMARK  status: ('A' for Active; 'I' for Inactive)
REMARK    1  A    between atoms: C4_9  and  C5_10 
REMARK    2  A    between atoms: C6_12  and  C7_13 
REMARK    3  A    between atoms: C7_13  and  O2_14 
REMARK    4  A    between atoms: C8_16  and  O3_17 
REMARK    5  A    between atoms: C9_19  and  O4_20 
ROOT
HETATM    1  N1  UNL     1      64.405  35.669  19.675  1.00  0.00    -0.080 NA
HETATM    2  C1  UNL     1      63.792  36.693  20.434  1.00  0.00     0.147 A 
HETATM    3  N2  UNL     1      64.468  37.556  21.220  1.00  0.00    -0.339 N 
ATOM      4  H2  UNL     1      65.485  37.489  21.232  1.00  0.00     0.167 HD
HETATM    5  C2  UNL     1      63.900  38.497  21.987  1.00  0.00     0.182 A 
HETATM    6  N3  UNL     1      62.543  38.636  22.006  1.00  0.00    -0.349 N 
ATOM      7  H3  UNL     1      62.092  39.344  22.585  1.00  0.00     0.167 HD
HETATM    8  C3  UNL     1      61.822  37.799  21.228  1.00  0.00     0.091 A 
HETATM    9  C4  UNL     1      60.444  37.797  21.043  1.00  0.00     0.086 A 
HETATM   10  N4  UNL     1      60.223  36.818  20.125  1.00  0.00    -0.299 N 
ATOM     11  H4  UNL     1      59.309  36.557  19.759  1.00  0.00     0.186 HD
HETATM   12  N5  UNL     1      61.386  36.244  19.770  1.00  0.00    -0.295 N 
ATOM     13  H5  UNL     1      61.484  35.483  19.098  1.00  0.00     0.187 HD
HETATM   14  C10 UNL     1      62.415  36.836  20.445  1.00  0.00     0.118 A 
ENDROOT
BRANCH   9  15
HETATM   15  C5  UNL     1      59.453  38.521  21.810  1.00  0.00     0.207 C 
HETATM   16  O1  UNL     1      58.990  37.635  22.855  1.00  0.00    -0.367 OA
HETATM   17  C6  UNL     1      57.788  38.038  23.315  1.00  0.00     0.177 C 
HETATM   18  C8  UNL     1      57.351  39.215  22.402  1.00  0.00     0.180 C 
HETATM   19  C9  UNL     1      58.088  38.714  21.135  1.00  0.00     0.184 C 
BRANCH  17  20
HETATM   20  C7  UNL     1      56.669  37.029  23.277  1.00  0.00     0.198 C 
BRANCH  20  21
HETATM   21  O2  UNL     1      56.980  35.843  22.640  1.00  0.00    -0.398 OA
ATOM     22  H2  UNL     1      57.637  35.316  23.079  1.00  0.00     0.209 HD
ENDBRANCH  20  21
ENDBRANCH  17  20
BRANCH  18  23
HETATM   23  O3  UNL     1      58.032  40.325  22.914  1.00  0.00    -0.390 OA
ATOM     24  H3  UNL     1      57.476  41.065  22.699  1.00  0.00     0.210 HD
ENDBRANCH  18  23
BRANCH  19  25
HETATM   25  O4  UNL     1      58.138  39.778  20.216  1.00  0.00    -0.390 OA
ATOM     26  H4  UNL     1      57.978  40.605  20.656  1.00  0.00     0.210 HD
ENDBRANCH  19  25
ENDBRANCH   9  15
TORSDOF 5
ENDMDL
