MODEL 5
REMARK VINA RESULT: -6.671275578      4.004      6.653
REMARK  5 active torsions:
REMARK  status: ('A' for Active; 'I' for Inactive)
REMARK    1  A    between atoms: C4_9  and  C5_10 
REMARK    2  A    between atoms: C6_12  and  C7_13 
REMARK    3  A    between atoms: C7_13  and  O2_14 
REMARK    4  A    between atoms: C8_16  and  O3_17 
REMARK    5  A    between atoms: C9_19  and  O4_20 
ROOT
HETATM    1  N1  UNL     1      64.316  37.136  21.044  1.00  0.00    -0.080 NA
HETATM    2  C1  UNL     1      63.244  37.967  21.449  1.00  0.00     0.147 A 
HETATM    3  N2  UNL     1      63.385  39.043  22.251  1.00  0.00    -0.339 N 
ATOM      4  H2  UNL     1      64.329  39.292  22.546  1.00  0.00     0.167 HD
HETATM    5  C2  UNL     1      62.376  39.808  22.688  1.00  0.00     0.182 A 
HETATM    6  N3  UNL     1      61.094  39.524  22.321  1.00  0.00    -0.349 N 
ATOM      7  H3  UNL     1      60.311  40.092  22.644  1.00  0.00     0.167 HD
HETATM    8  C3  UNL     1      60.901  38.459  21.510  1.00  0.00     0.091 A 
HETATM    9  C4  UNL     1      59.700  38.022  20.963  1.00  0.00     0.086 A 
HETATM   10  N4  UNL     1      60.046  36.968  20.176  1.00  0.00    -0.299 N 
ATOM     11  H4  UNL     1      59.394  36.416  19.620  1.00  0.00     0.186 HD
HETATM   12  N5  UNL     1      61.373  36.759  20.237  1.00  0.00    -0.295 N 
ATOM     13  H5  UNL     1      61.876  36.025  19.737  1.00  0.00     0.187 HD
HETATM   14  C10 UNL     1      61.945  37.679  21.068  1.00  0.00     0.118 A 
ENDROOT
BRANCH   9  15
HETATM   15  C5  UNL     1      58.364  38.450  21.319  1.00  0.00     0.207 C 
HETATM   16  O1  UNL     1      57.475  37.989  20.277  1.00  0.00    -0.367 OA
HETATM   17  C6  UNL     1      56.332  38.705  20.283  1.00  0.00     0.177 C 
HETATM   18  C8  UNL     1      56.534  39.829  21.333  1.00  0.00     0.180 C 
HETATM   19  C9  UNL     1      58.068  39.946  21.145  1.00  0.00     0.184 C 
BRANCH  17  20
HETATM   20  C7  UNL     1      55.945  39.386  18.995  1.00  0.00     0.198 C 
BRANCH  20  21
HETATM   21  O2  UNL     1      56.603  38.919  17.873  1.00  0.00    -0.398 OA
ATOM     22  H2  UNL     1      56.738  37.979  17.854  1.00  0.00     0.209 HD
ENDBRANCH  20  21
ENDBRANCH  17  20
BRANCH  18  23
HETATM   23  O3  UNL     1      56.274  39.211  22.561  1.00  0.00    -0.390 OA
ATOM     24  H3  UNL     1      56.397  38.285  22.391  1.00  0.00     0.210 HD
ENDBRANCH  18  23
BRANCH  19  25
HETATM   25  O4  UNL     1      58.581  40.680  22.230  1.00  0.00    -0.390 OA
ATOM     26  H4  UNL     1      59.422  41.060  22.006  1.00  0.00     0.210 HD
ENDBRANCH  19  25
ENDBRANCH   9  15
TORSDOF 5
ENDMDL
