MODEL 3
REMARK VINA RESULT: -7.539631678      4.035      6.728
REMARK  5 active torsions:
REMARK  status: ('A' for Active; 'I' for Inactive)
REMARK    1  A    between atoms: C4_9  and  C5_10 
REMARK    2  A    between atoms: C6_12  and  C7_13 
REMARK    3  A    between atoms: C7_13  and  O2_14 
REMARK    4  A    between atoms: C8_16  and  O3_17 
REMARK    5  A    between atoms: C9_19  and  O4_20 
ROOT
HETATM    1  N1  UNL     1      64.232  38.421  21.853  1.00  0.00    -0.080 NA
HETATM    2  C1  UNL     1      63.061  37.839  21.313  1.00  0.00     0.147 A 
HETATM    3  N2  UNL     1      63.057  36.981  20.271  1.00  0.00    -0.339 N 
ATOM      4  H2  UNL     1      63.958  36.707  19.880  1.00  0.00     0.167 HD
HETATM    5  C2  UNL     1      61.955  36.462  19.712  1.00  0.00     0.182 A 
HETATM    6  N3  UNL     1      60.724  36.789  20.198  1.00  0.00    -0.349 N 
ATOM      7  H3  UNL     1      59.873  36.408  19.786  1.00  0.00     0.167 HD
HETATM    8  C3  UNL     1      60.676  37.640  21.248  1.00  0.00     0.091 A 
HETATM    9  C4  UNL     1      59.546  38.062  21.941  1.00  0.00     0.086 A 
HETATM   10  N4  UNL     1      60.031  38.847  22.940  1.00  0.00    -0.299 N 
ATOM     11  H4  UNL     1      59.461  39.316  23.642  1.00  0.00     0.186 HD
HETATM   12  N5  UNL     1      61.372  38.915  22.867  1.00  0.00    -0.295 N 
ATOM     13  H5  UNL     1      61.969  39.445  23.503  1.00  0.00     0.187 HD
HETATM   14  C10 UNL     1      61.813  38.167  21.813  1.00  0.00     0.118 A 
ENDROOT
BRANCH   9  15
HETATM   15  C5  UNL     1      58.162  37.884  21.557  1.00  0.00     0.207 C 
HETATM   16  O1  UNL     1      57.962  38.612  20.324  1.00  0.00    -0.367 OA
HETATM   17  C6  UNL     1      56.653  38.877  20.142  1.00  0.00     0.177 C 
HETATM   18  C8  UNL     1      55.934  38.403  21.432  1.00  0.00     0.180 C 
HETATM   19  C9  UNL     1      57.129  38.663  22.383  1.00  0.00     0.184 C 
BRANCH  17  20
HETATM   20  C7  UNL     1      56.269  40.321  19.943  1.00  0.00     0.198 C 
BRANCH  20  21
HETATM   21  O2  UNL     1      55.386  40.547  18.905  1.00  0.00    -0.398 OA
ATOM     22  H2  UNL     1      55.282  41.460  18.663  1.00  0.00     0.209 HD
ENDBRANCH  20  21
ENDBRANCH  17  20
BRANCH  18  23
HETATM   23  O3  UNL     1      55.783  37.022  21.261  1.00  0.00    -0.390 OA
ATOM     24  H3  UNL     1      54.892  36.844  21.539  1.00  0.00     0.210 HD
ENDBRANCH  18  23
BRANCH  19  25
HETATM   25  O4  UNL     1      56.867  38.000  23.596  1.00  0.00    -0.390 OA
ATOM     26  H4  UNL     1      55.967  37.699  23.623  1.00  0.00     0.210 HD
ENDBRANCH  19  25
ENDBRANCH   9  15
TORSDOF 5
ENDMDL
