MODEL 9
REMARK VINA RESULT: -8.343906844      3.150      8.580
REMARK  5 active torsions:
REMARK  status: ('A' for Active; 'I' for Inactive)
REMARK    1  A    between atoms: N3_4  and  C2_6 
REMARK    2  A    between atoms: C3_9  and  C4_10 
REMARK    3  A    between atoms: C7_13  and  C8_14 
REMARK    4  A    between atoms: C8_14  and  N5_15 
REMARK    5  A    between atoms: N5_15  and  C9_17 
ROOT
HETATM    1  C4  UNL     1      50.777  53.391  20.579  1.00  0.00     0.032 A 
HETATM    2  C5  UNL     1      50.772  53.657  21.922  1.00  0.00     0.022 A 
HETATM    3  C6  UNL     1      51.055  54.908  22.301  1.00  0.00     0.018 A 
HETATM    4  C7  UNL     1      51.326  55.821  21.322  1.00  0.00     0.002 A 
HETATM    5  S1  UNL     1      51.177  54.895  19.895  1.00  0.00    -0.091 SA
ENDROOT
BRANCH   4   6
HETATM    6  C8  UNL     1      51.668  57.264  21.468  1.00  0.00     0.184 C 
BRANCH   6   7
HETATM    7  N5  UNL     1      50.511  57.985  21.947  1.00  0.00    -0.221 N 
ATOM      8  H5  UNL     1      50.528  58.408  22.875  1.00  0.00     0.178 HD
BRANCH   7   9
HETATM    9  C9  UNL     1      49.346  58.109  21.133  1.00  0.00     0.679 A 
HETATM   10  N6  UNL     1      49.260  58.212  19.804  1.00  0.00    -0.190 N 
HETATM   11  C10 UNL     1      47.951  58.309  19.453  1.00  0.00     0.076 A 
ATOM     12  H6  UNL     1      50.048  58.216  19.158  1.00  0.00     0.184 HD
HETATM   13  C11 UNL     1      47.310  58.434  18.246  1.00  0.00     0.032 A 
HETATM   14  C15 UNL     1      47.201  58.266  20.597  1.00  0.00     0.076 A 
HETATM   15  C12 UNL     1      45.936  58.514  18.187  1.00  0.00     0.002 A 
HETATM   16  C13 UNL     1      45.186  58.470  19.339  1.00  0.00     0.002 A 
HETATM   17  C14 UNL     1      45.816  58.345  20.552  1.00  0.00     0.032 A 
HETATM   18  N7  UNL     1      48.085  58.144  21.609  1.00  0.00    -0.190 N 
ATOM     19  H7  UNL     1      47.834  58.085  22.596  1.00  0.00     0.184 HD
ENDBRANCH   7   9
ENDBRANCH   6   7
ENDBRANCH   4   6
BRANCH   1  20
HETATM   20  C3  UNL     1      50.503  52.103  19.877  1.00  0.00     0.058 A 
HETATM   21  N4  UNL     1      50.211  52.041  18.618  1.00  0.00    -0.335 N 
HETATM   22  C2  UNL     1      49.978  50.871  18.050  1.00  0.00     0.151 A 
ATOM     23  H4  UNL     1      50.162  52.897  18.064  1.00  0.00     0.168 HD
HETATM   24  S2  UNL     1      50.177  49.784  19.352  1.00  0.00    -0.063 SA
HETATM   25  C16 UNL     1      50.555  50.917  20.571  1.00  0.00     0.084 A 
BRANCH  22  26
HETATM   26  N3  UNL     1      49.641  50.601  16.667  1.00  0.00    -0.313 N 
HETATM   27  C1  UNL     1      48.449  50.812  16.235  1.00  0.00     0.203 C 
HETATM   28  N1  UNL     1      47.484  51.312  17.145  1.00  0.00    -0.066 NA
HETATM   29  N2  UNL     1      48.137  50.542  14.878  1.00  0.00    -0.066 NA
ATOM     30  H3  UNL     1      50.353  50.241  16.033  1.00  0.00     0.170 HD
ENDBRANCH  22  26
ENDBRANCH   1  20
TORSDOF 5
ENDMDL
