MODEL 3
REMARK VINA RESULT: -8.866206349      2.644      9.379
REMARK  5 active torsions:
REMARK  status: ('A' for Active; 'I' for Inactive)
REMARK    1  A    between atoms: N3_4  and  C2_6 
REMARK    2  A    between atoms: C3_9  and  C4_10 
REMARK    3  A    between atoms: C7_13  and  C8_14 
REMARK    4  A    between atoms: C8_14  and  N5_15 
REMARK    5  A    between atoms: N5_15  and  C9_17 
ROOT
HETATM    1  C4  UNL     1      49.136  49.980  18.483  1.00  0.00     0.032 A 
HETATM    2  C5  UNL     1      49.604  49.327  19.592  1.00  0.00     0.022 A 
HETATM    3  C6  UNL     1      50.371  50.026  20.437  1.00  0.00     0.018 A 
HETATM    4  C7  UNL     1      50.628  51.331  20.129  1.00  0.00     0.002 A 
HETATM    5  S1  UNL     1      49.784  51.542  18.659  1.00  0.00    -0.091 SA
ENDROOT
BRANCH   4   6
HETATM    6  C8  UNL     1      51.443  52.320  20.890  1.00  0.00     0.184 C 
BRANCH   6   7
HETATM    7  N5  UNL     1      50.637  52.900  21.939  1.00  0.00    -0.221 N 
ATOM      8  H5  UNL     1      50.445  52.362  22.784  1.00  0.00     0.178 HD
BRANCH   7   9
HETATM    9  C9  UNL     1      50.108  54.219  21.803  1.00  0.00     0.679 A 
HETATM   10  N6  UNL     1      50.650  55.380  22.175  1.00  0.00    -0.190 N 
HETATM   11  C10 UNL     1      49.798  56.389  21.852  1.00  0.00     0.076 A 
ATOM     12  H6  UNL     1      51.557  55.493  22.627  1.00  0.00     0.184 HD
HETATM   13  C11 UNL     1      49.854  57.751  22.006  1.00  0.00     0.032 A 
HETATM   14  C15 UNL     1      48.693  55.836  21.263  1.00  0.00     0.076 A 
HETATM   15  C12 UNL     1      48.818  58.549  21.575  1.00  0.00     0.002 A 
HETATM   16  C13 UNL     1      47.710  57.990  20.983  1.00  0.00     0.002 A 
HETATM   17  C14 UNL     1      47.642  56.628  20.823  1.00  0.00     0.032 A 
HETATM   18  N7  UNL     1      48.913  54.506  21.247  1.00  0.00    -0.190 N 
ATOM     19  H7  UNL     1      48.266  53.814  20.869  1.00  0.00     0.184 HD
ENDBRANCH   7   9
ENDBRANCH   6   7
ENDBRANCH   4   6
BRANCH   1  20
HETATM   20  C3  UNL     1      48.271  49.460  17.384  1.00  0.00     0.058 A 
HETATM   21  N4  UNL     1      47.360  48.562  17.577  1.00  0.00    -0.335 N 
HETATM   22  C2  UNL     1      46.624  48.139  16.564  1.00  0.00     0.151 A 
ATOM     23  H4  UNL     1      47.210  48.180  18.511  1.00  0.00     0.168 HD
HETATM   24  S2  UNL     1      47.239  49.050  15.257  1.00  0.00    -0.063 SA
HETATM   25  C16 UNL     1      48.427  49.936  16.103  1.00  0.00     0.084 A 
BRANCH  22  26
HETATM   26  N3  UNL     1      45.566  47.150  16.581  1.00  0.00    -0.313 N 
HETATM   27  C1  UNL     1      44.561  47.286  17.370  1.00  0.00     0.203 C 
HETATM   28  N1  UNL     1      44.520  48.424  18.216  1.00  0.00    -0.066 NA
HETATM   29  N2  UNL     1      43.534  46.308  17.373  1.00  0.00    -0.066 NA
ATOM     30  H3  UNL     1      45.619  46.341  15.963  1.00  0.00     0.170 HD
ENDBRANCH  22  26
ENDBRANCH   1  20
TORSDOF 5
ENDMDL
