MODEL 8
REMARK VINA RESULT: -8.406313907      2.645      9.235
REMARK  5 active torsions:
REMARK  status: ('A' for Active; 'I' for Inactive)
REMARK    1  A    between atoms: N3_4  and  C2_6 
REMARK    2  A    between atoms: C3_9  and  C4_10 
REMARK    3  A    between atoms: C7_13  and  C8_14 
REMARK    4  A    between atoms: C8_14  and  N5_15 
REMARK    5  A    between atoms: N5_15  and  C9_17 
ROOT
HETATM    1  C4  UNL     1      48.932  49.887  18.263  1.00  0.00     0.032 A 
HETATM    2  C5  UNL     1      49.207  51.080  17.650  1.00  0.00     0.022 A 
HETATM    3  C6  UNL     1      50.099  51.882  18.242  1.00  0.00     0.018 A 
HETATM    4  C7  UNL     1      50.664  51.451  19.408  1.00  0.00     0.002 A 
HETATM    5  S1  UNL     1      49.926  49.929  19.641  1.00  0.00    -0.091 SA
ENDROOT
BRANCH   4   6
HETATM    6  C8  UNL     1      51.673  52.142  20.261  1.00  0.00     0.184 C 
BRANCH   6   7
HETATM    7  N5  UNL     1      51.027  52.659  21.444  1.00  0.00    -0.221 N 
ATOM      8  H5  UNL     1      51.057  52.123  22.311  1.00  0.00     0.178 HD
BRANCH   7   9
HETATM    9  C9  UNL     1      50.349  53.914  21.410  1.00  0.00     0.679 A 
HETATM   10  N6  UNL     1      49.119  54.189  20.969  1.00  0.00    -0.190 N 
HETATM   11  C10 UNL     1      48.880  55.518  21.127  1.00  0.00     0.076 A 
ATOM     12  H6  UNL     1      48.466  53.512  20.577  1.00  0.00     0.184 HD
HETATM   13  C11 UNL     1      47.801  56.317  20.845  1.00  0.00     0.032 A 
HETATM   14  C15 UNL     1      49.994  56.085  21.683  1.00  0.00     0.076 A 
HETATM   15  C12 UNL     1      47.838  57.667  21.118  1.00  0.00     0.002 A 
HETATM   16  C13 UNL     1      48.959  58.233  21.678  1.00  0.00     0.002 A 
HETATM   17  C14 UNL     1      50.045  57.443  21.963  1.00  0.00     0.032 A 
HETATM   18  N7  UNL     1      50.876  55.077  21.844  1.00  0.00    -0.190 N 
ATOM     19  H7  UNL     1      51.811  55.180  22.239  1.00  0.00     0.184 HD
ENDBRANCH   7   9
ENDBRANCH   6   7
ENDBRANCH   4   6
BRANCH   1  20
HETATM   20  C3  UNL     1      47.993  48.808  17.836  1.00  0.00     0.058 A 
HETATM   21  N4  UNL     1      46.848  48.613  18.406  1.00  0.00    -0.335 N 
HETATM   22  C2  UNL     1      46.058  47.642  17.985  1.00  0.00     0.151 A 
ATOM     23  H4  UNL     1      46.556  49.210  19.181  1.00  0.00     0.168 HD
HETATM   24  S2  UNL     1      46.966  46.954  16.712  1.00  0.00    -0.063 SA
HETATM   25  C16 UNL     1      48.332  47.973  16.799  1.00  0.00     0.084 A 
BRANCH  22  26
HETATM   26  N3  UNL     1      44.751  47.271  18.490  1.00  0.00    -0.313 N 
HETATM   27  C1  UNL     1      44.563  47.107  19.750  1.00  0.00     0.203 C 
HETATM   28  N1  UNL     1      45.664  47.297  20.624  1.00  0.00    -0.066 NA
HETATM   29  N2  UNL     1      43.278  46.744  20.226  1.00  0.00    -0.066 NA
ATOM     30  H3  UNL     1      43.976  47.140  17.841  1.00  0.00     0.170 HD
ENDBRANCH  22  26
ENDBRANCH   1  20
TORSDOF 5
ENDMDL
