MODEL 6
REMARK VINA RESULT: -7.534234932      6.478      8.501
REMARK  7 active torsions:
REMARK  status: ('A' for Active; 'I' for Inactive)
REMARK    1  A    between atoms: C1_2  and  C2_4 
REMARK    2  A    between atoms: N2_6  and  C4_7 
REMARK    3  A    between atoms: C4_7  and  C5_8 
REMARK    4  A    between atoms: C4_7  and  C6_11 
REMARK    5  A    between atoms: C5_8  and  O2_9 
REMARK    6  A    between atoms: C6_11  and  C7_12 
REMARK    7  A    between atoms: C7_12  and  C8_13 
ROOT
HETATM    1  C4  UNL     1      48.029  50.012  16.465  1.00  0.00     0.114 C 
ENDROOT
BRANCH   1   2
HETATM    2  N2  UNL     1      48.621  49.583  17.730  1.00  0.00    -0.344 N 
HETATM    3  C3  UNL     1      49.836  49.993  18.139  1.00  0.00     0.127 A 
HETATM    4  C2  UNL     1      50.127  49.421  19.372  1.00  0.00     0.114 A 
HETATM    5  N3  UNL     1      49.057  48.669  19.674  1.00  0.00    -0.347 N 
HETATM    6  C14 UNL     1      48.146  48.772  18.674  1.00  0.00     0.183 A 
ATOM      7  H3  UNL     1      48.946  48.111  20.521  1.00  0.00     0.167 HD
BRANCH   4   8
HETATM    8  C1  UNL     1      51.351  49.625  20.139  1.00  0.00     0.282 C 
HETATM    9  N1  UNL     1      51.421  50.577  21.168  1.00  0.00    -0.056 NA
HETATM   10  O1  UNL     1      52.372  48.938  19.882  1.00  0.00    -0.269 OA
ENDBRANCH   4   8
ENDBRANCH   1   2
BRANCH   1  11
HETATM   11  C5  UNL     1      48.384  49.004  15.381  1.00  0.00     0.189 C 
BRANCH  11  12
HETATM   12  O2  UNL     1      49.359  49.449  14.522  1.00  0.00    -0.399 OA
ATOM     13  H2  UNL     1      49.026  50.012  13.834  1.00  0.00     0.209 HD
ENDBRANCH  11  12
ENDBRANCH   1  11
BRANCH   1  14
HETATM   14  C6  UNL     1      46.531  49.994  16.602  1.00  0.00     0.032 C 
BRANCH  14  15
HETATM   15  C7  UNL     1      45.858  48.951  15.763  1.00  0.00     0.041 C 
BRANCH  15  16
HETATM   16  C8  UNL     1      44.940  48.087  16.562  1.00  0.00    -0.058 A 
HETATM   17  C9  UNL     1      44.604  48.281  17.869  1.00  0.00     0.007 A 
HETATM   18  C10 UNL     1      43.736  47.418  18.552  1.00  0.00     0.001 A 
HETATM   19  C11 UNL     1      43.222  46.353  17.863  1.00  0.00     0.000 A 
HETATM   20  C12 UNL     1      43.540  46.124  16.535  1.00  0.00     0.001 A 
HETATM   21  C13 UNL     1      44.395  46.989  15.895  1.00  0.00     0.007 A 
ENDBRANCH  15  16
ENDBRANCH  14  15
ENDBRANCH   1  14
TORSDOF 7
ENDMDL
