MODEL 2
REMARK VINA RESULT: -7.620141969      0.378      1.157
REMARK  7 active torsions:
REMARK  status: ('A' for Active; 'I' for Inactive)
REMARK    1  A    between atoms: C1_2  and  C2_4 
REMARK    2  A    between atoms: N2_6  and  C4_7 
REMARK    3  A    between atoms: C4_7  and  C5_8 
REMARK    4  A    between atoms: C4_7  and  C6_11 
REMARK    5  A    between atoms: C5_8  and  O2_9 
REMARK    6  A    between atoms: C6_11  and  C7_12 
REMARK    7  A    between atoms: C7_12  and  C8_13 
ROOT
HETATM    1  C4  UNL     1      50.006  55.689  21.778  1.00  0.00     0.114 C 
ENDROOT
BRANCH   1   2
HETATM    2  N2  UNL     1      50.189  54.240  21.761  1.00  0.00    -0.344 N 
HETATM    3  C3  UNL     1      50.516  53.562  20.645  1.00  0.00     0.127 A 
HETATM    4  C2  UNL     1      50.619  52.208  20.939  1.00  0.00     0.114 A 
HETATM    5  N3  UNL     1      50.345  52.109  22.250  1.00  0.00    -0.347 N 
HETATM    6  C14 UNL     1      50.085  53.345  22.743  1.00  0.00     0.183 A 
ATOM      7  H3  UNL     1      50.335  51.242  22.788  1.00  0.00     0.167 HD
BRANCH   4   8
HETATM    8  C1  UNL     1      50.957  51.152  19.990  1.00  0.00     0.282 C 
HETATM    9  N1  UNL     1      51.848  50.121  20.329  1.00  0.00    -0.056 NA
HETATM   10  O1  UNL     1      50.446  51.156  18.843  1.00  0.00    -0.269 OA
ENDBRANCH   4   8
ENDBRANCH   1   2
BRANCH   1  11
HETATM   11  C5  UNL     1      51.257  56.356  21.223  1.00  0.00     0.189 C 
BRANCH  11  12
HETATM   12  O2  UNL     1      52.200  56.627  22.184  1.00  0.00    -0.399 OA
ATOM     13  H2  UNL     1      52.715  57.403  21.997  1.00  0.00     0.209 HD
ENDBRANCH  11  12
ENDBRANCH   1  11
BRANCH   1  14
HETATM   14  C6  UNL     1      48.876  56.045  20.850  1.00  0.00     0.032 C 
BRANCH  14  15
HETATM   15  C7  UNL     1      47.869  56.977  21.451  1.00  0.00     0.041 C 
BRANCH  15  16
HETATM   16  C8  UNL     1      46.848  57.425  20.458  1.00  0.00    -0.058 A 
HETATM   17  C9  UNL     1      45.516  57.138  20.505  1.00  0.00     0.007 A 
HETATM   18  C10 UNL     1      44.621  57.592  19.526  1.00  0.00     0.001 A 
HETATM   19  C11 UNL     1      45.124  58.346  18.502  1.00  0.00     0.000 A 
HETATM   20  C12 UNL     1      46.471  58.658  18.421  1.00  0.00     0.001 A 
HETATM   21  C13 UNL     1      47.322  58.196  19.396  1.00  0.00     0.007 A 
ENDBRANCH  15  16
ENDBRANCH  14  15
ENDBRANCH   1  14
TORSDOF 7
ENDMDL
