MODEL 1
REMARK VINA RESULT: -7.634317747      0.000      0.000
REMARK  7 active torsions:
REMARK  status: ('A' for Active; 'I' for Inactive)
REMARK    1  A    between atoms: C1_2  and  C2_4 
REMARK    2  A    between atoms: N2_6  and  C4_7 
REMARK    3  A    between atoms: C4_7  and  C5_8 
REMARK    4  A    between atoms: C4_7  and  C6_11 
REMARK    5  A    between atoms: C5_8  and  O2_9 
REMARK    6  A    between atoms: C6_11  and  C7_12 
REMARK    7  A    between atoms: C7_12  and  C8_13 
ROOT
HETATM    1  C4  UNL     1      50.184  56.003  21.737  1.00  0.00     0.114 C 
ENDROOT
BRANCH   1   2
HETATM    2  N2  UNL     1      50.244  54.545  21.815  1.00  0.00    -0.344 N 
HETATM    3  C3  UNL     1      50.411  53.766  20.731  1.00  0.00     0.127 A 
HETATM    4  C2  UNL     1      50.427  52.431  21.117  1.00  0.00     0.114 A 
HETATM    5  N3  UNL     1      50.266  52.447  22.450  1.00  0.00    -0.347 N 
HETATM    6  C14 UNL     1      50.155  53.733  22.868  1.00  0.00     0.183 A 
ATOM      7  H3  UNL     1      50.232  51.624  23.051  1.00  0.00     0.167 HD
BRANCH   4   8
HETATM    8  C1  UNL     1      50.589  51.287  20.226  1.00  0.00     0.282 C 
HETATM    9  N1  UNL     1      51.765  50.521  20.224  1.00  0.00    -0.056 NA
HETATM   10  O1  UNL     1      49.661  50.972  19.439  1.00  0.00    -0.269 OA
ENDBRANCH   4   8
ENDBRANCH   1   2
BRANCH   1  11
HETATM   11  C5  UNL     1      51.514  56.529  21.216  1.00  0.00     0.189 C 
BRANCH  11  12
HETATM   12  O2  UNL     1      52.443  56.737  22.207  1.00  0.00    -0.399 OA
ATOM     13  H2  UNL     1      52.244  57.485  22.757  1.00  0.00     0.209 HD
ENDBRANCH  11  12
ENDBRANCH   1  11
BRANCH   1  14
HETATM   14  C6  UNL     1      49.138  56.391  20.728  1.00  0.00     0.032 C 
BRANCH  14  15
HETATM   15  C7  UNL     1      47.807  56.721  21.331  1.00  0.00     0.041 C 
BRANCH  15  16
HETATM   16  C8  UNL     1      46.877  57.346  20.344  1.00  0.00    -0.058 A 
HETATM   17  C9  UNL     1      47.241  58.184  19.333  1.00  0.00     0.007 A 
HETATM   18  C10 UNL     1      46.303  58.737  18.449  1.00  0.00     0.001 A 
HETATM   19  C11 UNL     1      44.986  58.408  18.629  1.00  0.00     0.000 A 
HETATM   20  C12 UNL     1      44.580  57.560  19.644  1.00  0.00     0.001 A 
HETATM   21  C13 UNL     1      45.525  57.036  20.494  1.00  0.00     0.007 A 
ENDBRANCH  15  16
ENDBRANCH  14  15
ENDBRANCH   1  14
TORSDOF 7
ENDMDL
