MODEL 5
REMARK VINA RESULT: -7.548865278      3.603      6.513
REMARK  7 active torsions:
REMARK  status: ('A' for Active; 'I' for Inactive)
REMARK    1  A    between atoms: C1_2  and  C2_4 
REMARK    2  A    between atoms: N2_6  and  C4_7 
REMARK    3  A    between atoms: C4_7  and  C5_8 
REMARK    4  A    between atoms: C4_7  and  C6_11 
REMARK    5  A    between atoms: C5_8  and  O2_9 
REMARK    6  A    between atoms: C6_11  and  C7_12 
REMARK    7  A    between atoms: C7_12  and  C8_13 
ROOT
HETATM    1  C4  UNL     1      50.863  50.656  19.417  1.00  0.00     0.114 C 
ENDROOT
BRANCH   1   2
HETATM    2  N2  UNL     1      50.596  51.627  20.475  1.00  0.00    -0.344 N 
HETATM    3  C3  UNL     1      50.555  52.954  20.250  1.00  0.00     0.127 A 
HETATM    4  C2  UNL     1      50.282  53.618  21.439  1.00  0.00     0.114 A 
HETATM    5  N3  UNL     1      50.162  52.652  22.364  1.00  0.00    -0.347 N 
HETATM    6  C14 UNL     1      50.354  51.446  21.773  1.00  0.00     0.183 A 
ATOM      7  H3  UNL     1      49.960  52.801  23.352  1.00  0.00     0.167 HD
BRANCH   4   8
HETATM    8  C1  UNL     1      50.159  55.062  21.601  1.00  0.00     0.282 C 
HETATM    9  N1  UNL     1      51.255  55.853  21.980  1.00  0.00    -0.056 NA
HETATM   10  O1  UNL     1      49.052  55.622  21.399  1.00  0.00    -0.269 OA
ENDBRANCH   4   8
ENDBRANCH   1   2
BRANCH   1  11
HETATM   11  C5  UNL     1      51.112  49.291  20.045  1.00  0.00     0.189 C 
BRANCH  11  12
HETATM   12  O2  UNL     1      52.445  49.010  20.223  1.00  0.00    -0.399 OA
ATOM     13  H2  UNL     1      52.829  49.461  20.965  1.00  0.00     0.209 HD
ENDBRANCH  11  12
ENDBRANCH   1  11
BRANCH   1  14
HETATM   14  C6  UNL     1      49.632  50.521  18.561  1.00  0.00     0.032 C 
BRANCH  14  15
HETATM   15  C7  UNL     1      48.864  49.257  18.799  1.00  0.00     0.041 C 
BRANCH  15  16
HETATM   16  C8  UNL     1      47.452  49.354  18.323  1.00  0.00    -0.058 A 
HETATM   17  C9  UNL     1      46.895  50.436  17.711  1.00  0.00     0.007 A 
HETATM   18  C10 UNL     1      45.554  50.451  17.298  1.00  0.00     0.001 A 
HETATM   19  C11 UNL     1      44.804  49.331  17.529  1.00  0.00     0.000 A 
HETATM   20  C12 UNL     1      45.336  48.213  18.149  1.00  0.00     0.001 A 
HETATM   21  C13 UNL     1      46.653  48.231  18.542  1.00  0.00     0.007 A 
ENDBRANCH  15  16
ENDBRANCH  14  15
ENDBRANCH   1  14
TORSDOF 7
ENDMDL
