MODEL 4
REMARK VINA RESULT: -7.552293073      1.225      1.499
REMARK  7 active torsions:
REMARK  status: ('A' for Active; 'I' for Inactive)
REMARK    1  A    between atoms: C1_2  and  C2_4 
REMARK    2  A    between atoms: N2_6  and  C4_7 
REMARK    3  A    between atoms: C4_7  and  C5_8 
REMARK    4  A    between atoms: C4_7  and  C6_11 
REMARK    5  A    between atoms: C5_8  and  O2_9 
REMARK    6  A    between atoms: C6_11  and  C7_12 
REMARK    7  A    between atoms: C7_12  and  C8_13 
ROOT
HETATM    1  C4  UNL     1      49.628  55.243  21.494  1.00  0.00     0.114 C 
ENDROOT
BRANCH   1   2
HETATM    2  N2  UNL     1      50.155  54.071  20.798  1.00  0.00    -0.344 N 
HETATM    3  C3  UNL     1      50.181  52.846  21.354  1.00  0.00     0.127 A 
HETATM    4  C2  UNL     1      50.736  51.941  20.458  1.00  0.00     0.114 A 
HETATM    5  N3  UNL     1      51.034  52.663  19.366  1.00  0.00    -0.347 N 
HETATM    6  C14 UNL     1      50.679  53.955  19.578  1.00  0.00     0.183 A 
ATOM      7  H3  UNL     1      51.458  52.298  18.513  1.00  0.00     0.167 HD
BRANCH   4   8
HETATM    8  C1  UNL     1      50.933  50.516  20.697  1.00  0.00     0.282 C 
HETATM    9  N1  UNL     1      49.892  49.701  21.170  1.00  0.00    -0.056 NA
HETATM   10  O1  UNL     1      52.055  49.994  20.478  1.00  0.00    -0.269 OA
ENDBRANCH   4   8
ENDBRANCH   1   2
BRANCH   1  11
HETATM   11  C5  UNL     1      50.594  56.406  21.315  1.00  0.00     0.189 C 
BRANCH  11  12
HETATM   12  O2  UNL     1      51.671  56.354  22.166  1.00  0.00    -0.399 OA
ATOM     13  H2  UNL     1      52.507  56.408  21.718  1.00  0.00     0.209 HD
ENDBRANCH  11  12
ENDBRANCH   1  11
BRANCH   1  14
HETATM   14  C6  UNL     1      48.333  55.649  20.843  1.00  0.00     0.032 C 
BRANCH  14  15
HETATM   15  C7  UNL     1      47.883  57.032  21.202  1.00  0.00     0.041 C 
BRANCH  15  16
HETATM   16  C8  UNL     1      46.817  57.536  20.286  1.00  0.00    -0.058 A 
HETATM   17  C9  UNL     1      47.000  58.423  19.268  1.00  0.00     0.007 A 
HETATM   18  C10 UNL     1      45.942  58.853  18.454  1.00  0.00     0.001 A 
HETATM   19  C11 UNL     1      44.695  58.351  18.711  1.00  0.00     0.000 A 
HETATM   20  C12 UNL     1      44.471  57.448  19.736  1.00  0.00     0.001 A 
HETATM   21  C13 UNL     1      45.530  57.047  20.516  1.00  0.00     0.007 A 
ENDBRANCH  15  16
ENDBRANCH  14  15
ENDBRANCH   1  14
TORSDOF 7
ENDMDL
