MODEL 3
REMARK VINA RESULT: -7.571926152      6.516      8.530
REMARK  7 active torsions:
REMARK  status: ('A' for Active; 'I' for Inactive)
REMARK    1  A    between atoms: C1_2  and  C2_4 
REMARK    2  A    between atoms: N2_6  and  C4_7 
REMARK    3  A    between atoms: C4_7  and  C5_8 
REMARK    4  A    between atoms: C4_7  and  C6_11 
REMARK    5  A    between atoms: C5_8  and  O2_9 
REMARK    6  A    between atoms: C6_11  and  C7_12 
REMARK    7  A    between atoms: C7_12  and  C8_13 
ROOT
HETATM    1  C4  UNL     1      47.975  49.940  16.513  1.00  0.00     0.114 C 
ENDROOT
BRANCH   1   2
HETATM    2  N2  UNL     1      48.580  49.543  17.781  1.00  0.00    -0.344 N 
HETATM    3  C3  UNL     1      49.806  49.949  18.160  1.00  0.00     0.127 A 
HETATM    4  C2  UNL     1      50.109  49.413  19.405  1.00  0.00     0.114 A 
HETATM    5  N3  UNL     1      49.033  48.685  19.747  1.00  0.00    -0.347 N 
HETATM    6  C14 UNL     1      48.109  48.767  18.757  1.00  0.00     0.183 A 
ATOM      7  H3  UNL     1      48.929  48.154  20.612  1.00  0.00     0.167 HD
BRANCH   4   8
HETATM    8  C1  UNL     1      51.347  49.624  20.147  1.00  0.00     0.282 C 
HETATM    9  N1  UNL     1      51.434  50.584  21.168  1.00  0.00    -0.056 NA
HETATM   10  O1  UNL     1      52.363  48.938  19.876  1.00  0.00    -0.269 OA
ENDBRANCH   4   8
ENDBRANCH   1   2
BRANCH   1  11
HETATM   11  C5  UNL     1      48.380  48.946  15.434  1.00  0.00     0.189 C 
BRANCH  11  12
HETATM   12  O2  UNL     1      49.146  49.504  14.439  1.00  0.00    -0.399 OA
ATOM     13  H2  UNL     1      49.855  50.043  14.769  1.00  0.00     0.209 HD
ENDBRANCH  11  12
ENDBRANCH   1  11
BRANCH   1  14
HETATM   14  C6  UNL     1      46.478  49.853  16.643  1.00  0.00     0.032 C 
BRANCH  14  15
HETATM   15  C7  UNL     1      45.851  48.824  15.753  1.00  0.00     0.041 C 
BRANCH  15  16
HETATM   16  C8  UNL     1      44.909  47.933  16.492  1.00  0.00    -0.058 A 
HETATM   17  C9  UNL     1      44.252  46.861  15.966  1.00  0.00     0.007 A 
HETATM   18  C10 UNL     1      43.376  46.075  16.728  1.00  0.00     0.001 A 
HETATM   19  C11 UNL     1      43.191  46.416  18.040  1.00  0.00     0.000 A 
HETATM   20  C12 UNL     1      43.841  47.498  18.609  1.00  0.00     0.001 A 
HETATM   21  C13 UNL     1      44.693  48.249  17.834  1.00  0.00     0.007 A 
ENDBRANCH  15  16
ENDBRANCH  14  15
ENDBRANCH   1  14
TORSDOF 7
ENDMDL
