MODEL 5
REMARK VINA RESULT: -9.021829133      3.484      6.574
REMARK  11 active torsions:
REMARK  status: ('A' for Active; 'I' for Inactive)
REMARK    1  A    between atoms: C2_3  and  C3_4 
REMARK    2  A    between atoms: C3_4  and  C4_5 
REMARK    3  A    between atoms: C4_5  and  C5_6 
REMARK       I    between atoms: C5_6  and  N2_8 
REMARK    4  A    between atoms: N2_8  and  C6_10 
REMARK    5  A    between atoms: N3_16  and  C12_17 
REMARK    6  A    between atoms: C12_17  and  C13_18 
REMARK    7  A    between atoms: C13_18  and  C14_19 
REMARK    8  A    between atoms: C14_19  and  C15_20 
REMARK    9  A    between atoms: C14_19  and  N4_23 
REMARK   10  A    between atoms: C15_20  and  O2_21 
REMARK   11  A    between atoms: C17_27  and  C18_28 
ROOT
HETATM    1  C6  UNL     1      50.741  54.291  20.758  1.00  0.00     0.036 A 
HETATM    2  C7  UNL     1      51.045  54.988  21.886  1.00  0.00     0.030 A 
HETATM    3  C8  UNL     1      50.416  56.184  22.243  1.00  0.00     0.016 A 
HETATM    4  C9  UNL     1      49.444  56.715  21.449  1.00  0.00    -0.008 A 
HETATM    5  C10 UNL     1      48.678  57.855  21.558  1.00  0.00     0.031 A 
HETATM    6  C11 UNL     1      47.875  57.836  20.435  1.00  0.00     0.092 A 
HETATM    7  N3  UNL     1      48.134  56.761  19.694  1.00  0.00    -0.356 N 
HETATM    8  C20 UNL     1      49.106  56.028  20.282  1.00  0.00     0.046 A 
HETATM    9  C21 UNL     1      49.735  54.858  19.951  1.00  0.00     0.060 A 
ENDROOT
BRANCH   1  10
HETATM   10  N2  UNL     1      51.323  53.107  20.325  1.00  0.00    -0.327 N 
HETATM   11  C5  UNL     1      51.086  51.828  20.892  1.00  0.00     0.222 C 
HETATM   12  O1  UNL     1      50.315  51.699  21.850  1.00  0.00    -0.273 OA
ATOM     13  H2  UNL     1      51.970  53.160  19.538  1.00  0.00     0.169 HD
BRANCH  11  14
HETATM   14  C4  UNL     1      51.748  50.636  20.356  1.00  0.00     0.110 C 
BRANCH  14  15
HETATM   15  C3  UNL     1      51.416  50.198  18.996  1.00  0.00     0.086 C 
BRANCH  15  16
HETATM   16  C2  UNL     1      49.976  49.996  18.783  1.00  0.00     0.084 A 
HETATM   17  N1  UNL     1      49.040  50.685  18.146  1.00  0.00    -0.339 N 
HETATM   18  C1  UNL     1      49.182  51.990  17.517  1.00  0.00     0.158 C 
HETATM   19  C27 UNL     1      47.862  50.030  18.195  1.00  0.00     0.062 A 
HETATM   20  C22 UNL     1      48.075  48.879  18.897  1.00  0.00     0.060 A 
HETATM   21  C26 UNL     1      46.618  50.323  17.694  1.00  0.00     0.032 A 
HETATM   22  N7  UNL     1      49.345  48.866  19.247  1.00  0.00    -0.344 N 
HETATM   23  C23 UNL     1      46.984  48.024  19.080  1.00  0.00     0.032 A 
ATOM     24  H7  UNL     1      49.795  48.125  19.785  1.00  0.00     0.167 HD
HETATM   25  C24 UNL     1      45.737  48.297  18.590  1.00  0.00     0.002 A 
HETATM   26  C25 UNL     1      45.559  49.472  17.884  1.00  0.00     0.002 A 
ENDBRANCH  15  16
ENDBRANCH  14  15
ENDBRANCH  11  14
ENDBRANCH   1  10
BRANCH   7  27
HETATM   27  C12 UNL     1      47.499  56.398  18.447  1.00  0.00     0.131 C 
BRANCH  27  28
HETATM   28  C13 UNL     1      47.439  57.633  17.530  1.00  0.00     0.048 C 
BRANCH  28  29
HETATM   29  C14 UNL     1      46.040  58.076  17.298  1.00  0.00     0.115 C 
BRANCH  29  30
HETATM   30  C15 UNL     1      45.669  58.000  15.850  1.00  0.00     0.189 C 
BRANCH  30  31
HETATM   31  O2  UNL     1      46.651  57.382  15.116  1.00  0.00    -0.399 OA
ATOM     32  H2  UNL     1      46.985  57.954  14.435  1.00  0.00     0.209 HD
ENDBRANCH  30  31
ENDBRANCH  29  30
BRANCH  29  33
HETATM   33  N4  UNL     1      45.786  59.427  17.797  1.00  0.00    -0.344 N 
HETATM   34  C16 UNL     1      46.645  60.384  18.151  1.00  0.00     0.183 A 
HETATM   35  N5  UNL     1      45.982  61.480  18.551  1.00  0.00    -0.347 N 
HETATM   36  C17 UNL     1      44.664  61.227  18.454  1.00  0.00     0.114 A 
ATOM     37  H5  UNL     1      46.404  62.351  18.873  1.00  0.00     0.167 HD
HETATM   38  C19 UNL     1      44.548  59.943  17.982  1.00  0.00     0.127 A 
BRANCH  36  39
HETATM   39  C18 UNL     1      43.604  62.168  18.796  1.00  0.00     0.282 C 
HETATM   40  N6  UNL     1      43.889  63.542  18.901  1.00  0.00    -0.056 NA
HETATM   41  O3  UNL     1      42.447  61.752  18.997  1.00  0.00    -0.269 OA
ENDBRANCH  36  39
ENDBRANCH  29  33
ENDBRANCH  28  29
ENDBRANCH  27  28
ENDBRANCH   7  27
TORSDOF 11
ENDMDL
