MODEL 7
REMARK VINA RESULT: -8.985871809      3.205      6.388
REMARK  11 active torsions:
REMARK  status: ('A' for Active; 'I' for Inactive)
REMARK    1  A    between atoms: C2_3  and  C3_4 
REMARK    2  A    between atoms: C3_4  and  C4_5 
REMARK    3  A    between atoms: C4_5  and  C5_6 
REMARK       I    between atoms: C5_6  and  N2_8 
REMARK    4  A    between atoms: N2_8  and  C6_10 
REMARK    5  A    between atoms: N3_16  and  C12_17 
REMARK    6  A    between atoms: C12_17  and  C13_18 
REMARK    7  A    between atoms: C13_18  and  C14_19 
REMARK    8  A    between atoms: C14_19  and  C15_20 
REMARK    9  A    between atoms: C14_19  and  N4_23 
REMARK   10  A    between atoms: C15_20  and  O2_21 
REMARK   11  A    between atoms: C17_27  and  C18_28 
ROOT
HETATM    1  C6  UNL     1      50.694  54.133  20.729  1.00  0.00     0.036 A 
HETATM    2  C7  UNL     1      50.888  54.929  21.815  1.00  0.00     0.030 A 
HETATM    3  C8  UNL     1      50.233  56.150  21.999  1.00  0.00     0.016 A 
HETATM    4  C9  UNL     1      49.348  56.604  21.068  1.00  0.00    -0.008 A 
HETATM    5  C10 UNL     1      48.581  57.747  20.998  1.00  0.00     0.031 A 
HETATM    6  C11 UNL     1      47.893  57.625  19.807  1.00  0.00     0.092 A 
HETATM    7  N3  UNL     1      48.219  56.488  19.194  1.00  0.00    -0.356 N 
HETATM    8  C20 UNL     1      49.124  55.814  19.940  1.00  0.00     0.046 A 
HETATM    9  C21 UNL     1      49.776  54.622  19.779  1.00  0.00     0.060 A 
ENDROOT
BRANCH   1  10
HETATM   10  N2  UNL     1      51.309  52.917  20.464  1.00  0.00    -0.327 N 
HETATM   11  C5  UNL     1      51.003  51.691  21.109  1.00  0.00     0.222 C 
HETATM   12  O1  UNL     1      50.133  51.644  21.987  1.00  0.00    -0.273 OA
ATOM     13  H2  UNL     1      52.037  52.903  19.750  1.00  0.00     0.169 HD
BRANCH  11  14
HETATM   14  C4  UNL     1      51.709  50.459  20.752  1.00  0.00     0.110 C 
BRANCH  14  15
HETATM   15  C3  UNL     1      51.468  49.867  19.431  1.00  0.00     0.086 C 
BRANCH  15  16
HETATM   16  C2  UNL     1      50.043  49.752  19.094  1.00  0.00     0.084 A 
HETATM   17  N1  UNL     1      49.235  50.427  18.288  1.00  0.00    -0.339 N 
HETATM   18  C1  UNL     1      49.550  51.630  17.531  1.00  0.00     0.158 C 
HETATM   19  C27 UNL     1      48.004  49.875  18.289  1.00  0.00     0.062 A 
HETATM   20  C22 UNL     1      48.048  48.806  19.137  1.00  0.00     0.060 A 
HETATM   21  C26 UNL     1      46.843  50.199  17.632  1.00  0.00     0.032 A 
HETATM   22  N7  UNL     1      49.274  48.739  19.617  1.00  0.00    -0.344 N 
HETATM   23  C23 UNL     1      46.872  48.066  19.303  1.00  0.00     0.032 A 
ATOM     24  H7  UNL     1      49.604  48.038  20.280  1.00  0.00     0.167 HD
HETATM   25  C24 UNL     1      45.707  48.372  18.658  1.00  0.00     0.002 A 
HETATM   26  C25 UNL     1      45.700  49.461  17.807  1.00  0.00     0.002 A 
ENDBRANCH  15  16
ENDBRANCH  14  15
ENDBRANCH  11  14
ENDBRANCH   1  10
BRANCH   7  27
HETATM   27  C12 UNL     1      47.709  56.014  17.928  1.00  0.00     0.131 C 
BRANCH  27  28
HETATM   28  C13 UNL     1      47.607  57.195  16.947  1.00  0.00     0.048 C 
BRANCH  28  29
HETATM   29  C14 UNL     1      46.296  57.214  16.247  1.00  0.00     0.115 C 
BRANCH  29  30
HETATM   30  C15 UNL     1      46.442  56.902  14.791  1.00  0.00     0.189 C 
BRANCH  30  31
HETATM   31  O2  UNL     1      47.764  56.802  14.433  1.00  0.00    -0.399 OA
ATOM     32  H2  UNL     1      48.047  55.896  14.407  1.00  0.00     0.209 HD
ENDBRANCH  30  31
ENDBRANCH  29  30
BRANCH  29  33
HETATM   33  N4  UNL     1      45.590  58.486  16.406  1.00  0.00    -0.344 N 
HETATM   34  C16 UNL     1      44.860  59.174  15.527  1.00  0.00     0.183 A 
HETATM   35  N5  UNL     1      44.386  60.295  16.092  1.00  0.00    -0.347 N 
HETATM   36  C17 UNL     1      44.819  60.333  17.366  1.00  0.00     0.114 A 
ATOM     37  H5  UNL     1      43.801  60.995  15.636  1.00  0.00     0.167 HD
HETATM   38  C19 UNL     1      45.571  59.201  17.556  1.00  0.00     0.127 A 
BRANCH  36  39
HETATM   39  C18 UNL     1      44.520  61.395  18.319  1.00  0.00     0.282 C 
HETATM   40  N6  UNL     1      45.566  62.130  18.907  1.00  0.00    -0.056 NA
HETATM   41  O3  UNL     1      43.336  61.649  18.613  1.00  0.00    -0.269 OA
ENDBRANCH  36  39
ENDBRANCH  29  33
ENDBRANCH  28  29
ENDBRANCH  27  28
ENDBRANCH   7  27
TORSDOF 11
ENDMDL
