MODEL 1
REMARK VINA RESULT: -10.010841221      0.000      0.000
REMARK  11 active torsions:
REMARK  status: ('A' for Active; 'I' for Inactive)
REMARK    1  A    between atoms: C2_3  and  C3_4 
REMARK    2  A    between atoms: C3_4  and  C4_5 
REMARK    3  A    between atoms: C4_5  and  C5_6 
REMARK       I    between atoms: C5_6  and  N2_8 
REMARK    4  A    between atoms: N2_8  and  C6_10 
REMARK    5  A    between atoms: N3_16  and  C12_17 
REMARK    6  A    between atoms: C12_17  and  C13_18 
REMARK    7  A    between atoms: C13_18  and  C14_19 
REMARK    8  A    between atoms: C14_19  and  C15_20 
REMARK    9  A    between atoms: C14_19  and  N4_23 
REMARK   10  A    between atoms: C15_20  and  O2_21 
REMARK   11  A    between atoms: C17_27  and  C18_28 
ROOT
HETATM    1  C6  UNL     1      47.895  53.154  17.695  1.00  0.00     0.036 A 
HETATM    2  C7  UNL     1      47.405  53.655  16.528  1.00  0.00     0.030 A 
HETATM    3  C8  UNL     1      47.178  55.016  16.313  1.00  0.00     0.016 A 
HETATM    4  C9  UNL     1      47.447  55.924  17.293  1.00  0.00    -0.008 A 
HETATM    5  C10 UNL     1      47.320  57.295  17.348  1.00  0.00     0.031 A 
HETATM    6  C11 UNL     1      47.757  57.629  18.614  1.00  0.00     0.092 A 
HETATM    7  N3  UNL     1      48.125  56.538  19.283  1.00  0.00    -0.356 N 
HETATM    8  C20 UNL     1      47.951  55.447  18.504  1.00  0.00     0.046 A 
HETATM    9  C21 UNL     1      48.165  54.108  18.695  1.00  0.00     0.060 A 
ENDROOT
BRANCH   1  10
HETATM   10  N2  UNL     1      48.138  51.820  17.995  1.00  0.00    -0.327 N 
HETATM   11  C5  UNL     1      49.390  51.168  17.854  1.00  0.00     0.222 C 
HETATM   12  O1  UNL     1      50.375  51.785  17.431  1.00  0.00    -0.273 OA
ATOM     13  H2  UNL     1      47.356  51.266  18.345  1.00  0.00     0.169 HD
BRANCH  11  14
HETATM   14  C4  UNL     1      49.543  49.754  18.204  1.00  0.00     0.110 C 
BRANCH  14  15
HETATM   15  C3  UNL     1      48.869  48.747  17.377  1.00  0.00     0.086 C 
BRANCH  15  16
HETATM   16  C2  UNL     1      47.597  48.281  17.945  1.00  0.00     0.084 A 
HETATM   17  N1  UNL     1      46.509  47.732  17.423  1.00  0.00    -0.339 N 
HETATM   18  C1  UNL     1      46.221  47.515  16.013  1.00  0.00     0.158 C 
HETATM   19  C27 UNL     1      45.625  47.428  18.397  1.00  0.00     0.062 A 
HETATM   20  C22 UNL     1      46.191  47.807  19.580  1.00  0.00     0.060 A 
HETATM   21  C26 UNL     1      44.379  46.854  18.370  1.00  0.00     0.032 A 
HETATM   22  N7  UNL     1      47.373  48.319  19.301  1.00  0.00    -0.344 N 
HETATM   23  C23 UNL     1      45.452  47.588  20.748  1.00  0.00     0.032 A 
ATOM     24  H7  UNL     1      48.027  48.690  19.990  1.00  0.00     0.167 HD
HETATM   25  C24 UNL     1      44.210  47.018  20.742  1.00  0.00     0.002 A 
HETATM   26  C25 UNL     1      43.669  46.647  19.526  1.00  0.00     0.002 A 
ENDBRANCH  15  16
ENDBRANCH  14  15
ENDBRANCH  11  14
ENDBRANCH   1  10
BRANCH   7  27
HETATM   27  C12 UNL     1      48.634  56.486  20.635  1.00  0.00     0.131 C 
BRANCH  27  28
HETATM   28  C13 UNL     1      49.922  57.323  20.725  1.00  0.00     0.048 C 
BRANCH  28  29
HETATM   29  C14 UNL     1      51.022  56.569  21.380  1.00  0.00     0.115 C 
BRANCH  29  30
HETATM   30  C15 UNL     1      52.310  57.330  21.349  1.00  0.00     0.189 C 
BRANCH  30  31
HETATM   31  O2  UNL     1      53.109  57.001  22.416  1.00  0.00    -0.399 OA
ATOM     32  H2  UNL     1      53.190  57.727  23.023  1.00  0.00     0.209 HD
ENDBRANCH  30  31
ENDBRANCH  29  30
BRANCH  29  33
HETATM   33  N4  UNL     1      51.223  55.243  20.796  1.00  0.00    -0.344 N 
HETATM   34  C16 UNL     1      51.615  54.900  19.568  1.00  0.00     0.183 A 
HETATM   35  N5  UNL     1      51.673  53.564  19.454  1.00  0.00    -0.347 N 
HETATM   36  C17 UNL     1      51.310  53.031  20.635  1.00  0.00     0.114 A 
ATOM     37  H5  UNL     1      51.944  53.045  18.619  1.00  0.00     0.167 HD
HETATM   38  C19 UNL     1      51.031  54.084  21.469  1.00  0.00     0.127 A 
BRANCH  36  39
HETATM   39  C18 UNL     1      51.243  51.602  20.922  1.00  0.00     0.282 C 
HETATM   40  N6  UNL     1      52.304  50.758  20.547  1.00  0.00    -0.056 NA
HETATM   41  O3  UNL     1      50.244  51.133  21.499  1.00  0.00    -0.269 OA
ENDBRANCH  36  39
ENDBRANCH  29  33
ENDBRANCH  28  29
ENDBRANCH  27  28
ENDBRANCH   7  27
TORSDOF 11
ENDMDL
