MODEL 6
REMARK VINA RESULT: -9.012246612      3.044      6.380
REMARK  11 active torsions:
REMARK  status: ('A' for Active; 'I' for Inactive)
REMARK    1  A    between atoms: C2_3  and  C3_4 
REMARK    2  A    between atoms: C3_4  and  C4_5 
REMARK    3  A    between atoms: C4_5  and  C5_6 
REMARK       I    between atoms: C5_6  and  N2_8 
REMARK    4  A    between atoms: N2_8  and  C6_10 
REMARK    5  A    between atoms: N3_16  and  C12_17 
REMARK    6  A    between atoms: C12_17  and  C13_18 
REMARK    7  A    between atoms: C13_18  and  C14_19 
REMARK    8  A    between atoms: C14_19  and  C15_20 
REMARK    9  A    between atoms: C14_19  and  N4_23 
REMARK   10  A    between atoms: C15_20  and  O2_21 
REMARK   11  A    between atoms: C17_27  and  C18_28 
ROOT
HETATM    1  C6  UNL     1      50.208  53.087  21.452  1.00  0.00     0.036 A 
HETATM    2  C7  UNL     1      50.889  53.842  22.356  1.00  0.00     0.030 A 
HETATM    3  C8  UNL     1      50.837  55.238  22.386  1.00  0.00     0.016 A 
HETATM    4  C9  UNL     1      50.078  55.919  21.482  1.00  0.00    -0.008 A 
HETATM    5  C10 UNL     1      49.850  57.264  21.289  1.00  0.00     0.031 A 
HETATM    6  C11 UNL     1      48.987  57.314  20.212  1.00  0.00     0.092 A 
HETATM    7  N3  UNL     1      48.709  56.085  19.780  1.00  0.00    -0.356 N 
HETATM    8  C20 UNL     1      49.364  55.178  20.538  1.00  0.00     0.046 A 
HETATM    9  C21 UNL     1      49.430  53.811  20.527  1.00  0.00     0.060 A 
ENDROOT
BRANCH   1  10
HETATM   10  N2  UNL     1      50.213  51.703  21.345  1.00  0.00    -0.327 N 
HETATM   11  C5  UNL     1      51.223  50.938  20.707  1.00  0.00     0.222 C 
HETATM   12  O1  UNL     1      52.196  51.495  20.185  1.00  0.00    -0.273 OA
ATOM     13  H2  UNL     1      49.429  51.196  21.758  1.00  0.00     0.169 HD
BRANCH  11  14
HETATM   14  C4  UNL     1      51.136  49.477  20.653  1.00  0.00     0.110 C 
BRANCH  14  15
HETATM   15  C3  UNL     1      49.810  48.853  20.579  1.00  0.00     0.086 C 
BRANCH  15  16
HETATM   16  C2  UNL     1      49.177  48.982  19.260  1.00  0.00     0.084 A 
HETATM   17  N1  UNL     1      47.938  48.814  18.819  1.00  0.00    -0.339 N 
HETATM   18  C1  UNL     1      46.795  48.318  19.571  1.00  0.00     0.158 C 
HETATM   19  C27 UNL     1      47.862  49.121  17.507  1.00  0.00     0.062 A 
HETATM   20  C22 UNL     1      49.114  49.497  17.113  1.00  0.00     0.060 A 
HETATM   21  C26 UNL     1      46.821  49.112  16.613  1.00  0.00     0.032 A 
HETATM   22  N7  UNL     1      49.898  49.410  18.170  1.00  0.00    -0.344 N 
HETATM   23  C23 UNL     1      49.286  49.866  15.775  1.00  0.00     0.032 A 
ATOM     24  H7  UNL     1      50.894  49.628  18.178  1.00  0.00     0.167 HD
HETATM   25  C24 UNL     1      48.262  49.864  14.869  1.00  0.00     0.002 A 
HETATM   26  C25 UNL     1      47.009  49.478  15.304  1.00  0.00     0.002 A 
ENDBRANCH  15  16
ENDBRANCH  14  15
ENDBRANCH  11  14
ENDBRANCH   1  10
BRANCH   7  27
HETATM   27  C12 UNL     1      47.846  55.734  18.674  1.00  0.00     0.131 C 
BRANCH  27  28
HETATM   28  C13 UNL     1      47.851  56.877  17.644  1.00  0.00     0.048 C 
BRANCH  28  29
HETATM   29  C14 UNL     1      46.499  57.104  17.071  1.00  0.00     0.115 C 
BRANCH  29  30
HETATM   30  C15 UNL     1      46.526  57.111  15.575  1.00  0.00     0.189 C 
BRANCH  30  31
HETATM   31  O2  UNL     1      47.792  56.875  15.099  1.00  0.00    -0.399 OA
ATOM     32  H2  UNL     1      47.877  57.152  14.194  1.00  0.00     0.209 HD
ENDBRANCH  30  31
ENDBRANCH  29  30
BRANCH  29  33
HETATM   33  N4  UNL     1      45.881  58.339  17.555  1.00  0.00    -0.344 N 
HETATM   34  C16 UNL     1      44.677  58.539  18.092  1.00  0.00     0.183 A 
HETATM   35  N5  UNL     1      44.515  59.835  18.402  1.00  0.00    -0.347 N 
HETATM   36  C17 UNL     1      45.640  60.488  18.056  1.00  0.00     0.114 A 
ATOM     37  H5  UNL     1      43.685  60.251  18.824  1.00  0.00     0.167 HD
HETATM   38  C19 UNL     1      46.489  59.549  17.528  1.00  0.00     0.127 A 
BRANCH  36  39
HETATM   39  C18 UNL     1      45.863  61.918  18.231  1.00  0.00     0.282 C 
HETATM   40  N6  UNL     1      46.540  62.652  17.240  1.00  0.00    -0.056 NA
HETATM   41  O3  UNL     1      45.453  62.488  19.260  1.00  0.00    -0.269 OA
ENDBRANCH  36  39
ENDBRANCH  29  33
ENDBRANCH  28  29
ENDBRANCH  27  28
ENDBRANCH   7  27
TORSDOF 11
ENDMDL
