MODEL 3
REMARK VINA RESULT: -9.543332948      1.236      1.801
REMARK  11 active torsions:
REMARK  status: ('A' for Active; 'I' for Inactive)
REMARK    1  A    between atoms: C2_3  and  C3_4 
REMARK    2  A    between atoms: C3_4  and  C4_5 
REMARK    3  A    between atoms: C4_5  and  C5_6 
REMARK       I    between atoms: C5_6  and  N2_8 
REMARK    4  A    between atoms: N2_8  and  C6_10 
REMARK    5  A    between atoms: N3_16  and  C12_17 
REMARK    6  A    between atoms: C12_17  and  C13_18 
REMARK    7  A    between atoms: C13_18  and  C14_19 
REMARK    8  A    between atoms: C14_19  and  C15_20 
REMARK    9  A    between atoms: C14_19  and  N4_23 
REMARK   10  A    between atoms: C15_20  and  O2_21 
REMARK   11  A    between atoms: C17_27  and  C18_28 
ROOT
HETATM    1  C6  UNL     1      48.113  54.202  17.370  1.00  0.00     0.036 A 
HETATM    2  C7  UNL     1      47.366  54.861  16.444  1.00  0.00     0.030 A 
HETATM    3  C8  UNL     1      46.941  56.183  16.600  1.00  0.00     0.016 A 
HETATM    4  C9  UNL     1      47.268  56.885  17.721  1.00  0.00    -0.008 A 
HETATM    5  C10 UNL     1      46.987  58.172  18.124  1.00  0.00     0.031 A 
HETATM    6  C11 UNL     1      47.599  58.287  19.357  1.00  0.00     0.092 A 
HETATM    7  N3  UNL     1      48.210  57.148  19.681  1.00  0.00    -0.356 N 
HETATM    8  C20 UNL     1      48.034  56.241  18.695  1.00  0.00     0.046 A 
HETATM    9  C21 UNL     1      48.440  54.945  18.522  1.00  0.00     0.060 A 
ENDROOT
BRANCH   1  10
HETATM   10  N2  UNL     1      48.566  52.892  17.300  1.00  0.00    -0.327 N 
HETATM   11  C5  UNL     1      47.802  51.788  16.840  1.00  0.00     0.222 C 
HETATM   12  O1  UNL     1      46.635  51.947  16.464  1.00  0.00    -0.273 OA
ATOM     13  H2  UNL     1      49.523  52.707  17.603  1.00  0.00     0.169 HD
BRANCH  11  14
HETATM   14  C4  UNL     1      48.377  50.442  16.801  1.00  0.00     0.110 C 
BRANCH  14  15
HETATM   15  C3  UNL     1      47.514  49.318  16.418  1.00  0.00     0.086 C 
BRANCH  15  16
HETATM   16  C2  UNL     1      46.798  48.719  17.553  1.00  0.00     0.084 A 
HETATM   17  N1  UNL     1      47.096  48.543  18.832  1.00  0.00    -0.339 N 
HETATM   18  C1  UNL     1      48.361  48.832  19.491  1.00  0.00     0.158 C 
HETATM   19  C27 UNL     1      46.054  47.984  19.483  1.00  0.00     0.062 A 
HETATM   20  C22 UNL     1      45.061  47.803  18.563  1.00  0.00     0.060 A 
HETATM   21  C26 UNL     1      45.870  47.614  20.792  1.00  0.00     0.032 A 
HETATM   22  N7  UNL     1      45.516  48.246  17.407  1.00  0.00    -0.344 N 
HETATM   23  C23 UNL     1      43.866  47.231  19.009  1.00  0.00     0.032 A 
ATOM     24  H7  UNL     1      44.992  48.238  16.532  1.00  0.00     0.167 HD
HETATM   25  C24 UNL     1      43.663  46.856  20.307  1.00  0.00     0.002 A 
HETATM   26  C25 UNL     1      44.690  47.054  21.210  1.00  0.00     0.002 A 
ENDBRANCH  15  16
ENDBRANCH  14  15
ENDBRANCH  11  14
ENDBRANCH   1  10
BRANCH   7  27
HETATM   27  C12 UNL     1      48.955  56.883  20.892  1.00  0.00     0.131 C 
BRANCH  27  28
HETATM   28  C13 UNL     1      50.428  57.273  20.677  1.00  0.00     0.048 C 
BRANCH  28  29
HETATM   29  C14 UNL     1      51.316  56.632  21.680  1.00  0.00     0.115 C 
BRANCH  29  30
HETATM   30  C15 UNL     1      52.750  57.001  21.465  1.00  0.00     0.189 C 
BRANCH  30  31
HETATM   31  O2  UNL     1      53.074  58.155  22.135  1.00  0.00    -0.399 OA
ATOM     32  H2  UNL     1      53.151  58.890  21.538  1.00  0.00     0.209 HD
ENDBRANCH  30  31
ENDBRANCH  29  30
BRANCH  29  33
HETATM   33  N4  UNL     1      51.185  55.175  21.702  1.00  0.00    -0.344 N 
HETATM   34  C16 UNL     1      50.842  54.363  22.702  1.00  0.00     0.183 A 
HETATM   35  N5  UNL     1      50.840  53.087  22.286  1.00  0.00    -0.347 N 
HETATM   36  C17 UNL     1      51.191  53.074  20.986  1.00  0.00     0.114 A 
ATOM     37  H5  UNL     1      50.614  52.271  22.854  1.00  0.00     0.167 HD
HETATM   38  C19 UNL     1      51.404  54.381  20.627  1.00  0.00     0.127 A 
BRANCH  36  39
HETATM   39  C18 UNL     1      51.307  51.876  20.163  1.00  0.00     0.282 C 
HETATM   40  N6  UNL     1      52.311  50.929  20.434  1.00  0.00    -0.056 NA
HETATM   41  O3  UNL     1      50.514  51.693  19.220  1.00  0.00    -0.269 OA
ENDBRANCH  36  39
ENDBRANCH  29  33
ENDBRANCH  28  29
ENDBRANCH  27  28
ENDBRANCH   7  27
TORSDOF 11
ENDMDL
