MODEL 11
REMARK VINA RESULT: -8.659073084      4.201      5.402
REMARK  10 active torsions:
REMARK  status: ('A' for Active; 'I' for Inactive)
REMARK    1  A    between atoms: N4_10  and  C5_11 
REMARK    2  A    between atoms: C6_13  and  C7_14 
REMARK    3  A    between atoms: C7_14  and  O2_15 
REMARK    4  A    between atoms: O2_15  and  P1_16 
REMARK    5  A    between atoms: P1_16  and  O5_19 
REMARK    6  A    between atoms: O5_19  and  P2_20 
REMARK    7  A    between atoms: P2_20  and  N5_23 
REMARK    8  A    between atoms: N5_23  and  P3_25 
REMARK    9  A    between atoms: C8_29  and  O11_30 
REMARK   10  A    between atoms: C9_32  and  O12_33 
ROOT
HETATM    1  C5  UNL     1     -12.439  -5.746   7.363  1.00  0.00     0.262 C 
HETATM    2  O1  UNL     1     -11.653  -4.645   7.036  1.00  0.00    -0.353 OA
HETATM    3  C6  UNL     1     -12.480  -3.926   6.171  1.00  0.00     0.180 C 
HETATM    4  C8  UNL     1     -13.735  -3.801   7.028  1.00  0.00     0.182 C 
HETATM    5  C9  UNL     1     -13.858  -5.234   7.513  1.00  0.00     0.198 C 
ENDROOT
BRANCH   3   6
HETATM    6  C7  UNL     1     -11.910  -2.586   5.815  1.00  0.00     0.216 C 
BRANCH   6   7
HETATM    7  O2  UNL     1     -12.555  -2.125   4.679  1.00  0.00    -0.287 OA
BRANCH   7   8
HETATM    8  P1  UNL     1     -11.550  -2.453   3.352  1.00  0.00     0.417 P 
HETATM    9  O3  UNL     1     -11.596  -3.913   2.983  1.00  0.00    -0.624 OA
HETATM   10  O4  UNL     1      -9.932  -2.099   3.778  1.00  0.00    -0.624 OA
BRANCH   8  11
HETATM   11  O5  UNL     1     -11.940  -1.479   2.027  1.00  0.00    -0.186 OA
BRANCH  11  12
HETATM   12  P2  UNL     1     -10.662  -1.386   0.941  1.00  0.00     0.379 P 
HETATM   13  O6  UNL     1      -9.688  -0.271   1.300  1.00  0.00    -0.629 OA
HETATM   14  O7  UNL     1     -11.203  -1.160  -0.640  1.00  0.00    -0.629 OA
BRANCH  12  15
HETATM   15  N5  UNL     1      -9.748  -2.886   1.025  1.00  0.00    -0.218 N 
ATOM     16  H5  UNL     1      -9.798  -3.586   1.765  1.00  0.00     0.179 HD
BRANCH  15  17
HETATM   17  P3  UNL     1      -8.733  -2.952  -0.405  1.00  0.00     0.381 P 
HETATM   18  O8  UNL     1      -8.583  -1.597  -1.032  1.00  0.00    -0.622 OA
HETATM   19  O9  UNL     1      -9.416  -3.971  -1.587  1.00  0.00    -0.622 OA
HETATM   20  O10 UNL     1      -7.227  -3.557   0.082  1.00  0.00    -0.622 OA
ENDBRANCH  15  17
ENDBRANCH  12  15
ENDBRANCH  11  12
ENDBRANCH   8  11
ENDBRANCH   7   8
ENDBRANCH   6   7
ENDBRANCH   3   6
BRANCH   4  21
HETATM   21  O11 UNL     1     -14.825  -3.399   6.298  1.00  0.00    -0.390 OA
ATOM     22  H11 UNL     1     -14.619  -3.284   5.378  1.00  0.00     0.210 HD
ENDBRANCH   4  21
BRANCH   1  23
HETATM   23  N4  UNL     1     -12.059  -6.333   8.625  1.00  0.00    -0.297 N 
HETATM   24  C2  UNL     1     -10.806  -6.826   8.836  1.00  0.00     0.146 A 
HETATM   25  N2  UNL     1      -9.711  -6.904   8.054  1.00  0.00    -0.314 N 
HETATM   26  C3  UNL     1     -10.730  -7.322  10.123  1.00  0.00     0.146 A 
HETATM   27  C1  UNL     1      -8.548  -7.437   8.457  1.00  0.00     0.196 A 
ATOM     28  H2  UNL     1      -9.770  -6.537   7.103  1.00  0.00     0.170 HD
HETATM   29  N1  UNL     1      -7.410  -7.494   7.582  1.00  0.00    -0.063 NA
HETATM   30  N6  UNL     1      -8.476  -7.918   9.708  1.00  0.00    -0.295 N 
HETATM   31  C10 UNL     1      -9.537  -7.871  10.541  1.00  0.00     0.278 A 
ATOM     32  H6  UNL     1      -7.602  -8.328  10.037  1.00  0.00     0.171 HD
HETATM   33  O13 UNL     1      -9.445  -8.328  11.711  1.00  0.00    -0.265 OA
HETATM   34  N3  UNL     1     -11.947  -7.117  10.667  1.00  0.00    -0.345 N 
HETATM   35  C4  UNL     1     -12.743  -6.518   9.749  1.00  0.00     0.188 A 
ATOM     36  H3  UNL     1     -12.223  -7.371  11.615  1.00  0.00     0.167 HD
ENDBRANCH   1  23
BRANCH   5  37
HETATM   37  O12 UNL     1     -14.726  -5.880   6.615  1.00  0.00    -0.388 OA
ATOM     38  H12 UNL     1     -15.266  -5.252   6.151  1.00  0.00     0.210 HD
ENDBRANCH   5  37
TORSDOF 10
ENDMDL
