MODEL 9
REMARK VINA RESULT: -8.686621154      4.063      5.356
REMARK  10 active torsions:
REMARK  status: ('A' for Active; 'I' for Inactive)
REMARK    1  A    between atoms: N4_10  and  C5_11 
REMARK    2  A    between atoms: C6_13  and  C7_14 
REMARK    3  A    between atoms: C7_14  and  O2_15 
REMARK    4  A    between atoms: O2_15  and  P1_16 
REMARK    5  A    between atoms: P1_16  and  O5_19 
REMARK    6  A    between atoms: O5_19  and  P2_20 
REMARK    7  A    between atoms: P2_20  and  N5_23 
REMARK    8  A    between atoms: N5_23  and  P3_25 
REMARK    9  A    between atoms: C8_29  and  O11_30 
REMARK   10  A    between atoms: C9_32  and  O12_33 
ROOT
HETATM    1  C5  UNL     1     -11.235  -4.885   7.061  1.00  0.00     0.262 C 
HETATM    2  O1  UNL     1     -10.314  -4.562   6.070  1.00  0.00    -0.353 OA
HETATM    3  C6  UNL     1     -10.741  -3.298   5.657  1.00  0.00     0.180 C 
HETATM    4  C8  UNL     1     -10.780  -2.569   6.995  1.00  0.00     0.182 C 
HETATM    5  C9  UNL     1     -11.505  -3.608   7.832  1.00  0.00     0.198 C 
ENDROOT
BRANCH   3   6
HETATM    6  C7  UNL     1      -9.783  -2.655   4.698  1.00  0.00     0.216 C 
BRANCH   6   7
HETATM    7  O2  UNL     1     -10.426  -1.592   4.086  1.00  0.00    -0.287 OA
BRANCH   7   8
HETATM    8  P1  UNL     1     -11.822  -2.200   3.337  1.00  0.00     0.417 P 
HETATM    9  O3  UNL     1     -13.018  -2.095   4.249  1.00  0.00    -0.624 OA
HETATM   10  O4  UNL     1     -11.595  -3.863   3.006  1.00  0.00    -0.624 OA
BRANCH   8  11
HETATM   11  O5  UNL     1     -12.115  -1.434   1.860  1.00  0.00    -0.186 OA
BRANCH  11  12
HETATM   12  P2  UNL     1     -10.717  -1.341   0.933  1.00  0.00     0.379 P 
HETATM   13  O6  UNL     1      -9.794  -0.223   1.404  1.00  0.00    -0.629 OA
HETATM   14  O7  UNL     1     -11.067  -1.118  -0.701  1.00  0.00    -0.629 OA
BRANCH  12  15
HETATM   15  N5  UNL     1      -9.818  -2.839   1.127  1.00  0.00    -0.218 N 
ATOM     16  H5  UNL     1      -9.878  -3.485   1.915  1.00  0.00     0.179 HD
BRANCH  15  17
HETATM   17  P3  UNL     1      -8.796  -3.014  -0.288  1.00  0.00     0.381 P 
HETATM   18  O8  UNL     1      -7.439  -3.540   0.080  1.00  0.00    -0.622 OA
HETATM   19  O9  UNL     1      -8.553  -1.511  -1.052  1.00  0.00    -0.622 OA
HETATM   20  O10 UNL     1      -9.585  -4.080  -1.343  1.00  0.00    -0.622 OA
ENDBRANCH  15  17
ENDBRANCH  12  15
ENDBRANCH  11  12
ENDBRANCH   8  11
ENDBRANCH   7   8
ENDBRANCH   6   7
ENDBRANCH   3   6
BRANCH   4  21
HETATM   21  O11 UNL     1     -11.466  -1.383   6.921  1.00  0.00    -0.390 OA
ATOM     22  H11 UNL     1     -11.219  -0.872   6.160  1.00  0.00     0.210 HD
ENDBRANCH   4  21
BRANCH   1  23
HETATM   23  N4  UNL     1     -10.714  -5.849   7.999  1.00  0.00    -0.297 N 
HETATM   24  C2  UNL     1      -9.871  -6.845   7.605  1.00  0.00     0.146 A 
HETATM   25  N2  UNL     1      -9.349  -7.182   6.408  1.00  0.00    -0.314 N 
HETATM   26  C3  UNL     1      -9.537  -7.610   8.706  1.00  0.00     0.146 A 
HETATM   27  C1  UNL     1      -8.521  -8.221   6.227  1.00  0.00     0.196 A 
ATOM     28  H2  UNL     1      -9.599  -6.615   5.597  1.00  0.00     0.170 HD
HETATM   29  N1  UNL     1      -7.993  -8.536   4.927  1.00  0.00    -0.063 NA
HETATM   30  N6  UNL     1      -8.197  -8.963   7.297  1.00  0.00    -0.295 N 
HETATM   31  C10 UNL     1      -8.686  -8.679   8.522  1.00  0.00     0.278 A 
ATOM     32  H6  UNL     1      -7.569  -9.759   7.182  1.00  0.00     0.171 HD
HETATM   33  O13 UNL     1      -8.367  -9.390   9.512  1.00  0.00    -0.265 OA
HETATM   34  N3  UNL     1     -10.188  -7.057   9.748  1.00  0.00    -0.345 N 
HETATM   35  C4  UNL     1     -10.898  -5.991   9.307  1.00  0.00     0.188 A 
ATOM     36  H3  UNL     1     -10.153  -7.387  10.713  1.00  0.00     0.167 HD
ENDBRANCH   1  23
BRANCH   5  37
HETATM   37  O12 UNL     1     -12.870  -3.267   7.784  1.00  0.00    -0.388 OA
ATOM     38  H12 UNL     1     -12.986  -2.325   7.780  1.00  0.00     0.210 HD
ENDBRANCH   5  37
TORSDOF 10
ENDMDL
