MODEL 8
REMARK VINA RESULT: -8.709748925      4.012      5.127
REMARK  10 active torsions:
REMARK  status: ('A' for Active; 'I' for Inactive)
REMARK    1  A    between atoms: N4_10  and  C5_11 
REMARK    2  A    between atoms: C6_13  and  C7_14 
REMARK    3  A    between atoms: C7_14  and  O2_15 
REMARK    4  A    between atoms: O2_15  and  P1_16 
REMARK    5  A    between atoms: P1_16  and  O5_19 
REMARK    6  A    between atoms: O5_19  and  P2_20 
REMARK    7  A    between atoms: P2_20  and  N5_23 
REMARK    8  A    between atoms: N5_23  and  P3_25 
REMARK    9  A    between atoms: C8_29  and  O11_30 
REMARK   10  A    between atoms: C9_32  and  O12_33 
ROOT
HETATM    1  C5  UNL     1     -11.831  -5.067   7.982  1.00  0.00     0.262 C 
HETATM    2  O1  UNL     1     -12.242  -4.963   6.657  1.00  0.00    -0.353 OA
HETATM    3  C6  UNL     1     -12.747  -3.662   6.596  1.00  0.00     0.180 C 
HETATM    4  C8  UNL     1     -11.557  -2.879   7.139  1.00  0.00     0.182 C 
HETATM    5  C9  UNL     1     -11.223  -3.728   8.351  1.00  0.00     0.198 C 
ENDROOT
BRANCH   3   6
HETATM    6  C7  UNL     1     -13.097  -3.249   5.197  1.00  0.00     0.216 C 
BRANCH   6   7
HETATM    7  O2  UNL     1     -12.342  -2.136   4.869  1.00  0.00    -0.287 OA
BRANCH   7   8
HETATM    8  P1  UNL     1     -11.476  -2.502   3.457  1.00  0.00     0.417 P 
HETATM    9  O3  UNL     1     -11.619  -3.958   3.094  1.00  0.00    -0.624 OA
HETATM   10  O4  UNL     1      -9.812  -2.222   3.736  1.00  0.00    -0.624 OA
BRANCH   8  11
HETATM   11  O5  UNL     1     -11.939  -1.507   2.172  1.00  0.00    -0.186 OA
BRANCH  11  12
HETATM   12  P2  UNL     1     -10.738  -1.423   1.002  1.00  0.00     0.379 P 
HETATM   13  O6  UNL     1      -9.729  -0.320   1.299  1.00  0.00    -0.629 OA
HETATM   14  O7  UNL     1     -11.383  -1.182  -0.537  1.00  0.00    -0.629 OA
BRANCH  12  15
HETATM   15  N5  UNL     1      -9.838  -2.933   1.016  1.00  0.00    -0.218 N 
ATOM     16  H5  UNL     1      -9.894  -3.666   1.723  1.00  0.00     0.179 HD
BRANCH  15  17
HETATM   17  P3  UNL     1      -8.823  -2.941  -0.415  1.00  0.00     0.381 P 
HETATM   18  O8  UNL     1      -8.631  -1.555  -0.958  1.00  0.00    -0.622 OA
HETATM   19  O9  UNL     1      -9.533  -3.865  -1.658  1.00  0.00    -0.622 OA
HETATM   20  O10 UNL     1      -7.336  -3.620   0.033  1.00  0.00    -0.622 OA
ENDBRANCH  15  17
ENDBRANCH  12  15
ENDBRANCH  11  12
ENDBRANCH   8  11
ENDBRANCH   7   8
ENDBRANCH   6   7
ENDBRANCH   3   6
BRANCH   4  21
HETATM   21  O11 UNL     1     -11.893  -1.592   7.477  1.00  0.00    -0.390 OA
ATOM     22  H11 UNL     1     -12.310  -1.541   8.329  1.00  0.00     0.210 HD
ENDBRANCH   4  21
BRANCH   1  23
HETATM   23  N4  UNL     1     -10.805  -6.066   8.159  1.00  0.00    -0.297 N 
HETATM   24  C2  UNL     1     -10.599  -6.673   9.362  1.00  0.00     0.146 A 
HETATM   25  N2  UNL     1     -11.195  -6.545  10.565  1.00  0.00    -0.314 N 
HETATM   26  C3  UNL     1      -9.562  -7.577   9.236  1.00  0.00     0.146 A 
HETATM   27  C1  UNL     1     -10.836  -7.249  11.648  1.00  0.00     0.196 A 
ATOM     28  H2  UNL     1     -11.960  -5.876  10.655  1.00  0.00     0.170 HD
HETATM   29  N1  UNL     1     -11.507  -7.074  12.908  1.00  0.00    -0.063 NA
HETATM   30  N6  UNL     1      -9.829  -8.128  11.524  1.00  0.00    -0.295 N 
HETATM   31  C10 UNL     1      -9.191  -8.303  10.348  1.00  0.00     0.278 A 
ATOM     32  H6  UNL     1      -9.540  -8.675  12.335  1.00  0.00     0.171 HD
HETATM   33  O13 UNL     1      -8.248  -9.134  10.255  1.00  0.00    -0.265 OA
HETATM   34  N3  UNL     1      -9.162  -7.498   7.952  1.00  0.00    -0.345 N 
HETATM   35  C4  UNL     1      -9.922  -6.579   7.310  1.00  0.00     0.188 A 
ATOM     36  H3  UNL     1      -8.408  -8.041   7.531  1.00  0.00     0.167 HD
ENDBRANCH   1  23
BRANCH   5  37
HETATM   37  O12 UNL     1     -11.901  -3.147   9.438  1.00  0.00    -0.388 OA
ATOM     38  H12 UNL     1     -11.600  -2.259   9.593  1.00  0.00     0.210 HD
ENDBRANCH   5  37
TORSDOF 10
ENDMDL
