MODEL 1
REMARK VINA RESULT: -10.647425253      0.000      0.000
REMARK  10 active torsions:
REMARK  status: ('A' for Active; 'I' for Inactive)
REMARK    1  A    between atoms: N4_10  and  C5_11 
REMARK    2  A    between atoms: C6_13  and  C7_14 
REMARK    3  A    between atoms: C7_14  and  O2_15 
REMARK    4  A    between atoms: O2_15  and  P1_16 
REMARK    5  A    between atoms: P1_16  and  O5_19 
REMARK    6  A    between atoms: O5_19  and  P2_20 
REMARK    7  A    between atoms: P2_20  and  N5_23 
REMARK    8  A    between atoms: N5_23  and  P3_25 
REMARK    9  A    between atoms: C8_29  and  O11_30 
REMARK   10  A    between atoms: C9_32  and  O12_33 
ROOT
HETATM    1  C5  UNL     1     -10.372  -2.105   6.002  1.00  0.00     0.262 C 
HETATM    2  O1  UNL     1     -10.213  -2.408   4.653  1.00  0.00    -0.353 OA
HETATM    3  C6  UNL     1     -11.496  -2.812   4.279  1.00  0.00     0.180 C 
HETATM    4  C8  UNL     1     -12.311  -1.613   4.749  1.00  0.00     0.182 C 
HETATM    5  C9  UNL     1     -11.723  -1.432   6.137  1.00  0.00     0.198 C 
ENDROOT
BRANCH   3   6
HETATM    6  C7  UNL     1     -11.619  -3.026   2.799  1.00  0.00     0.216 C 
BRANCH   6   7
HETATM    7  O2  UNL     1     -11.914  -1.810   2.205  1.00  0.00    -0.287 OA
BRANCH   7   8
HETATM    8  P1  UNL     1     -10.644  -1.438   1.144  1.00  0.00     0.417 P 
HETATM    9  O3  UNL     1     -10.091  -0.063   1.419  1.00  0.00    -0.624 OA
HETATM   10  O4  UNL     1     -11.244  -1.421  -0.457  1.00  0.00    -0.624 OA
BRANCH   8  11
HETATM   11  O5  UNL     1      -9.424  -2.606   1.206  1.00  0.00    -0.186 OA
BRANCH  11  12
HETATM   12  P2  UNL     1      -8.789  -2.907  -0.319  1.00  0.00     0.379 P 
HETATM   13  O6  UNL     1      -7.544  -3.784  -0.256  1.00  0.00    -0.629 OA
HETATM   14  O7  UNL     1      -8.419  -1.478  -1.134  1.00  0.00    -0.629 OA
BRANCH  12  15
HETATM   15  N5  UNL     1      -9.978  -3.806  -1.251  1.00  0.00    -0.218 N 
ATOM     16  H5  UNL     1     -10.933  -4.025  -0.966  1.00  0.00     0.179 HD
BRANCH  15  17
HETATM   17  P3  UNL     1      -9.214  -4.258  -2.764  1.00  0.00     0.381 P 
HETATM   18  O8  UNL     1      -8.173  -5.319  -2.555  1.00  0.00    -0.622 OA
HETATM   19  O9  UNL     1      -8.423  -2.923  -3.467  1.00  0.00    -0.622 OA
HETATM   20  O10 UNL     1     -10.439  -4.815  -3.795  1.00  0.00    -0.622 OA
ENDBRANCH  15  17
ENDBRANCH  12  15
ENDBRANCH  11  12
ENDBRANCH   8  11
ENDBRANCH   7   8
ENDBRANCH   6   7
ENDBRANCH   3   6
BRANCH   4  21
HETATM   21  O11 UNL     1     -13.657  -1.880   4.781  1.00  0.00    -0.390 OA
ATOM     22  H11 UNL     1     -14.176  -1.142   4.485  1.00  0.00     0.210 HD
ENDBRANCH   4  21
BRANCH   1  23
HETATM   23  N4  UNL     1      -9.378  -1.170   6.473  1.00  0.00    -0.297 N 
HETATM   24  C2  UNL     1      -9.203  -0.923   7.802  1.00  0.00     0.146 A 
HETATM   25  N2  UNL     1      -9.807  -1.402   8.908  1.00  0.00    -0.314 N 
HETATM   26  C3  UNL     1      -8.193   0.006   7.955  1.00  0.00     0.146 A 
HETATM   27  C1  UNL     1      -9.481  -1.023  10.153  1.00  0.00     0.196 A 
ATOM     28  H2  UNL     1     -10.553  -2.088   8.792  1.00  0.00     0.170 HD
HETATM   29  N1  UNL     1     -10.158  -1.566  11.299  1.00  0.00    -0.063 NA
HETATM   30  N6  UNL     1      -8.499  -0.120  10.300  1.00  0.00    -0.295 N 
HETATM   31  C10 UNL     1      -7.855   0.397   9.233  1.00  0.00     0.278 A 
ATOM     32  H6  UNL     1      -8.234   0.182  11.238  1.00  0.00     0.171 HD
HETATM   33  O13 UNL     1      -6.936   1.244   9.396  1.00  0.00    -0.265 OA
HETATM   34  N3  UNL     1      -7.777   0.304   6.708  1.00  0.00    -0.345 N 
HETATM   35  C4  UNL     1      -8.503  -0.415   5.819  1.00  0.00     0.188 A 
ATOM     36  H3  UNL     1      -7.035   0.963   6.472  1.00  0.00     0.167 HD
ENDBRANCH   1  23
BRANCH   5  37
HETATM   37  O12 UNL     1     -12.559  -2.146   7.014  1.00  0.00    -0.388 OA
ATOM     38  H12 UNL     1     -12.871  -1.588   7.717  1.00  0.00     0.210 HD
ENDBRANCH   5  37
TORSDOF 10
ENDMDL
