MODEL 11
REMARK VINA RESULT: -8.101181178      1.212      5.430
REMARK  5 active torsions:
REMARK  status: ('A' for Active; 'I' for Inactive)
REMARK    1  A    between atoms: C2_2  and  O1_3 
REMARK    2  A    between atoms: C2_2  and  C10_15 
REMARK    3  A    between atoms: O1_3  and  C3_4 
REMARK    4  A    between atoms: C7_8  and  C8_9 
REMARK    5  A    between atoms: C9_12  and  O4_13 
ROOT
HETATM    1  C3  UNL     1       6.174  19.969  74.135  1.00  0.00     0.185 A 
HETATM    2  C4  UNL     1       6.052  18.535  74.197  1.00  0.00     0.008 A 
HETATM    3  C5  UNL     1       6.246  17.766  73.166  1.00  0.00    -0.001 A 
HETATM    4  C6  UNL     1       6.605  18.350  71.868  1.00  0.00     0.016 A 
HETATM    5  C7  UNL     1       6.732  19.648  71.744  1.00  0.00     0.050 A 
HETATM    6  C9  UNL     1       6.529  20.556  72.860  1.00  0.00     0.191 A 
ENDROOT
BRANCH   1   7
HETATM    7  O1  UNL     1       5.044  20.623  74.763  1.00  0.00    -0.333 OA
BRANCH   7   8
HETATM    8  C2  UNL     1       5.359  21.684  75.585  1.00  0.00     0.136 C 
HETATM    9  C1  UNL     1       4.867  22.884  75.377  1.00  0.00     0.058 C 
BRANCH   8  10
HETATM   10  C10 UNL     1       6.253  21.475  76.707  1.00  0.00     0.233 C 
HETATM   11  O5  UNL     1       6.959  22.398  77.197  1.00  0.00    -0.642 OA
HETATM   12  O6  UNL     1       6.381  20.225  77.314  1.00  0.00    -0.642 OA
ENDBRANCH   8  10
ENDBRANCH   7   8
ENDBRANCH   1   7
BRANCH   6  13
HETATM   13  O4  UNL     1       7.584  21.499  72.953  1.00  0.00    -0.388 OA
ATOM     14  H4  UNL     1       7.745  21.793  73.842  1.00  0.00     0.210 HD
ENDBRANCH   6  13
BRANCH   5  15
HETATM   15  C8  UNL     1       7.098  20.169  70.402  1.00  0.00     0.207 C 
HETATM   16  O2  UNL     1       6.641  21.235  69.952  1.00  0.00    -0.644 OA
HETATM   17  O3  UNL     1       7.976  19.437  69.635  1.00  0.00    -0.644 OA
ENDBRANCH   5  15
TORSDOF 5
ENDMDL
