MODEL 8
REMARK VINA RESULT: -8.321771153      1.275      5.471
REMARK  5 active torsions:
REMARK  status: ('A' for Active; 'I' for Inactive)
REMARK    1  A    between atoms: C2_2  and  O1_3 
REMARK    2  A    between atoms: C2_2  and  C10_15 
REMARK    3  A    between atoms: O1_3  and  C3_4 
REMARK    4  A    between atoms: C7_8  and  C8_9 
REMARK    5  A    between atoms: C9_12  and  O4_13 
ROOT
HETATM    1  C3  UNL     1       6.624  19.464  74.175  1.00  0.00     0.185 A 
HETATM    2  C4  UNL     1       6.215  18.086  74.070  1.00  0.00     0.008 A 
HETATM    3  C5  UNL     1       6.123  17.464  72.931  1.00  0.00    -0.001 A 
HETATM    4  C6  UNL     1       6.440  18.164  71.680  1.00  0.00     0.016 A 
HETATM    5  C7  UNL     1       6.818  19.417  71.706  1.00  0.00     0.050 A 
HETATM    6  C9  UNL     1       6.941  20.163  72.947  1.00  0.00     0.191 A 
ENDROOT
BRANCH   1   7
HETATM    7  O1  UNL     1       5.736  20.213  75.039  1.00  0.00    -0.333 OA
BRANCH   7   8
HETATM    8  C2  UNL     1       6.240  20.507  76.289  1.00  0.00     0.136 C 
HETATM    9  C1  UNL     1       6.624  19.561  77.115  1.00  0.00     0.058 C 
BRANCH   8  10
HETATM   10  C10 UNL     1       6.353  21.891  76.704  1.00  0.00     0.233 C 
HETATM   11  O5  UNL     1       5.709  22.823  76.149  1.00  0.00    -0.642 OA
HETATM   12  O6  UNL     1       7.189  22.274  77.754  1.00  0.00    -0.642 OA
ENDBRANCH   8  10
ENDBRANCH   7   8
ENDBRANCH   1   7
BRANCH   6  13
HETATM   13  O4  UNL     1       8.172  20.865  73.006  1.00  0.00    -0.388 OA
ATOM     14  H4  UNL     1       8.293  21.341  73.819  1.00  0.00     0.210 HD
ENDBRANCH   6  13
BRANCH   5  15
HETATM   15  C8  UNL     1       7.124  20.062  70.403  1.00  0.00     0.207 C 
HETATM   16  O2  UNL     1       6.640  21.158  70.070  1.00  0.00    -0.644 OA
HETATM   17  O3  UNL     1       7.976  19.413  69.539  1.00  0.00    -0.644 OA
ENDBRANCH   5  15
TORSDOF 5
ENDMDL
