MODEL 2
REMARK VINA RESULT: -8.929931541      0.943      1.347
REMARK  5 active torsions:
REMARK  status: ('A' for Active; 'I' for Inactive)
REMARK    1  A    between atoms: C2_2  and  O1_3 
REMARK    2  A    between atoms: C2_2  and  C10_15 
REMARK    3  A    between atoms: O1_3  and  C3_4 
REMARK    4  A    between atoms: C7_8  and  C8_9 
REMARK    5  A    between atoms: C9_12  and  O4_13 
ROOT
HETATM    1  C3  UNL     1       6.425  20.575  74.023  1.00  0.00     0.185 A 
HETATM    2  C4  UNL     1       6.437  19.134  73.994  1.00  0.00     0.008 A 
HETATM    3  C5  UNL     1       6.528  18.409  75.070  1.00  0.00    -0.001 A 
HETATM    4  C6  UNL     1       6.626  19.052  76.386  1.00  0.00     0.016 A 
HETATM    5  C7  UNL     1       6.621  20.358  76.482  1.00  0.00     0.050 A 
HETATM    6  C9  UNL     1       6.520  21.219  75.316  1.00  0.00     0.191 A 
ENDROOT
BRANCH   1   7
HETATM    7  O1  UNL     1       7.340  21.129  73.047  1.00  0.00    -0.333 OA
BRANCH   7   8
HETATM    8  C2  UNL     1       7.192  20.651  71.761  1.00  0.00     0.136 C 
HETATM    9  C1  UNL     1       6.045  20.732  71.127  1.00  0.00     0.058 C 
BRANCH   8  10
HETATM   10  C10 UNL     1       8.326  20.048  71.091  1.00  0.00     0.233 C 
HETATM   11  O5  UNL     1       9.486  20.038  71.588  1.00  0.00    -0.642 OA
HETATM   12  O6  UNL     1       8.196  19.434  69.844  1.00  0.00    -0.642 OA
ENDBRANCH   8  10
ENDBRANCH   7   8
ENDBRANCH   1   7
BRANCH   6  13
HETATM   13  O4  UNL     1       5.546  22.232  75.508  1.00  0.00    -0.388 OA
ATOM     14  H4  UNL     1       5.924  23.093  75.649  1.00  0.00     0.210 HD
ENDBRANCH   6  13
BRANCH   5  15
HETATM   15  C8  UNL     1       6.722  20.940  77.845  1.00  0.00     0.207 C 
HETATM   16  O2  UNL     1       6.478  20.283  78.872  1.00  0.00    -0.644 OA
HETATM   17  O3  UNL     1       7.102  22.258  77.965  1.00  0.00    -0.644 OA
ENDBRANCH   5  15
TORSDOF 5
ENDMDL
