MODEL 5
REMARK VINA RESULT: -8.504348076      1.624      2.369
REMARK  5 active torsions:
REMARK  status: ('A' for Active; 'I' for Inactive)
REMARK    1  A    between atoms: C2_2  and  O1_3 
REMARK    2  A    between atoms: C2_2  and  C10_15 
REMARK    3  A    between atoms: O1_3  and  C3_4 
REMARK    4  A    between atoms: C7_8  and  C8_9 
REMARK    5  A    between atoms: C9_12  and  O4_13 
ROOT
HETATM    1  C3  UNL     1       5.999  18.803  73.471  1.00  0.00     0.185 A 
HETATM    2  C4  UNL     1       6.568  18.252  74.675  1.00  0.00     0.008 A 
HETATM    3  C5  UNL     1       6.627  18.915  75.792  1.00  0.00    -0.001 A 
HETATM    4  C6  UNL     1       6.104  20.285  75.867  1.00  0.00     0.016 A 
HETATM    5  C7  UNL     1       5.574  20.844  74.808  1.00  0.00     0.050 A 
HETATM    6  C9  UNL     1       5.479  20.153  73.533  1.00  0.00     0.191 A 
ENDROOT
BRANCH   1   7
HETATM    7  O1  UNL     1       6.864  18.583  72.330  1.00  0.00    -0.333 OA
BRANCH   7   8
HETATM    8  C2  UNL     1       7.508  19.706  71.854  1.00  0.00     0.136 C 
HETATM    9  C1  UNL     1       8.269  20.442  72.630  1.00  0.00     0.058 C 
BRANCH   8  10
HETATM   10  C10 UNL     1       7.346  20.083  70.464  1.00  0.00     0.233 C 
HETATM   11  O5  UNL     1       6.583  21.018  70.097  1.00  0.00    -0.642 OA
HETATM   12  O6  UNL     1       8.034  19.426  69.443  1.00  0.00    -0.642 OA
ENDBRANCH   8  10
ENDBRANCH   7   8
ENDBRANCH   1   7
BRANCH   6  13
HETATM   13  O4  UNL     1       4.179  20.277  72.977  1.00  0.00    -0.388 OA
ATOM     14  H4  UNL     1       4.186  20.558  72.070  1.00  0.00     0.210 HD
ENDBRANCH   6  13
BRANCH   5  15
HETATM   15  C8  UNL     1       5.064  22.231  74.955  1.00  0.00     0.207 C 
HETATM   16  O2  UNL     1       5.139  23.072  74.042  1.00  0.00    -0.644 OA
HETATM   17  O3  UNL     1       4.488  22.590  76.153  1.00  0.00    -0.644 OA
ENDBRANCH   5  15
TORSDOF 5
ENDMDL
