MODEL 9
REMARK VINA RESULT: -8.321172578      1.591      5.319
REMARK  5 active torsions:
REMARK  status: ('A' for Active; 'I' for Inactive)
REMARK    1  A    between atoms: C2_2  and  O1_3 
REMARK    2  A    between atoms: C2_2  and  C10_15 
REMARK    3  A    between atoms: O1_3  and  C3_4 
REMARK    4  A    between atoms: C7_8  and  C8_9 
REMARK    5  A    between atoms: C9_12  and  O4_13 
ROOT
HETATM    1  C3  UNL     1       6.527  19.766  74.769  1.00  0.00     0.185 A 
HETATM    2  C4  UNL     1       6.425  18.389  74.357  1.00  0.00     0.008 A 
HETATM    3  C5  UNL     1       6.202  18.038  73.125  1.00  0.00    -0.001 A 
HETATM    4  C6  UNL     1       6.039  19.061  72.084  1.00  0.00     0.016 A 
HETATM    5  C7  UNL     1       6.121  20.331  72.393  1.00  0.00     0.050 A 
HETATM    6  C9  UNL     1       6.370  20.783  73.751  1.00  0.00     0.191 A 
ENDROOT
BRANCH   1   7
HETATM    7  O1  UNL     1       5.730  20.023  75.952  1.00  0.00    -0.333 OA
BRANCH   7   8
HETATM    8  C2  UNL     1       6.447  20.320  77.092  1.00  0.00     0.136 C 
HETATM    9  C1  UNL     1       6.808  19.384  77.940  1.00  0.00     0.058 C 
BRANCH   8  10
HETATM   10  C10 UNL     1       6.814  21.696  77.364  1.00  0.00     0.233 C 
HETATM   11  O5  UNL     1       6.414  22.660  76.656  1.00  0.00    -0.642 OA
HETATM   12  O6  UNL     1       7.638  22.033  78.439  1.00  0.00    -0.642 OA
ENDBRANCH   8  10
ENDBRANCH   7   8
ENDBRANCH   1   7
BRANCH   6  13
HETATM   13  O4  UNL     1       7.388  21.770  73.785  1.00  0.00    -0.388 OA
ATOM     14  H4  UNL     1       7.244  22.434  74.450  1.00  0.00     0.210 HD
ENDBRANCH   6  13
BRANCH   5  15
HETATM   15  C8  UNL     1       5.948  21.311  71.290  1.00  0.00     0.207 C 
HETATM   16  O2  UNL     1       6.249  21.051  70.111  1.00  0.00    -0.644 OA
HETATM   17  O3  UNL     1       5.434  22.551  71.594  1.00  0.00    -0.644 OA
ENDBRANCH   5  15
TORSDOF 5
ENDMDL
