MODEL 1
REMARK VINA RESULT: -9.057900093      0.000      0.000
REMARK  5 active torsions:
REMARK  status: ('A' for Active; 'I' for Inactive)
REMARK    1  A    between atoms: C2_2  and  O1_3 
REMARK    2  A    between atoms: C2_2  and  C10_15 
REMARK    3  A    between atoms: O1_3  and  C3_4 
REMARK    4  A    between atoms: C7_8  and  C8_9 
REMARK    5  A    between atoms: C9_12  and  O4_13 
ROOT
HETATM    1  C3  UNL     1       6.355  20.749  73.584  1.00  0.00     0.185 A 
HETATM    2  C4  UNL     1       6.372  19.323  73.379  1.00  0.00     0.008 A 
HETATM    3  C5  UNL     1       6.462  18.472  74.358  1.00  0.00    -0.001 A 
HETATM    4  C6  UNL     1       6.554  18.949  75.744  1.00  0.00     0.016 A 
HETATM    5  C7  UNL     1       6.544  20.233  75.999  1.00  0.00     0.050 A 
HETATM    6  C9  UNL     1       6.444  21.230  74.947  1.00  0.00     0.191 A 
ENDROOT
BRANCH   1   7
HETATM    7  O1  UNL     1       7.271  21.422  72.687  1.00  0.00    -0.333 OA
BRANCH   7   8
HETATM    8  C2  UNL     1       7.943  20.600  71.806  1.00  0.00     0.136 C 
HETATM    9  C1  UNL     1       9.121  20.098  72.097  1.00  0.00     0.058 C 
BRANCH   8  10
HETATM   10  C10 UNL     1       7.338  20.279  70.528  1.00  0.00     0.233 C 
HETATM   11  O5  UNL     1       6.395  20.955  70.033  1.00  0.00    -0.642 OA
HETATM   12  O6  UNL     1       7.771  19.193  69.767  1.00  0.00    -0.642 OA
ENDBRANCH   8  10
ENDBRANCH   7   8
ENDBRANCH   1   7
BRANCH   6  13
HETATM   13  O4  UNL     1       5.466  22.209  75.258  1.00  0.00    -0.388 OA
ATOM     14  H4  UNL     1       5.028  22.051  76.087  1.00  0.00     0.210 HD
ENDBRANCH   6  13
BRANCH   5  15
HETATM   15  C8  UNL     1       6.639  20.644  77.423  1.00  0.00     0.207 C 
HETATM   16  O2  UNL     1       6.561  19.830  78.360  1.00  0.00    -0.644 OA
HETATM   17  O3  UNL     1       6.820  21.979  77.706  1.00  0.00    -0.644 OA
ENDBRANCH   5  15
TORSDOF 5
ENDMDL
