MODEL 1
REMARK VINA RESULT: -6.507984286      0.000      0.000
REMARK  6 active torsions:
REMARK  status: ('A' for Active; 'I' for Inactive)
REMARK    1  A    between atoms: N1_2  and  C3_4 
REMARK    2  A    between atoms: C3_4  and  C4_5 
REMARK    3  A    between atoms: C4_5  and  O1_6 
REMARK    4  A    between atoms: O1_6  and  P1_7 
REMARK    5  A    between atoms: P1_7  and  O4_10 
REMARK    6  A    between atoms: O4_10  and  P2_11 
ROOT
HETATM    1  P1  UNL     1      11.274   4.982  12.094  1.00  0.00     0.418 P 
HETATM    2  O2  UNL     1      11.541   5.572  10.722  1.00  0.00    -0.624 OA
HETATM    3  O3  UNL     1      12.412   3.776  12.388  1.00  0.00    -0.624 OA
ENDROOT
BRANCH   1   4
HETATM    4  O1  UNL     1      11.313   6.167  13.273  1.00  0.00    -0.288 OA
BRANCH   4   5
HETATM    5  C4  UNL     1      10.760   7.334  12.756  1.00  0.00     0.211 C 
BRANCH   5   6
HETATM    6  C3  UNL     1      10.564   8.351  13.868  1.00  0.00     0.298 C 
BRANCH   6   7
HETATM    7  N1  UNL     1       9.196   8.714  14.067  1.00  0.00     0.082 N 
HETATM    8  C1  UNL     1       9.015   9.352  15.330  1.00  0.00     0.309 C 
HETATM    9  C2  UNL     1       8.310   7.591  13.947  1.00  0.00     0.309 C 
ENDBRANCH   6   7
ENDBRANCH   5   6
ENDBRANCH   4   5
ENDBRANCH   1   4
BRANCH   1  10
HETATM   10  O4  UNL     1       9.730   4.250  12.075  1.00  0.00    -0.173 OA
BRANCH  10  11
HETATM   11  P2  UNL     1       9.836   2.742  11.363  1.00  0.00     0.431 P 
HETATM   12  O5  UNL     1      10.519   1.781  12.341  1.00  0.00    -0.616 OA
HETATM   13  O6  UNL     1      10.735   2.802   9.929  1.00  0.00    -0.616 OA
HETATM   14  O7  UNL     1       8.317   2.102  11.043  1.00  0.00    -0.616 OA
ENDBRANCH  10  11
ENDBRANCH   1  10
TORSDOF 6
ENDMDL
