MODEL 3
REMARK VINA RESULT: -6.346199829      4.423      5.766
REMARK  6 active torsions:
REMARK  status: ('A' for Active; 'I' for Inactive)
REMARK    1  A    between atoms: N1_2  and  C3_4 
REMARK    2  A    between atoms: C3_4  and  C4_5 
REMARK    3  A    between atoms: C4_5  and  O1_6 
REMARK    4  A    between atoms: O1_6  and  P1_7 
REMARK    5  A    between atoms: P1_7  and  O4_10 
REMARK    6  A    between atoms: O4_10  and  P2_11 
ROOT
HETATM    1  P1  UNL     1      11.041   3.629  11.569  1.00  0.00     0.418 P 
HETATM    2  O2  UNL     1       9.526   3.618  11.495  1.00  0.00    -0.624 OA
HETATM    3  O3  UNL     1      11.574   2.059  11.865  1.00  0.00    -0.624 OA
ENDROOT
BRANCH   1   4
HETATM    4  O1  UNL     1      11.704   4.250  10.165  1.00  0.00    -0.288 OA
BRANCH   4   5
HETATM    5  C4  UNL     1      10.923   3.853   9.085  1.00  0.00     0.211 C 
BRANCH   5   6
HETATM    6  C3  UNL     1      11.747   3.892   7.809  1.00  0.00     0.298 C 
BRANCH   6   7
HETATM    7  N1  UNL     1      11.413   4.990   6.956  1.00  0.00     0.082 N 
HETATM    8  C1  UNL     1      11.541   4.625   5.582  1.00  0.00     0.309 C 
HETATM    9  C2  UNL     1      12.202   6.156   7.234  1.00  0.00     0.309 C 
ENDBRANCH   6   7
ENDBRANCH   5   6
ENDBRANCH   4   5
ENDBRANCH   1   4
BRANCH   1  10
HETATM   10  O4  UNL     1      11.509   4.598  12.897  1.00  0.00    -0.173 OA
BRANCH  10  11
HETATM   11  P2  UNL     1      10.820   6.114  12.752  1.00  0.00     0.431 P 
HETATM   12  O5  UNL     1      10.942   6.576  11.297  1.00  0.00    -0.616 OA
HETATM   13  O6  UNL     1      11.595   7.238  13.756  1.00  0.00    -0.616 OA
HETATM   14  O7  UNL     1       9.180   6.083  13.111  1.00  0.00    -0.616 OA
ENDBRANCH  10  11
ENDBRANCH   1  10
TORSDOF 6
ENDMDL
