MODEL 13
REMARK VINA RESULT: -6.149733595      0.792      1.745
REMARK  6 active torsions:
REMARK  status: ('A' for Active; 'I' for Inactive)
REMARK    1  A    between atoms: N1_2  and  C3_4 
REMARK    2  A    between atoms: C3_4  and  C4_5 
REMARK    3  A    between atoms: C4_5  and  O1_6 
REMARK    4  A    between atoms: O1_6  and  P1_7 
REMARK    5  A    between atoms: P1_7  and  O4_10 
REMARK    6  A    between atoms: O4_10  and  P2_11 
ROOT
HETATM    1  P1  UNL     1      10.985   5.098  12.299  1.00  0.00     0.418 P 
HETATM    2  O2  UNL     1      11.497   5.535  10.940  1.00  0.00    -0.624 OA
HETATM    3  O3  UNL     1      12.196   4.215  13.068  1.00  0.00    -0.624 OA
ENDROOT
BRANCH   1   4
HETATM    4  O1  UNL     1      10.510   6.416  13.211  1.00  0.00    -0.288 OA
BRANCH   4   5
HETATM    5  C4  UNL     1       9.195   6.736  12.887  1.00  0.00     0.211 C 
BRANCH   5   6
HETATM    6  C3  UNL     1       8.647   7.743  13.885  1.00  0.00     0.298 C 
BRANCH   6   7
HETATM    7  N1  UNL     1       9.647   8.625  14.403  1.00  0.00     0.082 N 
HETATM    8  C1  UNL     1       9.086   9.528  15.355  1.00  0.00     0.309 C 
HETATM    9  C2  UNL     1      10.321   9.353  13.367  1.00  0.00     0.309 C 
ENDBRANCH   6   7
ENDBRANCH   5   6
ENDBRANCH   4   5
ENDBRANCH   1   4
BRANCH   1  10
HETATM   10  O4  UNL     1       9.650   4.057  12.063  1.00  0.00    -0.173 OA
BRANCH  10  11
HETATM   11  P2  UNL     1      10.148   2.684  11.253  1.00  0.00     0.431 P 
HETATM   12  O5  UNL     1      10.448   3.050   9.797  1.00  0.00    -0.616 OA
HETATM   13  O6  UNL     1       8.951   1.484  11.287  1.00  0.00    -0.616 OA
HETATM   14  O7  UNL     1      11.571   2.069  11.897  1.00  0.00    -0.616 OA
ENDBRANCH  10  11
ENDBRANCH   1  10
TORSDOF 6
ENDMDL
