MODEL 10
REMARK VINA RESULT: -9.103094635      1.378      1.859
REMARK  5 active torsions:
REMARK  status: ('A' for Active; 'I' for Inactive)
REMARK    1  A    between atoms: C1_2  and  C2_6 
REMARK    2  A    between atoms: C6_10  and  C7_11 
REMARK    3  A    between atoms: C7_11  and  N3_12 
REMARK    4  A    between atoms: N4_15  and  S1_16 
REMARK    5  A    between atoms: S1_16  and  C10_19 
ROOT
HETATM    1  N3  UNL     1       4.868   5.951  19.703  1.00  0.00    -0.346 N 
HETATM    2  C8  UNL     1       3.782   6.345  20.576  1.00  0.00     0.141 C 
HETATM    3  C9  UNL     1       4.316   6.671  21.925  1.00  0.00     0.128 C 
HETATM    4  N4  UNL     1       5.637   7.206  21.962  1.00  0.00    -0.196 NA
HETATM    5  C18 UNL     1       6.059   7.846  20.759  1.00  0.00     0.210 C 
HETATM    6  C19 UNL     1       6.005   6.808  19.677  1.00  0.00     0.234 C 
HETATM    7  O3  UNL     1       6.905   6.710  18.817  1.00  0.00    -0.272 OA
ENDROOT
BRANCH   4   8
HETATM    8  S1  UNL     1       5.837   8.148  23.364  1.00  0.00     0.250 S 
HETATM    9  O1  UNL     1       5.446   9.563  23.200  1.00  0.00    -0.205 OA
HETATM   10  O2  UNL     1       4.946   7.562  24.448  1.00  0.00    -0.205 OA
BRANCH   8  11
HETATM   11  C10 UNL     1       7.476   8.046  23.995  1.00  0.00     0.116 A 
HETATM   12  C11 UNL     1       7.837   7.426  25.155  1.00  0.00     0.045 A 
HETATM   13  C12 UNL     1       9.155   7.447  25.485  1.00  0.00    -0.017 A 
HETATM   14  C13 UNL     1       9.781   6.886  26.620  1.00  0.00     0.014 A 
HETATM   15  C17 UNL     1       9.995   8.091  24.618  1.00  0.00     0.018 A 
HETATM   16  C14 UNL     1      11.122   6.983  26.826  1.00  0.00     0.024 A 
HETATM   17  C15 UNL     1      11.970   7.628  25.958  1.00  0.00     0.035 A 
HETATM   18 CL1  UNL     1      13.685   7.773  26.187  1.00  0.00    -0.084 Cl
HETATM   19  C16 UNL     1      11.382   8.184  24.844  1.00  0.00     0.043 A 
HETATM   20  S2  UNL     1       8.946   8.639  23.389  1.00  0.00    -0.076 SA
ENDBRANCH   8  11
ENDBRANCH   4   8
BRANCH   1  21
HETATM   21  C7  UNL     1       4.836   4.776  18.886  1.00  0.00     0.164 C 
BRANCH  21  22
HETATM   22  C6  UNL     1       5.594   3.629  19.443  1.00  0.00    -0.039 A 
HETATM   23  C5  UNL     1       5.345   3.079  20.681  1.00  0.00     0.009 A 
HETATM   24  C4  UNL     1       6.095   2.019  21.111  1.00  0.00     0.002 A 
HETATM   25  C3  UNL     1       7.112   1.466  20.338  1.00  0.00     0.015 A 
HETATM   26  C2  UNL     1       7.367   2.003  19.107  1.00  0.00     0.005 A 
HETATM   27  C20 UNL     1       6.597   3.087  18.675  1.00  0.00     0.023 A 
BRANCH  26  28
HETATM   28  C1  UNL     1       8.418   1.450  18.277  1.00  0.00     0.120 C 
HETATM   29  N1  UNL     1       8.613   2.038  16.977  1.00  0.00    -0.082 NA
HETATM   30  N2  UNL     1       9.172   0.490  18.615  1.00  0.00    -0.387 N 
ATOM     31  H22 UNL     1       9.912   0.100  18.031  1.00  0.00     0.157 HD
ATOM     32  H21 UNL     1       9.034   0.073  19.536  1.00  0.00     0.157 HD
ENDBRANCH  26  28
ENDBRANCH  21  22
ENDBRANCH   1  21
TORSDOF 5
ENDMDL
