MODEL 1
REMARK VINA RESULT: -10.085102355      0.000      0.000
REMARK  5 active torsions:
REMARK  status: ('A' for Active; 'I' for Inactive)
REMARK    1  A    between atoms: C1_2  and  C2_6 
REMARK    2  A    between atoms: C6_10  and  C7_11 
REMARK    3  A    between atoms: C7_11  and  N3_12 
REMARK    4  A    between atoms: N4_15  and  S1_16 
REMARK    5  A    between atoms: S1_16  and  C10_19 
ROOT
HETATM    1  N3  UNL     1       5.992   5.371  19.910  1.00  0.00    -0.346 N 
HETATM    2  C8  UNL     1       7.277   5.539  20.556  1.00  0.00     0.141 C 
HETATM    3  C9  UNL     1       7.499   6.976  20.868  1.00  0.00     0.128 C 
HETATM    4  N4  UNL     1       6.330   7.741  21.150  1.00  0.00    -0.196 NA
HETATM    5  C18 UNL     1       5.215   6.984  21.619  1.00  0.00     0.210 C 
HETATM    6  C19 UNL     1       4.879   5.999  20.538  1.00  0.00     0.234 C 
HETATM    7  O3  UNL     1       3.697   5.756  20.217  1.00  0.00    -0.272 OA
ENDROOT
BRANCH   4   8
HETATM    8  S1  UNL     1       6.736   9.070  22.132  1.00  0.00     0.250 S 
HETATM    9  O1  UNL     1       7.009  10.313  21.381  1.00  0.00    -0.205 OA
HETATM   10  O2  UNL     1       5.554   9.352  23.046  1.00  0.00    -0.205 OA
BRANCH   8  11
HETATM   11  C10 UNL     1       8.085   8.707  23.203  1.00  0.00     0.116 A 
HETATM   12  C11 UNL     1       7.993   8.028  24.382  1.00  0.00     0.045 A 
HETATM   13  C12 UNL     1       9.144   7.839  25.079  1.00  0.00    -0.017 A 
HETATM   14  C13 UNL     1       9.319   7.176  26.314  1.00  0.00     0.014 A 
HETATM   15  C17 UNL     1      10.287   8.351  24.528  1.00  0.00     0.018 A 
HETATM   16  C14 UNL     1      10.539   7.060  26.903  1.00  0.00     0.024 A 
HETATM   17  C15 UNL     1      11.690   7.572  26.354  1.00  0.00     0.035 A 
HETATM   18 CL1  UNL     1      13.264   7.444  27.076  1.00  0.00    -0.084 Cl
HETATM   19  C16 UNL     1      11.544   8.223  25.150  1.00  0.00     0.043 A 
HETATM   20  S2  UNL     1       9.738   9.067  23.081  1.00  0.00    -0.076 SA
ENDBRANCH   8  11
ENDBRANCH   4   8
BRANCH   1  21
HETATM   21  C7  UNL     1       5.806   4.616  18.709  1.00  0.00     0.164 C 
BRANCH  21  22
HETATM   22  C6  UNL     1       6.477   3.293  18.712  1.00  0.00    -0.039 A 
HETATM   23  C5  UNL     1       6.250   2.326  19.666  1.00  0.00     0.009 A 
HETATM   24  C4  UNL     1       6.914   1.132  19.587  1.00  0.00     0.002 A 
HETATM   25  C3  UNL     1       7.821   0.852  18.568  1.00  0.00     0.015 A 
HETATM   26  C2  UNL     1       8.053   1.806  17.616  1.00  0.00     0.005 A 
HETATM   27  C20 UNL     1       7.371   3.022  17.704  1.00  0.00     0.023 A 
BRANCH  26  28
HETATM   28  C1  UNL     1       8.989   1.545  16.542  1.00  0.00     0.120 C 
HETATM   29  N1  UNL     1       9.790   0.352  16.637  1.00  0.00    -0.082 NA
HETATM   30  N2  UNL     1       9.153   2.292  15.531  1.00  0.00    -0.387 N 
ATOM     31  H22 UNL     1       9.813   2.109  14.775  1.00  0.00     0.157 HD
ATOM     32  H21 UNL     1       8.586   3.137  15.463  1.00  0.00     0.157 HD
ENDBRANCH  26  28
ENDBRANCH  21  22
ENDBRANCH   1  21
TORSDOF 5
ENDMDL
