MODEL 4
REMARK VINA RESULT: -9.691872759      3.809      8.532
REMARK  5 active torsions:
REMARK  status: ('A' for Active; 'I' for Inactive)
REMARK    1  A    between atoms: C1_2  and  C2_6 
REMARK    2  A    between atoms: C6_10  and  C7_11 
REMARK    3  A    between atoms: C7_11  and  N3_12 
REMARK    4  A    between atoms: N4_15  and  S1_16 
REMARK    5  A    between atoms: S1_16  and  C10_19 
ROOT
HETATM    1  N3  UNL     1       7.142   8.016  21.643  1.00  0.00    -0.346 N 
HETATM    2  C8  UNL     1       7.619   6.706  21.252  1.00  0.00     0.141 C 
HETATM    3  C9  UNL     1       6.636   6.065  20.339  1.00  0.00     0.128 C 
HETATM    4  N4  UNL     1       5.885   6.949  19.510  1.00  0.00    -0.196 NA
HETATM    5  C18 UNL     1       6.505   8.208  19.259  1.00  0.00     0.210 C 
HETATM    6  C19 UNL     1       6.695   8.868  20.593  1.00  0.00     0.234 C 
HETATM    7  O3  UNL     1       6.470  10.085  20.761  1.00  0.00    -0.272 OA
ENDROOT
BRANCH   4   8
HETATM    8  S1  UNL     1       5.374   6.128  18.110  1.00  0.00     0.250 S 
HETATM    9  O1  UNL     1       3.930   5.820  18.084  1.00  0.00    -0.205 OA
HETATM   10  O2  UNL     1       5.661   7.023  16.915  1.00  0.00    -0.205 OA
BRANCH   8  11
HETATM   11  C10 UNL     1       6.306   4.660  17.834  1.00  0.00     0.116 A 
HETATM   12  C11 UNL     1       6.685   3.775  18.799  1.00  0.00     0.045 A 
HETATM   13  C12 UNL     1       7.404   2.692  18.399  1.00  0.00    -0.017 A 
HETATM   14  C13 UNL     1       7.912   1.639  19.191  1.00  0.00     0.014 A 
HETATM   15  C17 UNL     1       7.678   2.597  17.062  1.00  0.00     0.018 A 
HETATM   16  C14 UNL     1       8.620   0.610  18.654  1.00  0.00     0.024 A 
HETATM   17  C15 UNL     1       8.898   0.510  17.313  1.00  0.00     0.035 A 
HETATM   18 CL1  UNL     1       9.799  -0.788  16.591  1.00  0.00    -0.084 Cl
HETATM   19  C16 UNL     1       8.413   1.526  16.520  1.00  0.00     0.043 A 
HETATM   20  S2  UNL     1       6.941   3.990  16.410  1.00  0.00    -0.076 SA
ENDBRANCH   8  11
ENDBRANCH   4   8
BRANCH   1  21
HETATM   21  C7  UNL     1       7.113   8.472  22.999  1.00  0.00     0.164 C 
BRANCH  21  22
HETATM   22  C6  UNL     1       8.446   8.550  23.643  1.00  0.00    -0.039 A 
HETATM   23  C5  UNL     1       9.506   9.258  23.120  1.00  0.00     0.009 A 
HETATM   24  C4  UNL     1      10.701   9.275  23.787  1.00  0.00     0.002 A 
HETATM   25  C3  UNL     1      10.891   8.596  24.988  1.00  0.00     0.015 A 
HETATM   26  C2  UNL     1       9.845   7.891  25.516  1.00  0.00     0.005 A 
HETATM   27  C20 UNL     1       8.629   7.878  24.828  1.00  0.00     0.023 A 
BRANCH  26  28
HETATM   28  C1  UNL     1      10.011   7.175  26.764  1.00  0.00     0.120 C 
HETATM   29  N1  UNL     1      11.354   6.838  27.161  1.00  0.00    -0.082 NA
HETATM   30  N2  UNL     1       9.060   6.825  27.526  1.00  0.00    -0.387 N 
ATOM     31  H22 UNL     1       9.176   6.320  28.405  1.00  0.00     0.157 HD
ATOM     32  H21 UNL     1       8.109   7.063  27.245  1.00  0.00     0.157 HD
ENDBRANCH  26  28
ENDBRANCH  21  22
ENDBRANCH   1  21
TORSDOF 5
ENDMDL
