MODEL 2
REMARK VINA RESULT: -9.860722039      3.652      8.548
REMARK  5 active torsions:
REMARK  status: ('A' for Active; 'I' for Inactive)
REMARK    1  A    between atoms: C1_2  and  C2_6 
REMARK    2  A    between atoms: C6_10  and  C7_11 
REMARK    3  A    between atoms: C7_11  and  N3_12 
REMARK    4  A    between atoms: N4_15  and  S1_16 
REMARK    5  A    between atoms: S1_16  and  C10_19 
ROOT
HETATM    1  N3  UNL     1       7.069   8.066  21.757  1.00  0.00    -0.346 N 
HETATM    2  C8  UNL     1       7.589   6.722  21.614  1.00  0.00     0.141 C 
HETATM    3  C9  UNL     1       6.549   5.841  21.021  1.00  0.00     0.128 C 
HETATM    4  N4  UNL     1       5.635   6.470  20.125  1.00  0.00    -0.196 NA
HETATM    5  C18 UNL     1       6.123   7.659  19.507  1.00  0.00     0.210 C 
HETATM    6  C19 UNL     1       6.430   8.625  20.613  1.00  0.00     0.234 C 
HETATM    7  O3  UNL     1       6.138   9.836  20.527  1.00  0.00    -0.272 OA
ENDROOT
BRANCH   4   8
HETATM    8  S1  UNL     1       5.014   5.318  19.037  1.00  0.00     0.250 S 
HETATM    9  O1  UNL     1       3.734   4.716  19.462  1.00  0.00    -0.205 OA
HETATM   10  O2  UNL     1       4.759   6.021  17.712  1.00  0.00    -0.205 OA
BRANCH   8  11
HETATM   11  C10 UNL     1       6.185   4.053  18.682  1.00  0.00     0.116 A 
HETATM   12  C11 UNL     1       6.841   3.897  17.497  1.00  0.00     0.045 A 
HETATM   13  C12 UNL     1       7.714   2.859  17.404  1.00  0.00    -0.017 A 
HETATM   14  C13 UNL     1       8.510   2.483  16.299  1.00  0.00     0.014 A 
HETATM   15  C17 UNL     1       7.848   2.068  18.512  1.00  0.00     0.018 A 
HETATM   16  C14 UNL     1       9.346   1.411  16.345  1.00  0.00     0.024 A 
HETATM   17  C15 UNL     1       9.485   0.614  17.455  1.00  0.00     0.035 A 
HETATM   18 CL1  UNL     1      10.541  -0.761  17.551  1.00  0.00    -0.084 Cl
HETATM   19  C16 UNL     1       8.718   0.962  18.545  1.00  0.00     0.043 A 
HETATM   20  S2  UNL     1       6.777   2.779  19.634  1.00  0.00    -0.076 SA
ENDBRANCH   8  11
ENDBRANCH   4   8
BRANCH   1  21
HETATM   21  C7  UNL     1       7.178   8.830  22.962  1.00  0.00     0.164 C 
BRANCH  21  22
HETATM   22  C6  UNL     1       8.516   8.776  23.598  1.00  0.00    -0.039 A 
HETATM   23  C5  UNL     1       9.637   9.375  23.068  1.00  0.00     0.009 A 
HETATM   24  C4  UNL     1      10.832   9.274  23.727  1.00  0.00     0.002 A 
HETATM   25  C3  UNL     1      10.962   8.580  24.927  1.00  0.00     0.015 A 
HETATM   26  C2  UNL     1       9.856   7.982  25.462  1.00  0.00     0.005 A 
HETATM   27  C20 UNL     1       8.639   8.090  24.783  1.00  0.00     0.023 A 
BRANCH  26  28
HETATM   28  C1  UNL     1       9.957   7.253  26.710  1.00  0.00     0.120 C 
HETATM   29  N1  UNL     1      11.274   6.860  27.142  1.00  0.00    -0.082 NA
HETATM   30  N2  UNL     1       8.972   6.939  27.443  1.00  0.00    -0.387 N 
ATOM     31  H22 UNL     1       9.044   6.426  28.322  1.00  0.00     0.157 HD
ATOM     32  H21 UNL     1       8.040   7.217  27.138  1.00  0.00     0.157 HD
ENDBRANCH  26  28
ENDBRANCH  21  22
ENDBRANCH   1  21
TORSDOF 5
ENDMDL
