MODEL 3
REMARK VINA RESULT: -9.712710814      4.235      8.273
REMARK  5 active torsions:
REMARK  status: ('A' for Active; 'I' for Inactive)
REMARK    1  A    between atoms: C1_2  and  C2_6 
REMARK    2  A    between atoms: C6_10  and  C7_11 
REMARK    3  A    between atoms: C7_11  and  N3_12 
REMARK    4  A    between atoms: N4_15  and  S1_16 
REMARK    5  A    between atoms: S1_16  and  C10_19 
ROOT
HETATM    1  N3  UNL     1       4.793   8.047  23.351  1.00  0.00    -0.346 N 
HETATM    2  C8  UNL     1       5.086   7.670  21.984  1.00  0.00     0.141 C 
HETATM    3  C9  UNL     1       5.116   6.188  21.868  1.00  0.00     0.128 C 
HETATM    4  N4  UNL     1       4.256   5.474  22.752  1.00  0.00    -0.196 NA
HETATM    5  C18 UNL     1       3.133   6.216  23.226  1.00  0.00     0.210 C 
HETATM    6  C19 UNL     1       3.682   7.402  23.964  1.00  0.00     0.234 C 
HETATM    7  O3  UNL     1       3.189   7.787  25.045  1.00  0.00    -0.272 OA
ENDROOT
BRANCH   4   8
HETATM    8  S1  UNL     1       3.862   3.963  22.076  1.00  0.00     0.250 S 
HETATM    9  O1  UNL     1       3.670   2.889  23.071  1.00  0.00    -0.205 OA
HETATM   10  O2  UNL     1       2.548   4.118  21.327  1.00  0.00    -0.205 OA
BRANCH   8  11
HETATM   11  C10 UNL     1       5.038   3.459  20.867  1.00  0.00     0.116 A 
HETATM   12  C11 UNL     1       5.792   2.325  20.928  1.00  0.00     0.045 A 
HETATM   13  C12 UNL     1       6.652   2.097  19.899  1.00  0.00    -0.017 A 
HETATM   14  C13 UNL     1       7.535   1.008  19.723  1.00  0.00     0.014 A 
HETATM   15  C17 UNL     1       6.676   3.032  18.900  1.00  0.00     0.018 A 
HETATM   16  C14 UNL     1       8.345   0.906  18.636  1.00  0.00     0.024 A 
HETATM   17  C15 UNL     1       8.374   1.842  17.630  1.00  0.00     0.035 A 
HETATM   18 CL1  UNL     1       9.394   1.746  16.229  1.00  0.00    -0.084 Cl
HETATM   19  C16 UNL     1       7.521   2.913  17.781  1.00  0.00     0.043 A 
HETATM   20  S2  UNL     1       5.523   4.181  19.410  1.00  0.00    -0.076 SA
ENDBRANCH   8  11
ENDBRANCH   4   8
BRANCH   1  21
HETATM   21  C7  UNL     1       5.551   9.018  24.080  1.00  0.00     0.164 C 
BRANCH  21  22
HETATM   22  C6  UNL     1       7.020   8.840  23.985  1.00  0.00    -0.039 A 
HETATM   23  C5  UNL     1       7.763   9.209  22.885  1.00  0.00     0.009 A 
HETATM   24  C4  UNL     1       9.116   9.008  22.887  1.00  0.00     0.002 A 
HETATM   25  C3  UNL     1       9.781   8.439  23.970  1.00  0.00     0.015 A 
HETATM   26  C2  UNL     1       9.053   8.070  25.067  1.00  0.00     0.005 A 
HETATM   27  C20 UNL     1       7.671   8.278  25.056  1.00  0.00     0.023 A 
BRANCH  26  28
HETATM   28  C1  UNL     1       9.715   7.476  26.210  1.00  0.00     0.120 C 
HETATM   29  N1  UNL     1      11.152   7.386  26.170  1.00  0.00    -0.082 NA
HETATM   30  N2  UNL     1       9.120   7.031  27.237  1.00  0.00    -0.387 N 
ATOM     31  H22 UNL     1       9.586   6.612  28.042  1.00  0.00     0.157 HD
ATOM     32  H21 UNL     1       8.102   7.094  27.265  1.00  0.00     0.157 HD
ENDBRANCH  26  28
ENDBRANCH  21  22
ENDBRANCH   1  21
TORSDOF 5
ENDMDL
