MODEL 6
REMARK VINA RESULT: -8.502426300      3.934      8.528
REMARK  5 active torsions:
REMARK  status: ('A' for Active; 'I' for Inactive)
REMARK    1  A    between atoms: N1_4  and  S1_5 
REMARK    2  A    between atoms: S1_5  and  C3_8 
REMARK    3  A    between atoms: C4_9  and  C5_10 
REMARK    4  A    between atoms: N2_18  and  C11_19 
REMARK    5  A    between atoms: C11_19  and  C12_20 
ROOT
HETATM    1  O1  UNL     1       7.612   4.591  20.135  1.00  0.00    -0.272 OA
HETATM    2  C1  UNL     1       6.704   5.216  20.710  1.00  0.00     0.238 C 
HETATM    3  C2  UNL     1       6.840   6.649  21.061  1.00  0.00     0.238 C 
HETATM    4  N1  UNL     1       6.089   6.842  22.275  1.00  0.00    -0.297 N 
HETATM    5  C9  UNL     1       4.684   6.655  22.155  1.00  0.00     0.155 C 
HETATM    6  C10 UNL     1       4.354   5.460  21.315  1.00  0.00     0.147 C 
HETATM    7  N2  UNL     1       5.483   4.585  21.061  1.00  0.00    -0.344 N 
ENDROOT
BRANCH   7   8
HETATM    8  C11 UNL     1       5.376   3.124  21.158  1.00  0.00     0.182 C 
BRANCH   8   9
HETATM    9  C12 UNL     1       6.182   2.471  20.108  1.00  0.00     0.028 A 
HETATM   10  C13 UNL     1       5.776   2.270  18.805  1.00  0.00     0.041 A 
HETATM   11  C14 UNL     1       6.817   1.639  18.181  1.00  0.00     0.008 A 
HETATM   12  C15 UNL     1       7.012   1.184  16.898  1.00  0.00     0.101 A 
HETATM   13  C18 UNL     1       7.820   1.476  19.111  1.00  0.00     0.045 A 
HETATM   14  N3  UNL     1       8.168   0.592  16.577  1.00  0.00    -0.374 N 
HETATM   15  C16 UNL     1       9.148   0.425  17.462  1.00  0.00     0.090 A 
ATOM     16  H3  UNL     1       8.302   0.256  15.623  1.00  0.00     0.164 HD
HETATM   17  C17 UNL     1       9.002   0.866  18.766  1.00  0.00     0.047 A 
HETATM   18  N4  UNL     1       7.420   1.990  20.290  1.00  0.00    -0.357 N 
ATOM     19  H4  UNL     1       7.957   2.009  21.157  1.00  0.00     0.166 HD
ENDBRANCH   8   9
ENDBRANCH   7   8
BRANCH   4  20
HETATM   20  S1  UNL     1       6.563   8.191  23.179  1.00  0.00     0.251 S 
HETATM   21  O2  UNL     1       6.414   9.421  22.327  1.00  0.00    -0.201 OA
HETATM   22  O3  UNL     1       5.595   8.356  24.343  1.00  0.00    -0.201 OA
BRANCH  20  23
HETATM   23  C3  UNL     1       8.177   8.047  23.831  1.00  0.00     0.133 C 
HETATM   24  C4  UNL     1       8.296   7.779  25.120  1.00  0.00     0.032 C 
BRANCH  24  25
HETATM   25  C5  UNL     1       9.642   7.645  25.734  1.00  0.00     0.007 A 
HETATM   26  C6  UNL     1       9.961   6.998  26.898  1.00  0.00     0.021 A 
HETATM   27  C7  UNL     1      11.252   7.004  27.264  1.00  0.00     0.033 A 
HETATM   28  C8  UNL     1      12.136   7.653  26.444  1.00  0.00     0.075 A 
HETATM   29 CL1  UNL     1      13.889   7.824  26.672  1.00  0.00    -0.076 Cl
HETATM   30  S2  UNL     1      11.144   8.237  25.190  1.00  0.00    -0.078 SA
ENDBRANCH  24  25
ENDBRANCH  20  23
ENDBRANCH   4  20
TORSDOF 5
ENDMDL
