MODEL 1
REMARK VINA RESULT: -9.578829273      0.000      0.000
REMARK  5 active torsions:
REMARK  status: ('A' for Active; 'I' for Inactive)
REMARK    1  A    between atoms: N1_4  and  S1_5 
REMARK    2  A    between atoms: S1_5  and  C3_8 
REMARK    3  A    between atoms: C4_9  and  C5_10 
REMARK    4  A    between atoms: N2_18  and  C11_19 
REMARK    5  A    between atoms: C11_19  and  C12_20 
ROOT
HETATM    1  O1  UNL     1       5.264   9.537  21.096  1.00  0.00    -0.272 OA
HETATM    2  C1  UNL     1       6.007   8.540  21.092  1.00  0.00     0.238 C 
HETATM    3  C2  UNL     1       5.658   7.307  20.349  1.00  0.00     0.238 C 
HETATM    4  N1  UNL     1       6.210   6.209  21.101  1.00  0.00    -0.297 N 
HETATM    5  C9  UNL     1       7.630   6.174  21.169  1.00  0.00     0.155 C 
HETATM    6  C10 UNL     1       8.208   7.536  21.399  1.00  0.00     0.147 C 
HETATM    7  N2  UNL     1       7.234   8.532  21.804  1.00  0.00    -0.344 N 
ENDROOT
BRANCH   7   8
HETATM    8  C11 UNL     1       7.496   9.485  22.889  1.00  0.00     0.182 C 
BRANCH   8   9
HETATM    9  C12 UNL     1       8.475   8.930  23.845  1.00  0.00     0.028 A 
HETATM   10  C13 UNL     1       9.836   9.144  23.803  1.00  0.00     0.041 A 
HETATM   11  C14 UNL     1      10.358   8.453  24.862  1.00  0.00     0.008 A 
HETATM   12  C15 UNL     1      11.636   8.283  25.340  1.00  0.00     0.101 A 
HETATM   13  C18 UNL     1       9.309   7.845  25.516  1.00  0.00     0.045 A 
HETATM   14  N3  UNL     1      11.838   7.529  26.427  1.00  0.00    -0.374 N 
HETATM   15  C16 UNL     1      10.838   6.933  27.071  1.00  0.00     0.090 A 
ATOM     16  H3  UNL     1      12.790   7.408  26.773  1.00  0.00     0.164 HD
HETATM   17  C17 UNL     1       9.534   7.074  26.632  1.00  0.00     0.047 A 
HETATM   18  N4  UNL     1       8.158   8.143  24.884  1.00  0.00    -0.357 N 
ATOM     19  H4  UNL     1       7.223   7.830  25.145  1.00  0.00     0.166 HD
ENDBRANCH   8   9
ENDBRANCH   7   8
BRANCH   4  20
HETATM   20  S1  UNL     1       5.464   4.720  20.809  1.00  0.00     0.251 S 
HETATM   21  O2  UNL     1       4.670   4.330  22.025  1.00  0.00    -0.201 OA
HETATM   22  O3  UNL     1       4.458   4.899  19.679  1.00  0.00    -0.201 OA
BRANCH  20  23
HETATM   23  C3  UNL     1       6.590   3.469  20.341  1.00  0.00     0.133 C 
HETATM   24  C4  UNL     1       6.582   3.077  19.079  1.00  0.00     0.032 C 
BRANCH  24  25
HETATM   25  C5  UNL     1       7.515   2.017  18.620  1.00  0.00     0.007 A 
HETATM   26  C6  UNL     1       8.693   1.638  19.206  1.00  0.00     0.021 A 
HETATM   27  C7  UNL     1       9.378   0.649  18.614  1.00  0.00     0.033 A 
HETATM   28  C8  UNL     1       8.842   0.104  17.479  1.00  0.00     0.075 A 
HETATM   29 CL1  UNL     1       9.520  -1.206  16.490  1.00  0.00    -0.076 Cl
HETATM   30  S2  UNL     1       7.402   0.986  17.269  1.00  0.00    -0.078 SA
ENDBRANCH  24  25
ENDBRANCH  20  23
ENDBRANCH   4  20
TORSDOF 5
ENDMDL
