MODEL 2
REMARK VINA RESULT: -9.463162866      0.615      1.086
REMARK  5 active torsions:
REMARK  status: ('A' for Active; 'I' for Inactive)
REMARK    1  A    between atoms: N1_4  and  S1_5 
REMARK    2  A    between atoms: S1_5  and  C3_8 
REMARK    3  A    between atoms: C4_9  and  C5_10 
REMARK    4  A    between atoms: N2_18  and  C11_19 
REMARK    5  A    between atoms: C11_19  and  C12_20 
ROOT
HETATM    1  O1  UNL     1       5.229   9.548  20.924  1.00  0.00    -0.272 OA
HETATM    2  C1  UNL     1       5.976   8.554  20.947  1.00  0.00     0.238 C 
HETATM    3  C2  UNL     1       5.621   7.290  20.261  1.00  0.00     0.238 C 
HETATM    4  N1  UNL     1       6.192   6.227  21.048  1.00  0.00    -0.297 N 
HETATM    5  C9  UNL     1       7.614   6.202  21.092  1.00  0.00     0.155 C 
HETATM    6  C10 UNL     1       8.188   7.574  21.257  1.00  0.00     0.147 C 
HETATM    7  N2  UNL     1       7.216   8.582  21.637  1.00  0.00    -0.344 N 
ENDROOT
BRANCH   7   8
HETATM    8  C11 UNL     1       7.491   9.579  22.679  1.00  0.00     0.182 C 
BRANCH   8   9
HETATM    9  C12 UNL     1       8.431   9.041  23.681  1.00  0.00     0.028 A 
HETATM   10  C13 UNL     1       8.079   8.257  24.761  1.00  0.00     0.041 A 
HETATM   11  C14 UNL     1       9.245   7.983  25.422  1.00  0.00     0.008 A 
HETATM   12  C15 UNL     1       9.540   7.261  26.553  1.00  0.00     0.101 A 
HETATM   13  C18 UNL     1      10.266   8.600  24.732  1.00  0.00     0.045 A 
HETATM   14  N3  UNL     1      10.810   7.170  26.965  1.00  0.00    -0.374 N 
HETATM   15  C16 UNL     1      11.810   7.759  26.313  1.00  0.00     0.090 A 
ATOM     16  H3  UNL     1      11.018   6.633  27.806  1.00  0.00     0.164 HD
HETATM   17  C17 UNL     1      11.565   8.497  25.168  1.00  0.00     0.047 A 
HETATM   18  N4  UNL     1       9.756   9.246  23.667  1.00  0.00    -0.357 N 
ATOM     19  H4  UNL     1      10.279   9.789  22.979  1.00  0.00     0.166 HD
ENDBRANCH   8   9
ENDBRANCH   7   8
BRANCH   4  20
HETATM   20  S1  UNL     1       5.449   4.724  20.829  1.00  0.00     0.251 S 
HETATM   21  O2  UNL     1       4.707   4.364  22.086  1.00  0.00    -0.201 OA
HETATM   22  O3  UNL     1       4.399   4.860  19.735  1.00  0.00    -0.201 OA
BRANCH  20  23
HETATM   23  C3  UNL     1       6.568   3.468  20.355  1.00  0.00     0.133 C 
HETATM   24  C4  UNL     1       6.573   3.099  19.086  1.00  0.00     0.032 C 
BRANCH  24  25
HETATM   25  C5  UNL     1       7.501   2.036  18.622  1.00  0.00     0.007 A 
HETATM   26  C6  UNL     1       8.698   1.677  19.182  1.00  0.00     0.021 A 
HETATM   27  C7  UNL     1       9.373   0.680  18.590  1.00  0.00     0.033 A 
HETATM   28  C8  UNL     1       8.810   0.111  17.480  1.00  0.00     0.075 A 
HETATM   29 CL1  UNL     1       9.470  -1.214  16.497  1.00  0.00    -0.076 Cl
HETATM   30  S2  UNL     1       7.358   0.979  17.294  1.00  0.00    -0.078 SA
ENDBRANCH  24  25
ENDBRANCH  20  23
ENDBRANCH   4  20
TORSDOF 5
ENDMDL
