MODEL 4
REMARK VINA RESULT: -8.583323003      5.022      8.629
REMARK  5 active torsions:
REMARK  status: ('A' for Active; 'I' for Inactive)
REMARK    1  A    between atoms: N1_4  and  S1_5 
REMARK    2  A    between atoms: S1_5  and  C3_8 
REMARK    3  A    between atoms: C4_9  and  C5_10 
REMARK    4  A    between atoms: N2_18  and  C11_19 
REMARK    5  A    between atoms: C11_19  and  C12_20 
ROOT
HETATM    1  O1  UNL     1       5.373   7.012  18.965  1.00  0.00    -0.272 OA
HETATM    2  C1  UNL     1       5.925   7.756  19.794  1.00  0.00     0.238 C 
HETATM    3  C2  UNL     1       6.374   7.258  21.116  1.00  0.00     0.238 C 
HETATM    4  N1  UNL     1       6.230   8.358  22.034  1.00  0.00    -0.297 N 
HETATM    5  C9  UNL     1       7.080   9.472  21.784  1.00  0.00     0.155 C 
HETATM    6  C10 UNL     1       7.161   9.790  20.324  1.00  0.00     0.147 C 
HETATM    7  N2  UNL     1       6.154   9.128  19.516  1.00  0.00    -0.344 N 
ENDROOT
BRANCH   7   8
HETATM    8  C11 UNL     1       5.408   9.831  18.465  1.00  0.00     0.182 C 
BRANCH   8   9
HETATM    9  C12 UNL     1       6.162   9.823  17.196  1.00  0.00     0.028 A 
HETATM   10  C13 UNL     1       6.163  10.840  16.265  1.00  0.00     0.041 A 
HETATM   11  C14 UNL     1       6.985  10.422  15.253  1.00  0.00     0.008 A 
HETATM   12  C15 UNL     1       7.381  10.990  14.066  1.00  0.00     0.101 A 
HETATM   13  C18 UNL     1       7.460   9.175  15.595  1.00  0.00     0.045 A 
HETATM   14  N3  UNL     1       8.216  10.321  13.262  1.00  0.00    -0.374 N 
HETATM   15  C16 UNL     1       8.685   9.115  13.574  1.00  0.00     0.090 A 
ATOM     16  H3  UNL     1       8.503  10.750  12.382  1.00  0.00     0.164 HD
HETATM   17  C17 UNL     1       8.318   8.502  14.759  1.00  0.00     0.047 A 
HETATM   18  N4  UNL     1       6.949   8.816  16.788  1.00  0.00    -0.357 N 
ATOM     19  H4  UNL     1       7.126   7.944  17.286  1.00  0.00     0.166 HD
ENDBRANCH   8   9
ENDBRANCH   7   8
BRANCH   4  20
HETATM   20  S1  UNL     1       6.102   7.898  23.656  1.00  0.00     0.251 S 
HETATM   21  O2  UNL     1       5.488   9.030  24.432  1.00  0.00    -0.201 OA
HETATM   22  O3  UNL     1       5.125   6.734  23.751  1.00  0.00    -0.201 OA
BRANCH  20  23
HETATM   23  C3  UNL     1       7.623   7.388  24.348  1.00  0.00     0.133 C 
HETATM   24  C4  UNL     1       8.306   8.277  25.048  1.00  0.00     0.032 C 
BRANCH  24  25
HETATM   25  C5  UNL     1       9.607   7.904  25.661  1.00  0.00     0.007 A 
HETATM   26  C6  UNL     1       9.811   7.087  26.741  1.00  0.00     0.021 A 
HETATM   27  C7  UNL     1      11.081   6.889  27.124  1.00  0.00     0.033 A 
HETATM   28  C8  UNL     1      12.061   7.519  26.405  1.00  0.00     0.075 A 
HETATM   29 CL1  UNL     1      13.814   7.443  26.678  1.00  0.00    -0.076 Cl
HETATM   30  S2  UNL     1      11.185   8.368  25.218  1.00  0.00    -0.078 SA
ENDBRANCH  24  25
ENDBRANCH  20  23
ENDBRANCH   4  20
TORSDOF 5
ENDMDL
