MODEL 1
REMARK VINA RESULT: -9.917455936      0.000      0.000
REMARK  7 active torsions:
REMARK  status: ('A' for Active; 'I' for Inactive)
REMARK    1  A    between atoms: N1_4  and  S1_5 
REMARK    2  A    between atoms: S1_5  and  C3_8 
REMARK    3  A    between atoms: N2_20  and  C13_21 
REMARK    4  A    between atoms: C13_21  and  C14_22 
REMARK    5  A    between atoms: N4_31  and  C21_32 
REMARK    6  A    between atoms: C21_32  and  C22_33 
REMARK    7  A    between atoms: C22_33  and  O4_34 
ROOT
HETATM    1  O1  UNL     1       3.029   8.606  22.514  1.00  0.00    -0.267 OA
HETATM    2  C1  UNL     1       3.877   7.709  22.247  1.00  0.00     0.260 C 
HETATM    3  C2  UNL     1       3.402   6.487  21.596  1.00  0.00     0.182 C 
HETATM    4  N1  UNL     1       4.439   5.609  21.261  1.00  0.00    -0.254 N 
HETATM    5  C11 UNL     1       5.728   6.133  21.040  1.00  0.00     0.102 C 
HETATM    6  C12 UNL     1       6.241   7.049  22.098  1.00  0.00     0.172 C 
HETATM    7  N2  UNL     1       5.233   7.965  22.602  1.00  0.00    -0.337 N 
ENDROOT
BRANCH   7   8
HETATM    8  C13 UNL     1       5.634   9.067  23.421  1.00  0.00     0.183 C 
BRANCH   8   9
HETATM    9  C14 UNL     1       7.008   8.912  23.957  1.00  0.00     0.031 A 
HETATM   10  C15 UNL     1       7.291   8.153  25.089  1.00  0.00     0.042 A 
HETATM   11  C16 UNL     1       8.643   8.196  25.341  1.00  0.00     0.008 A 
HETATM   12  C17 UNL     1       9.494   7.668  26.279  1.00  0.00     0.101 A 
HETATM   13  C20 UNL     1       9.192   8.988  24.356  1.00  0.00     0.047 A 
HETATM   14  N3  UNL     1      10.820   7.898  26.266  1.00  0.00    -0.374 N 
HETATM   15  C18 UNL     1      11.369   8.670  25.309  1.00  0.00     0.090 A 
ATOM     16  H3  UNL     1      11.413   7.484  26.986  1.00  0.00     0.164 HD
HETATM   17  C19 UNL     1      10.551   9.214  24.355  1.00  0.00     0.047 A 
HETATM   18  N4  UNL     1       8.182   9.395  23.550  1.00  0.00    -0.346 N 
BRANCH  18  19
HETATM   19  C21 UNL     1       8.354  10.240  22.404  1.00  0.00     0.155 C 
BRANCH  19  20
HETATM   20  C22 UNL     1       8.562   9.434  21.139  1.00  0.00     0.184 C 
BRANCH  20  21
HETATM   21  O4  UNL     1       9.892   9.168  20.906  1.00  0.00    -0.399 OA
ATOM     22  H4  UNL     1      10.021   8.646  20.123  1.00  0.00     0.209 HD
ENDBRANCH  20  21
ENDBRANCH  19  20
ENDBRANCH  18  19
ENDBRANCH   8   9
ENDBRANCH   7   8
BRANCH   4  23
HETATM   23  S1  UNL     1       4.308   4.004  21.719  1.00  0.00     0.274 S 
HETATM   24  O2  UNL     1       4.522   3.832  23.174  1.00  0.00    -0.199 OA
HETATM   25  O3  UNL     1       2.948   3.477  21.355  1.00  0.00    -0.199 OA
BRANCH  23  26
HETATM   26  C3  UNL     1       5.476   3.051  20.788  1.00  0.00     0.122 A 
HETATM   27  C4  UNL     1       5.276   2.441  19.579  1.00  0.00     0.045 A 
HETATM   28  C5  UNL     1       6.327   1.761  19.055  1.00  0.00    -0.017 A 
HETATM   29  C6  UNL     1       6.352   1.059  17.828  1.00  0.00     0.014 A 
HETATM   30  C10 UNL     1       7.483   1.747  19.780  1.00  0.00     0.018 A 
HETATM   31  C7  UNL     1       7.467   0.416  17.412  1.00  0.00     0.024 A 
HETATM   32  C8  UNL     1       8.646   0.390  18.130  1.00  0.00     0.035 A 
HETATM   33 CL1  UNL     1      10.082  -0.442  17.585  1.00  0.00    -0.084 Cl
HETATM   34  C9  UNL     1       8.634   1.072  19.330  1.00  0.00     0.043 A 
HETATM   35  S2  UNL     1       7.086   2.672  21.159  1.00  0.00    -0.076 SA
ENDBRANCH  23  26
ENDBRANCH   4  23
TORSDOF 7
ENDMDL
