MODEL 2
REMARK VINA RESULT: -9.743357751      0.689      1.086
REMARK  7 active torsions:
REMARK  status: ('A' for Active; 'I' for Inactive)
REMARK    1  A    between atoms: N1_4  and  S1_5 
REMARK    2  A    between atoms: S1_5  and  C3_8 
REMARK    3  A    between atoms: N2_20  and  C13_21 
REMARK    4  A    between atoms: C13_21  and  C14_22 
REMARK    5  A    between atoms: N4_31  and  C21_32 
REMARK    6  A    between atoms: C21_32  and  C22_33 
REMARK    7  A    between atoms: C22_33  and  O4_34 
ROOT
HETATM    1  O1  UNL     1       2.916   8.769  22.541  1.00  0.00    -0.267 OA
HETATM    2  C1  UNL     1       3.743   7.857  22.260  1.00  0.00     0.260 C 
HETATM    3  C2  UNL     1       3.231   6.631  21.646  1.00  0.00     0.182 C 
HETATM    4  N1  UNL     1       4.244   5.734  21.290  1.00  0.00    -0.254 N 
HETATM    5  C11 UNL     1       5.532   6.238  21.018  1.00  0.00     0.102 C 
HETATM    6  C12 UNL     1       6.092   7.163  22.043  1.00  0.00     0.172 C 
HETATM    7  N2  UNL     1       5.114   8.100  22.566  1.00  0.00    -0.337 N 
ENDROOT
BRANCH   7   8
HETATM    8  C13 UNL     1       5.556   9.209  23.352  1.00  0.00     0.183 C 
BRANCH   8   9
HETATM    9  C14 UNL     1       6.923   9.018  23.895  1.00  0.00     0.031 A 
HETATM   10  C15 UNL     1       7.176   8.279  25.048  1.00  0.00     0.042 A 
HETATM   11  C16 UNL     1       8.528   8.279  25.302  1.00  0.00     0.008 A 
HETATM   12  C17 UNL     1       9.357   7.745  26.256  1.00  0.00     0.101 A 
HETATM   13  C20 UNL     1       9.107   9.022  24.297  1.00  0.00     0.047 A 
HETATM   14  N3  UNL     1      10.691   7.924  26.240  1.00  0.00    -0.374 N 
HETATM   15  C18 UNL     1      11.269   8.648  25.263  1.00  0.00     0.090 A 
ATOM     16  H3  UNL     1      11.267   7.508  26.971  1.00  0.00     0.164 HD
HETATM   17  C19 UNL     1      10.474   9.197  24.292  1.00  0.00     0.047 A 
HETATM   18  N4  UNL     1       8.114   9.445  23.478  1.00  0.00    -0.346 N 
BRANCH  18  19
HETATM   19  C21 UNL     1       8.319  10.251  22.310  1.00  0.00     0.155 C 
BRANCH  19  20
HETATM   20  C22 UNL     1       8.510   9.403  21.070  1.00  0.00     0.184 C 
BRANCH  20  21
HETATM   21  O4  UNL     1       9.838   9.153  20.811  1.00  0.00    -0.399 OA
ATOM     22  H4  UNL     1      10.160   9.656  20.073  1.00  0.00     0.209 HD
ENDBRANCH  20  21
ENDBRANCH  19  20
ENDBRANCH  18  19
ENDBRANCH   8   9
ENDBRANCH   7   8
BRANCH   4  23
HETATM   23  S1  UNL     1       4.108   4.139  21.779  1.00  0.00     0.274 S 
HETATM   24  O2  UNL     1       4.437   3.977  23.214  1.00  0.00    -0.199 OA
HETATM   25  O3  UNL     1       2.709   3.646  21.535  1.00  0.00    -0.199 OA
BRANCH  23  26
HETATM   26  C3  UNL     1       5.170   3.143  20.768  1.00  0.00     0.122 A 
HETATM   27  C4  UNL     1       6.505   2.903  20.949  1.00  0.00     0.045 A 
HETATM   28  C5  UNL     1       7.113   2.101  20.039  1.00  0.00    -0.017 A 
HETATM   29  C6  UNL     1       8.473   1.718  20.024  1.00  0.00     0.014 A 
HETATM   30  C10 UNL     1       6.338   1.608  19.029  1.00  0.00     0.018 A 
HETATM   31  C7  UNL     1       8.963   0.909  19.057  1.00  0.00     0.024 A 
HETATM   32  C8  UNL     1       8.196   0.399  18.028  1.00  0.00     0.035 A 
HETATM   33 CL1  UNL     1       8.836  -0.646  16.783  1.00  0.00    -0.084 Cl
HETATM   34  C9  UNL     1       6.865   0.766  18.031  1.00  0.00     0.043 A 
HETATM   35  S2  UNL     1       4.798   2.264  19.367  1.00  0.00    -0.076 SA
ENDBRANCH  23  26
ENDBRANCH   4  23
TORSDOF 7
ENDMDL
