MODEL 3
REMARK VINA RESULT: -9.653441936      1.375      1.930
REMARK  7 active torsions:
REMARK  status: ('A' for Active; 'I' for Inactive)
REMARK    1  A    between atoms: N1_4  and  S1_5 
REMARK    2  A    between atoms: S1_5  and  C3_8 
REMARK    3  A    between atoms: N2_20  and  C13_21 
REMARK    4  A    between atoms: C13_21  and  C14_22 
REMARK    5  A    between atoms: N4_31  and  C21_32 
REMARK    6  A    between atoms: C21_32  and  C22_33 
REMARK    7  A    between atoms: C22_33  and  O4_34 
ROOT
HETATM    1  O1  UNL     1       3.827   9.366  21.738  1.00  0.00    -0.267 OA
HETATM    2  C1  UNL     1       4.500   8.356  21.389  1.00  0.00     0.260 C 
HETATM    3  C2  UNL     1       3.773   7.131  21.051  1.00  0.00     0.182 C 
HETATM    4  N1  UNL     1       4.609   6.110  20.588  1.00  0.00    -0.254 N 
HETATM    5  C11 UNL     1       5.833   6.458  19.981  1.00  0.00     0.102 C 
HETATM    6  C12 UNL     1       6.679   7.420  20.741  1.00  0.00     0.172 C 
HETATM    7  N2  UNL     1       5.917   8.494  21.354  1.00  0.00    -0.337 N 
ENDROOT
BRANCH   7   8
HETATM    8  C13 UNL     1       6.608   9.626  21.889  1.00  0.00     0.183 C 
BRANCH   8   9
HETATM    9  C14 UNL     1       7.564   9.261  22.961  1.00  0.00     0.031 A 
HETATM   10  C15 UNL     1       8.943   9.251  22.766  1.00  0.00     0.042 A 
HETATM   11  C16 UNL     1       9.566   8.874  23.933  1.00  0.00     0.008 A 
HETATM   12  C17 UNL     1      10.860   8.687  24.350  1.00  0.00     0.101 A 
HETATM   13  C20 UNL     1       8.562   8.651  24.850  1.00  0.00     0.047 A 
HETATM   14  N3  UNL     1      11.170   8.300  25.601  1.00  0.00    -0.374 N 
HETATM   15  C18 UNL     1      10.198   8.079  26.506  1.00  0.00     0.090 A 
ATOM     16  H3  UNL     1      12.147   8.173  25.865  1.00  0.00     0.164 HD
HETATM   17  C19 UNL     1       8.894   8.256  26.127  1.00  0.00     0.047 A 
HETATM   18  N4  UNL     1       7.382   8.894  24.229  1.00  0.00    -0.346 N 
BRANCH  18  19
HETATM   19  C21 UNL     1       6.100   8.770  24.857  1.00  0.00     0.155 C 
BRANCH  19  20
HETATM   20  C22 UNL     1       5.451   7.437  24.551  1.00  0.00     0.184 C 
BRANCH  20  21
HETATM   21  O4  UNL     1       6.358   6.403  24.564  1.00  0.00    -0.399 OA
ATOM     22  H4  UNL     1       6.063   5.660  24.050  1.00  0.00     0.209 HD
ENDBRANCH  20  21
ENDBRANCH  19  20
ENDBRANCH  18  19
ENDBRANCH   8   9
ENDBRANCH   7   8
BRANCH   4  23
HETATM   23  S1  UNL     1       4.475   4.590  21.277  1.00  0.00     0.274 S 
HETATM   24  O2  UNL     1       4.690   4.634  22.741  1.00  0.00    -0.199 OA
HETATM   25  O3  UNL     1       3.113   4.019  20.995  1.00  0.00    -0.199 OA
BRANCH  23  26
HETATM   26  C3  UNL     1       5.639   3.507  20.496  1.00  0.00     0.122 A 
HETATM   27  C4  UNL     1       5.443   2.743  19.377  1.00  0.00     0.045 A 
HETATM   28  C5  UNL     1       6.490   1.986  18.961  1.00  0.00    -0.017 A 
HETATM   29  C6  UNL     1       6.518   1.126  17.840  1.00  0.00     0.014 A 
HETATM   30  C10 UNL     1       7.639   2.057  19.694  1.00  0.00     0.018 A 
HETATM   31  C7  UNL     1       7.628   0.420  17.526  1.00  0.00     0.024 A 
HETATM   32  C8  UNL     1       8.800   0.478  18.254  1.00  0.00     0.035 A 
HETATM   33 CL1  UNL     1      10.230  -0.437  17.842  1.00  0.00    -0.084 Cl
HETATM   34  C9  UNL     1       8.785   1.314  19.351  1.00  0.00     0.043 A 
HETATM   35  S2  UNL     1       7.241   3.163  20.932  1.00  0.00    -0.076 SA
ENDBRANCH  23  26
ENDBRANCH   4  23
TORSDOF 7
ENDMDL
