MODEL 3
REMARK VINA RESULT: -6.974636402      3.193      4.956
REMARK  8 active torsions:
REMARK  status: ('A' for Active; 'I' for Inactive)
REMARK    1  A    between atoms: C1_2  and  C2_4 
REMARK    2  A    between atoms: C2_4  and  C3_5 
REMARK    3  A    between atoms: C2_4  and  N1_12 
REMARK    4  A    between atoms: C3_5  and  C4_6 
REMARK    5  A    between atoms: N1_12  and  C10_13 
REMARK       I    between atoms: N1_12  and  C18_24 
REMARK    6  A    between atoms: C10_13  and  C11_14 
REMARK    7  A    between atoms: C15_18  and  C16_19 
REMARK    8  A    between atoms: C18_24  and  C19_26 
ROOT
HETATM    1  N1  UNL     1       8.667  34.916  79.581  1.00  0.00    -0.308 N 
HETATM    2  C18 UNL     1       9.918  34.961  78.899  1.00  0.00     0.260 C 
HETATM    3  O3  UNL     1      10.549  36.039  78.848  1.00  0.00    -0.267 OA
ENDROOT
BRANCH   1   4
HETATM    4  C2  UNL     1       8.165  36.201  80.122  1.00  0.00     0.197 C 
BRANCH   4   5
HETATM    5  C1  UNL     1       7.998  36.220  81.547  1.00  0.00     0.197 C 
HETATM    6  O1  UNL     1       8.969  36.228  82.392  1.00  0.00    -0.646 OA
HETATM    7  O2  UNL     1       6.725  36.232  82.081  1.00  0.00    -0.646 OA
ENDBRANCH   4   5
BRANCH   4   8
HETATM    8  C3  UNL     1       6.859  36.418  79.360  1.00  0.00     0.075 C 
BRANCH   8   9
HETATM    9  C4  UNL     1       7.035  36.869  77.987  1.00  0.00    -0.056 A 
HETATM   10  C5  UNL     1       8.031  37.701  77.527  1.00  0.00     0.007 A 
HETATM   11  C6  UNL     1       8.151  37.987  76.184  1.00  0.00     0.001 A 
HETATM   12  C7  UNL     1       7.261  37.442  75.253  1.00  0.00     0.000 A 
HETATM   13  C8  UNL     1       6.268  36.611  75.699  1.00  0.00     0.001 A 
HETATM   14  C9  UNL     1       6.154  36.331  77.023  1.00  0.00     0.007 A 
ENDBRANCH   8   9
ENDBRANCH   4   8
ENDBRANCH   1   4
BRANCH   1  15
HETATM   15  C10 UNL     1       7.943  33.737  79.885  1.00  0.00     0.106 C 
BRANCH  15  16
HETATM   16  C11 UNL     1       6.759  33.318  79.199  1.00  0.00    -0.020 A 
HETATM   17  C12 UNL     1       5.491  33.281  79.722  1.00  0.00     0.013 A 
HETATM   18  C13 UNL     1       4.432  32.883  78.926  1.00  0.00     0.002 A 
HETATM   19  C14 UNL     1       4.632  32.522  77.606  1.00  0.00     0.016 A 
HETATM   20  C15 UNL     1       5.891  32.548  77.057  1.00  0.00     0.048 A 
HETATM   21  C17 UNL     1       6.931  32.942  77.847  1.00  0.00     0.028 A 
BRANCH  20  22
HETATM   22  C16 UNL     1       6.174  32.176  75.634  1.00  0.00     0.417 C 
HETATM   23  F1  UNL     1       6.446  33.368  74.963  1.00  0.00    -0.166 F 
HETATM   24  F2  UNL     1       5.006  31.633  75.074  1.00  0.00    -0.166 F 
HETATM   25  F3  UNL     1       7.209  31.297  75.616  1.00  0.00    -0.166 F 
ENDBRANCH  20  22
ENDBRANCH  15  16
ENDBRANCH   1  15
BRANCH   2  26
HETATM   26  C19 UNL     1      10.541  33.817  78.236  1.00  0.00     0.054 A 
HETATM   27  C20 UNL     1      11.417  33.050  78.976  1.00  0.00     0.020 A 
HETATM   28  C21 UNL     1      12.044  31.958  78.405  1.00  0.00     0.025 A 
HETATM   29  C22 UNL     1      11.802  31.608  77.065  1.00  0.00     0.035 A 
HETATM   30 CL1  UNL     1      12.600  30.243  76.307  1.00  0.00    -0.084 Cl
HETATM   31  C23 UNL     1      10.911  32.383  76.312  1.00  0.00     0.048 A 
HETATM   32  C24 UNL     1      10.299  33.473  76.917  1.00  0.00     0.051 A 
HETATM   33 CL2  UNL     1       9.223  34.458  75.971  1.00  0.00    -0.083 Cl
ENDBRANCH   2  26
TORSDOF 8
ENDMDL
