MODEL 1
REMARK VINA RESULT: -7.188901852      0.000      0.000
REMARK  8 active torsions:
REMARK  status: ('A' for Active; 'I' for Inactive)
REMARK    1  A    between atoms: C1_2  and  C2_4 
REMARK    2  A    between atoms: C2_4  and  C3_5 
REMARK    3  A    between atoms: C2_4  and  N1_12 
REMARK    4  A    between atoms: C3_5  and  C4_6 
REMARK    5  A    between atoms: N1_12  and  C10_13 
REMARK       I    between atoms: N1_12  and  C18_24 
REMARK    6  A    between atoms: C10_13  and  C11_14 
REMARK    7  A    between atoms: C15_18  and  C16_19 
REMARK    8  A    between atoms: C18_24  and  C19_26 
ROOT
HETATM    1  N1  UNL     1       7.312  35.765  76.673  1.00  0.00    -0.308 N 
HETATM    2  C18 UNL     1       6.652  34.603  76.176  1.00  0.00     0.260 C 
HETATM    3  O3  UNL     1       5.476  34.697  75.761  1.00  0.00    -0.267 OA
ENDROOT
BRANCH   1   4
HETATM    4  C2  UNL     1       6.506  37.007  76.730  1.00  0.00     0.197 C 
BRANCH   4   5
HETATM    5  C1  UNL     1       6.921  38.027  75.809  1.00  0.00     0.197 C 
HETATM    6  O1  UNL     1       7.491  37.795  74.679  1.00  0.00    -0.646 OA
HETATM    7  O2  UNL     1       6.709  39.353  76.126  1.00  0.00    -0.646 OA
ENDBRANCH   4   5
BRANCH   4   8
HETATM    8  C3  UNL     1       6.619  37.434  78.192  1.00  0.00     0.075 C 
BRANCH   8   9
HETATM    9  C4  UNL     1       5.340  37.599  78.868  1.00  0.00    -0.056 A 
HETATM   10  C5  UNL     1       4.517  38.700  78.792  1.00  0.00     0.007 A 
HETATM   11  C6  UNL     1       3.283  38.705  79.406  1.00  0.00     0.001 A 
HETATM   12  C7  UNL     1       2.836  37.593  80.126  1.00  0.00     0.000 A 
HETATM   13  C8  UNL     1       3.646  36.491  80.207  1.00  0.00     0.001 A 
HETATM   14  C9  UNL     1       4.860  36.489  79.600  1.00  0.00     0.007 A 
ENDBRANCH   8   9
ENDBRANCH   4   8
ENDBRANCH   1   4
BRANCH   1  15
HETATM   15  C10 UNL     1       8.689  35.850  76.989  1.00  0.00     0.106 C 
BRANCH  15  16
HETATM   16  C11 UNL     1       9.369  34.960  77.882  1.00  0.00    -0.020 A 
HETATM   17  C12 UNL     1       9.192  34.887  79.241  1.00  0.00     0.013 A 
HETATM   18  C13 UNL     1       9.898  33.950  79.975  1.00  0.00     0.002 A 
HETATM   19  C14 UNL     1      10.778  33.080  79.357  1.00  0.00     0.016 A 
HETATM   20  C15 UNL     1      10.975  33.133  77.998  1.00  0.00     0.048 A 
HETATM   21  C17 UNL     1      10.277  34.058  77.281  1.00  0.00     0.028 A 
BRANCH  20  22
HETATM   22  C16 UNL     1      11.909  32.216  77.268  1.00  0.00     0.417 C 
HETATM   23  F1  UNL     1      11.665  32.409  75.909  1.00  0.00    -0.166 F 
HETATM   24  F2  UNL     1      11.564  30.890  77.576  1.00  0.00    -0.166 F 
HETATM   25  F3  UNL     1      13.181  32.515  77.637  1.00  0.00    -0.166 F 
ENDBRANCH  20  22
ENDBRANCH  15  16
ENDBRANCH   1  15
BRANCH   2  26
HETATM   26  C19 UNL     1       7.253  33.273  76.112  1.00  0.00     0.054 A 
HETATM   27  C20 UNL     1       7.897  32.920  74.943  1.00  0.00     0.020 A 
HETATM   28  C21 UNL     1       8.481  31.674  74.816  1.00  0.00     0.025 A 
HETATM   29  C22 UNL     1       8.433  30.745  75.870  1.00  0.00     0.035 A 
HETATM   30 CL1  UNL     1       9.145  29.149  75.729  1.00  0.00    -0.084 Cl
HETATM   31  C23 UNL     1       7.782  31.101  77.057  1.00  0.00     0.048 A 
HETATM   32  C24 UNL     1       7.206  32.361  77.151  1.00  0.00     0.051 A 
HETATM   33 CL2  UNL     1       6.365  32.788  78.611  1.00  0.00    -0.083 Cl
ENDBRANCH   2  26
TORSDOF 8
ENDMDL
