MODEL 2
REMARK VINA RESULT: -7.080813821      3.140      4.837
REMARK  8 active torsions:
REMARK  status: ('A' for Active; 'I' for Inactive)
REMARK    1  A    between atoms: C1_2  and  C2_4 
REMARK    2  A    between atoms: C2_4  and  C3_5 
REMARK    3  A    between atoms: C2_4  and  N1_12 
REMARK    4  A    between atoms: C3_5  and  C4_6 
REMARK    5  A    between atoms: N1_12  and  C10_13 
REMARK       I    between atoms: N1_12  and  C18_24 
REMARK    6  A    between atoms: C10_13  and  C11_14 
REMARK    7  A    between atoms: C15_18  and  C16_19 
REMARK    8  A    between atoms: C18_24  and  C19_26 
ROOT
HETATM    1  N1  UNL     1       8.550  34.920  79.523  1.00  0.00    -0.308 N 
HETATM    2  C18 UNL     1       9.783  34.907  78.807  1.00  0.00     0.260 C 
HETATM    3  O3  UNL     1      10.504  35.928  78.810  1.00  0.00    -0.267 OA
ENDROOT
BRANCH   1   4
HETATM    4  C2  UNL     1       8.175  36.201  80.167  1.00  0.00     0.197 C 
BRANCH   4   5
HETATM    5  C1  UNL     1       8.029  36.128  81.592  1.00  0.00     0.197 C 
HETATM    6  O1  UNL     1       9.007  35.987  82.416  1.00  0.00    -0.646 OA
HETATM    7  O2  UNL     1       6.768  36.212  82.149  1.00  0.00    -0.646 OA
ENDBRANCH   4   5
BRANCH   4   8
HETATM    8  C3  UNL     1       6.886  36.593  79.448  1.00  0.00     0.075 C 
BRANCH   8   9
HETATM    9  C4  UNL     1       7.067  36.956  78.050  1.00  0.00    -0.056 A 
HETATM   10  C5  UNL     1       8.095  37.712  77.533  1.00  0.00     0.007 A 
HETATM   11  C6  UNL     1       8.211  37.914  76.174  1.00  0.00     0.001 A 
HETATM   12  C7  UNL     1       7.287  37.359  75.285  1.00  0.00     0.000 A 
HETATM   13  C8  UNL     1       6.261  36.603  75.787  1.00  0.00     0.001 A 
HETATM   14  C9  UNL     1       6.150  36.405  77.126  1.00  0.00     0.007 A 
ENDBRANCH   8   9
ENDBRANCH   4   8
ENDBRANCH   1   4
BRANCH   1  15
HETATM   15  C10 UNL     1       7.734  33.789  79.767  1.00  0.00     0.106 C 
BRANCH  15  16
HETATM   16  C11 UNL     1       6.666  33.364  78.913  1.00  0.00    -0.020 A 
HETATM   17  C12 UNL     1       5.348  33.236  79.269  1.00  0.00     0.013 A 
HETATM   18  C13 UNL     1       4.416  32.845  78.323  1.00  0.00     0.002 A 
HETATM   19  C14 UNL     1       4.796  32.584  77.018  1.00  0.00     0.016 A 
HETATM   20  C15 UNL     1       6.109  32.703  76.635  1.00  0.00     0.048 A 
HETATM   21  C17 UNL     1       7.022  33.089  77.572  1.00  0.00     0.028 A 
BRANCH  20  22
HETATM   22  C16 UNL     1       6.584  32.441  75.238  1.00  0.00     0.417 C 
HETATM   23  F1  UNL     1       7.479  31.375  75.321  1.00  0.00    -0.166 F 
HETATM   24  F2  UNL     1       7.303  33.563  74.794  1.00  0.00    -0.166 F 
HETATM   25  F3  UNL     1       5.504  32.181  74.458  1.00  0.00    -0.166 F 
ENDBRANCH  20  22
ENDBRANCH  15  16
ENDBRANCH   1  15
BRANCH   2  26
HETATM   26  C19 UNL     1      10.286  33.765  78.047  1.00  0.00     0.054 A 
HETATM   27  C20 UNL     1      10.087  33.770  76.681  1.00  0.00     0.020 A 
HETATM   28  C21 UNL     1      10.532  32.716  75.906  1.00  0.00     0.025 A 
HETATM   29  C22 UNL     1      11.198  31.623  76.489  1.00  0.00     0.035 A 
HETATM   30 CL1  UNL     1      11.754  30.262  75.534  1.00  0.00    -0.084 Cl
HETATM   31  C23 UNL     1      11.403  31.617  77.874  1.00  0.00     0.048 A 
HETATM   32  C24 UNL     1      10.942  32.691  78.623  1.00  0.00     0.051 A 
HETATM   33 CL2  UNL     1      11.164  32.664  80.347  1.00  0.00    -0.083 Cl
ENDBRANCH   2  26
TORSDOF 8
ENDMDL
