MODEL 3
REMARK VINA RESULT: -10.441975004      0.796      1.133
REMARK  8 active torsions:
REMARK  status: ('A' for Active; 'I' for Inactive)
REMARK    1  A    between atoms: C2_2  and  C3_3 
REMARK    2  A    between atoms: C3_3  and  C4_4 
REMARK    3  A    between atoms: C4_4  and  N1_5 
REMARK    4  A    between atoms: N2_8  and  C6_9 
REMARK    5  A    between atoms: C6_9  and  C7_10 
REMARK    6  A    between atoms: C15_22  and  C16_23 
REMARK    7  A    between atoms: C16_23  and  C17_24 
REMARK    8  A    between atoms: C20_27  and  N4_28 
REMARK       I    between atoms: N4_28  and  C21_30 
ROOT
HETATM    1  N1  UNL     1      38.754  42.412  34.140  1.00  0.00    -0.283 N 
HETATM    2  C5  UNL     1      39.348  43.627  34.055  1.00  0.00     0.333 A 
HETATM    3  O1  UNL     1      40.268  43.890  34.915  1.00  0.00    -0.246 OA
HETATM    4  N2  UNL     1      38.977  44.496  33.116  1.00  0.00    -0.260 N 
HETATM    5  C13 UNL     1      37.987  44.117  32.260  1.00  0.00     0.282 A 
HETATM    6  O2  UNL     1      37.576  44.887  31.343  1.00  0.00    -0.265 OA
HETATM    7  C14 UNL     1      37.368  42.880  32.334  1.00  0.00     0.147 A 
HETATM    8  N3  UNL     1      36.400  42.244  31.657  1.00  0.00    -0.338 N 
ATOM      9  H3  UNL     1      35.896  42.639  30.864  1.00  0.00     0.167 HD
HETATM   10  C15 UNL     1      36.182  41.022  32.161  1.00  0.00     0.087 A 
HETATM   11  N5  UNL     1      37.041  40.890  33.185  1.00  0.00    -0.330 N 
ATOM     12  H5  UNL     1      37.122  40.063  33.776  1.00  0.00     0.168 HD
HETATM   13  C25 UNL     1      37.783  42.014  33.316  1.00  0.00     0.145 A 
ENDROOT
BRANCH  10  14
HETATM   14  C16 UNL     1      35.195  40.039  31.676  1.00  0.00     0.115 C 
BRANCH  14  15
HETATM   15  C17 UNL     1      33.986  39.963  32.507  1.00  0.00    -0.051 A 
HETATM   16  C18 UNL     1      32.804  39.572  31.920  1.00  0.00     0.010 A 
HETATM   17  C19 UNL     1      31.641  39.495  32.706  1.00  0.00     0.030 A 
HETATM   18  C20 UNL     1      31.619  39.792  34.037  1.00  0.00     0.034 A 
HETATM   19  C23 UNL     1      32.839  40.188  34.610  1.00  0.00     0.030 A 
HETATM   20  C24 UNL     1      33.985  40.266  33.851  1.00  0.00     0.010 A 
BRANCH  18  21
HETATM   21  N4  UNL     1      30.478  39.742  34.854  1.00  0.00    -0.328 N 
HETATM   22  C21 UNL     1      30.031  40.801  35.659  1.00  0.00     0.218 C 
HETATM   23  C22 UNL     1      28.784  40.560  36.462  1.00  0.00     0.117 C 
HETATM   24  O3  UNL     1      30.609  41.904  35.732  1.00  0.00    -0.274 OA
ATOM     25  H4  UNL     1      29.938  38.877  34.864  1.00  0.00     0.169 HD
ENDBRANCH  18  21
ENDBRANCH  14  15
ENDBRANCH  10  14
BRANCH   1  26
HETATM   26  C4  UNL     1      39.174  41.485  35.166  1.00  0.00     0.135 C 
BRANCH  26  27
HETATM   27  C3  UNL     1      40.238  40.529  34.670  1.00  0.00     0.020 C 
BRANCH  27  28
HETATM   28  C2  UNL     1      40.595  39.615  35.839  1.00  0.00    -0.003 C 
HETATM   29  C1  UNL     1      41.672  38.647  35.469  1.00  0.00     0.005 C 
ENDBRANCH  27  28
ENDBRANCH  26  27
ENDBRANCH   1  26
BRANCH   4  30
HETATM   30  C6  UNL     1      39.583  45.774  32.950  1.00  0.00     0.178 C 
BRANCH  30  31
HETATM   31  C7  UNL     1      39.028  46.895  33.702  1.00  0.00    -0.001 A 
HETATM   32  C8  UNL     1      39.464  47.071  35.033  1.00  0.00     0.012 A 
HETATM   33  C9  UNL     1      38.984  48.099  35.809  1.00  0.00     0.001 A 
HETATM   34  C10 UNL     1      38.061  49.008  35.344  1.00  0.00     0.003 A 
HETATM   35  C11 UNL     1      37.634  48.844  34.051  1.00  0.00     0.043 A 
HETATM   36  C12 UNL     1      38.117  47.794  33.242  1.00  0.00     0.124 A 
HETATM   37  F1  UNL     1      37.660  47.717  31.986  1.00  0.00    -0.205 F 
ENDBRANCH  30  31
ENDBRANCH   4  30
TORSDOF 8
ENDMDL
