MODEL 1
REMARK VINA RESULT: -10.590115409      0.000      0.000
REMARK  8 active torsions:
REMARK  status: ('A' for Active; 'I' for Inactive)
REMARK    1  A    between atoms: C2_2  and  C3_3 
REMARK    2  A    between atoms: C3_3  and  C4_4 
REMARK    3  A    between atoms: C4_4  and  N1_5 
REMARK    4  A    between atoms: N2_8  and  C6_9 
REMARK    5  A    between atoms: C6_9  and  C7_10 
REMARK    6  A    between atoms: C15_22  and  C16_23 
REMARK    7  A    between atoms: C16_23  and  C17_24 
REMARK    8  A    between atoms: C20_27  and  N4_28 
REMARK       I    between atoms: N4_28  and  C21_30 
ROOT
HETATM    1  N1  UNL     1      38.715  42.457  34.023  1.00  0.00    -0.283 N 
HETATM    2  C5  UNL     1      39.298  43.675  33.915  1.00  0.00     0.333 A 
HETATM    3  O1  UNL     1      40.227  43.958  34.759  1.00  0.00    -0.246 OA
HETATM    4  N2  UNL     1      38.906  44.530  32.971  1.00  0.00    -0.260 N 
HETATM    5  C13 UNL     1      37.908  44.132  32.133  1.00  0.00     0.282 A 
HETATM    6  O2  UNL     1      37.478  44.887  31.212  1.00  0.00    -0.265 OA
HETATM    7  C14 UNL     1      37.301  42.890  32.230  1.00  0.00     0.147 A 
HETATM    8  N3  UNL     1      36.329  42.238  31.575  1.00  0.00    -0.338 N 
ATOM      9  H3  UNL     1      35.811  42.619  30.784  1.00  0.00     0.167 HD
HETATM   10  C15 UNL     1      36.129  41.020  32.097  1.00  0.00     0.087 A 
HETATM   11  N5  UNL     1      37.003  40.908  33.110  1.00  0.00    -0.330 N 
ATOM     12  H5  UNL     1      37.100  40.090  33.711  1.00  0.00     0.168 HD
HETATM   13  C25 UNL     1      37.737  42.041  33.217  1.00  0.00     0.145 A 
ENDROOT
BRANCH  10  14
HETATM   14  C16 UNL     1      35.144  40.023  31.638  1.00  0.00     0.115 C 
BRANCH  14  15
HETATM   15  C17 UNL     1      33.947  39.949  32.484  1.00  0.00    -0.051 A 
HETATM   16  C18 UNL     1      32.754  39.569  31.911  1.00  0.00     0.010 A 
HETATM   17  C19 UNL     1      31.601  39.494  32.712  1.00  0.00     0.030 A 
HETATM   18  C20 UNL     1      31.600  39.782  34.046  1.00  0.00     0.034 A 
HETATM   19  C23 UNL     1      32.830  40.166  34.605  1.00  0.00     0.030 A 
HETATM   20  C24 UNL     1      33.965  40.243  33.831  1.00  0.00     0.010 A 
BRANCH  18  21
HETATM   21  N4  UNL     1      30.470  39.733  34.878  1.00  0.00    -0.328 N 
HETATM   22  C21 UNL     1      30.026  40.797  35.679  1.00  0.00     0.218 C 
HETATM   23  C22 UNL     1      28.792  40.556  36.500  1.00  0.00     0.117 C 
HETATM   24  O3  UNL     1      30.599  41.904  35.733  1.00  0.00    -0.274 OA
ATOM     25  H4  UNL     1      29.934  38.865  34.903  1.00  0.00     0.169 HD
ENDBRANCH  18  21
ENDBRANCH  14  15
ENDBRANCH  10  14
BRANCH   1  26
HETATM   26  C4  UNL     1      39.157  41.547  35.054  1.00  0.00     0.135 C 
BRANCH  26  27
HETATM   27  C3  UNL     1      40.147  40.527  34.530  1.00  0.00     0.020 C 
BRANCH  27  28
HETATM   28  C2  UNL     1      40.342  39.489  35.631  1.00  0.00    -0.003 C 
HETATM   29  C1  UNL     1      41.636  38.759  35.474  1.00  0.00     0.005 C 
ENDBRANCH  27  28
ENDBRANCH  26  27
ENDBRANCH   1  26
BRANCH   4  30
HETATM   30  C6  UNL     1      39.499  45.811  32.780  1.00  0.00     0.178 C 
BRANCH  30  31
HETATM   31  C7  UNL     1      38.887  46.952  33.455  1.00  0.00    -0.001 A 
HETATM   32  C8  UNL     1      38.020  47.771  32.701  1.00  0.00     0.012 A 
HETATM   33  C9  UNL     1      37.410  48.867  33.261  1.00  0.00     0.001 A 
HETATM   34  C10 UNL     1      37.604  49.231  34.573  1.00  0.00     0.003 A 
HETATM   35  C11 UNL     1      38.444  48.439  35.313  1.00  0.00     0.043 A 
HETATM   36  C12 UNL     1      39.077  47.310  34.753  1.00  0.00     0.124 A 
HETATM   37  F1  UNL     1      39.869  46.582  35.549  1.00  0.00    -0.205 F 
ENDBRANCH  30  31
ENDBRANCH   4  30
TORSDOF 8
ENDMDL
