MODEL 5
REMARK VINA RESULT: -10.049127113      3.062      8.374
REMARK  8 active torsions:
REMARK  status: ('A' for Active; 'I' for Inactive)
REMARK    1  A    between atoms: C2_2  and  C3_3 
REMARK    2  A    between atoms: C3_3  and  C4_4 
REMARK    3  A    between atoms: C4_4  and  N1_5 
REMARK    4  A    between atoms: N2_8  and  C6_9 
REMARK    5  A    between atoms: C6_9  and  C7_10 
REMARK    6  A    between atoms: C15_22  and  C16_23 
REMARK    7  A    between atoms: C16_23  and  C17_24 
REMARK    8  A    between atoms: C20_27  and  N4_28 
REMARK       I    between atoms: N4_28  and  C21_30 
ROOT
HETATM    1  N1  UNL     1      38.122  42.013  33.942  1.00  0.00    -0.283 N 
HETATM    2  C5  UNL     1      37.411  40.886  33.698  1.00  0.00     0.333 A 
HETATM    3  O1  UNL     1      37.598  39.891  34.490  1.00  0.00    -0.246 OA
HETATM    4  N2  UNL     1      36.562  40.834  32.672  1.00  0.00    -0.260 N 
HETATM    5  C13 UNL     1      36.445  41.944  31.891  1.00  0.00     0.282 A 
HETATM    6  O2  UNL     1      35.662  41.973  30.896  1.00  0.00    -0.265 OA
HETATM    7  C14 UNL     1      37.166  43.104  32.127  1.00  0.00     0.147 A 
HETATM    8  N3  UNL     1      37.261  44.313  31.555  1.00  0.00    -0.338 N 
ATOM      9  H3  UNL     1      36.735  44.605  30.732  1.00  0.00     0.167 HD
HETATM   10  C15 UNL     1      38.138  45.087  32.207  1.00  0.00     0.087 A 
HETATM   11  N5  UNL     1      38.607  44.338  33.219  1.00  0.00    -0.330 N 
ATOM     12  H5  UNL     1      39.296  44.646  33.903  1.00  0.00     0.168 HD
HETATM   13  C25 UNL     1      38.028  43.114  33.196  1.00  0.00     0.145 A 
ENDROOT
BRANCH  10  14
HETATM   14  C16 UNL     1      38.503  46.475  31.866  1.00  0.00     0.115 C 
BRANCH  14  15
HETATM   15  C17 UNL     1      38.415  47.401  33.002  1.00  0.00    -0.051 A 
HETATM   16  C18 UNL     1      37.621  48.519  32.885  1.00  0.00     0.010 A 
HETATM   17  C19 UNL     1      37.529  49.412  33.966  1.00  0.00     0.030 A 
HETATM   18  C20 UNL     1      38.196  49.229  35.143  1.00  0.00     0.034 A 
HETATM   19  C23 UNL     1      38.999  48.080  35.235  1.00  0.00     0.030 A 
HETATM   20  C24 UNL     1      39.096  47.198  34.184  1.00  0.00     0.010 A 
BRANCH  18  21
HETATM   21  N4  UNL     1      38.144  50.103  36.241  1.00  0.00    -0.328 N 
HETATM   22  C21 UNL     1      38.934  51.255  36.378  1.00  0.00     0.218 C 
HETATM   23  C22 UNL     1      38.732  52.068  37.625  1.00  0.00     0.117 C 
HETATM   24  O3  UNL     1      39.772  51.621  35.530  1.00  0.00    -0.274 OA
ATOM     25  H4  UNL     1      37.487  49.885  36.991  1.00  0.00     0.169 HD
ENDBRANCH  18  21
ENDBRANCH  14  15
ENDBRANCH  10  14
BRANCH   1  26
HETATM   26  C4  UNL     1      39.036  42.047  35.061  1.00  0.00     0.135 C 
BRANCH  26  27
HETATM   27  C3  UNL     1      40.484  42.016  34.617  1.00  0.00     0.020 C 
BRANCH  27  28
HETATM   28  C2  UNL     1      41.234  43.031  35.475  1.00  0.00    -0.003 C 
HETATM   29  C1  UNL     1      41.758  44.163  34.651  1.00  0.00     0.005 C 
ENDBRANCH  27  28
ENDBRANCH  26  27
ENDBRANCH   1  26
BRANCH   4  30
HETATM   30  C6  UNL     1      35.759  39.695  32.379  1.00  0.00     0.178 C 
BRANCH  30  31
HETATM   31  C7  UNL     1      34.345  39.748  32.737  1.00  0.00    -0.001 A 
HETATM   32  C8  UNL     1      34.016  40.115  34.059  1.00  0.00     0.012 A 
HETATM   33  C9  UNL     1      32.709  40.182  34.476  1.00  0.00     0.001 A 
HETATM   34  C10 UNL     1      31.652  39.899  33.642  1.00  0.00     0.003 A 
HETATM   35  C11 UNL     1      31.963  39.542  32.354  1.00  0.00     0.043 A 
HETATM   36  C12 UNL     1      33.300  39.469  31.911  1.00  0.00     0.124 A 
HETATM   37  F1  UNL     1      33.514  39.130  30.635  1.00  0.00    -0.205 F 
ENDBRANCH  30  31
ENDBRANCH   4  30
TORSDOF 8
ENDMDL
