MODEL 2
REMARK VINA RESULT: -10.488328402      1.106      1.623
REMARK  8 active torsions:
REMARK  status: ('A' for Active; 'I' for Inactive)
REMARK    1  A    between atoms: C2_2  and  C3_3 
REMARK    2  A    between atoms: C3_3  and  C4_4 
REMARK    3  A    between atoms: C4_4  and  N1_5 
REMARK    4  A    between atoms: N2_8  and  C6_9 
REMARK    5  A    between atoms: C6_9  and  C7_10 
REMARK    6  A    between atoms: C15_22  and  C16_23 
REMARK    7  A    between atoms: C16_23  and  C17_24 
REMARK    8  A    between atoms: C20_27  and  N4_28 
REMARK       I    between atoms: N4_28  and  C21_30 
ROOT
HETATM    1  N1  UNL     1      38.899  42.342  34.180  1.00  0.00    -0.283 N 
HETATM    2  C5  UNL     1      39.472  43.569  34.176  1.00  0.00     0.333 A 
HETATM    3  O1  UNL     1      40.415  43.779  35.026  1.00  0.00    -0.246 OA
HETATM    4  N2  UNL     1      39.058  44.504  33.322  1.00  0.00    -0.260 N 
HETATM    5  C13 UNL     1      38.046  44.178  32.469  1.00  0.00     0.282 A 
HETATM    6  O2  UNL     1      37.595  45.012  31.630  1.00  0.00    -0.265 OA
HETATM    7  C14 UNL     1      37.449  42.928  32.461  1.00  0.00     0.147 A 
HETATM    8  N3  UNL     1      36.470  42.331  31.766  1.00  0.00    -0.338 N 
ATOM      9  H3  UNL     1      35.935  42.780  31.023  1.00  0.00     0.167 HD
HETATM   10  C15 UNL     1      36.286  41.069  32.176  1.00  0.00     0.087 A 
HETATM   11  N5  UNL     1      37.180  40.870  33.159  1.00  0.00    -0.330 N 
ATOM     12  H5  UNL     1      37.293  40.001  33.679  1.00  0.00     0.168 HD
HETATM   13  C25 UNL     1      37.908  41.994  33.358  1.00  0.00     0.145 A 
ENDROOT
BRANCH  10  14
HETATM   14  C16 UNL     1      35.299  40.111  31.644  1.00  0.00     0.115 C 
BRANCH  14  15
HETATM   15  C17 UNL     1      34.093  39.990  32.473  1.00  0.00    -0.051 A 
HETATM   16  C18 UNL     1      32.918  39.591  31.877  1.00  0.00     0.010 A 
HETATM   17  C19 UNL     1      31.758  39.471  32.661  1.00  0.00     0.030 A 
HETATM   18  C20 UNL     1      31.732  39.735  34.000  1.00  0.00     0.034 A 
HETATM   19  C23 UNL     1      32.944  40.140  34.582  1.00  0.00     0.030 A 
HETATM   20  C24 UNL     1      34.087  40.259  33.825  1.00  0.00     0.010 A 
BRANCH  18  21
HETATM   21  N4  UNL     1      30.593  39.642  34.816  1.00  0.00    -0.328 N 
HETATM   22  C21 UNL     1      30.096  40.688  35.610  1.00  0.00     0.218 C 
HETATM   23  C22 UNL     1      28.860  40.399  36.413  1.00  0.00     0.117 C 
HETATM   24  O3  UNL     1      30.624  41.817  35.671  1.00  0.00    -0.274 OA
ATOM     25  H4  UNL     1      30.092  38.753  34.834  1.00  0.00     0.169 HD
ENDBRANCH  18  21
ENDBRANCH  14  15
ENDBRANCH  10  14
BRANCH   1  26
HETATM   26  C4  UNL     1      39.365  41.343  35.115  1.00  0.00     0.135 C 
BRANCH  26  27
HETATM   27  C3  UNL     1      38.435  41.192  36.301  1.00  0.00     0.020 C 
BRANCH  27  28
HETATM   28  C2  UNL     1      39.285  41.359  37.557  1.00  0.00    -0.003 C 
HETATM   29  C1  UNL     1      39.083  42.702  38.180  1.00  0.00     0.005 C 
ENDBRANCH  27  28
ENDBRANCH  26  27
ENDBRANCH   1  26
BRANCH   4  30
HETATM   30  C6  UNL     1      39.639  45.802  33.241  1.00  0.00     0.178 C 
BRANCH  30  31
HETATM   31  C7  UNL     1      39.024  46.874  34.018  1.00  0.00    -0.001 A 
HETATM   32  C8  UNL     1      39.279  46.907  35.405  1.00  0.00     0.012 A 
HETATM   33  C9  UNL     1      38.732  47.880  36.206  1.00  0.00     0.001 A 
HETATM   34  C10 UNL     1      37.914  48.870  35.714  1.00  0.00     0.003 A 
HETATM   35  C11 UNL     1      37.662  48.846  34.366  1.00  0.00     0.043 A 
HETATM   36  C12 UNL     1      38.216  47.854  33.530  1.00  0.00     0.124 A 
HETATM   37  F1  UNL     1      37.934  47.913  32.223  1.00  0.00    -0.205 F 
ENDBRANCH  30  31
ENDBRANCH   4  30
TORSDOF 8
ENDMDL
