MODEL 7
REMARK VINA RESULT: -9.940826314      3.048      7.773
REMARK  8 active torsions:
REMARK  status: ('A' for Active; 'I' for Inactive)
REMARK    1  A    between atoms: C2_2  and  C3_3 
REMARK    2  A    between atoms: C3_3  and  C4_4 
REMARK    3  A    between atoms: C4_4  and  N1_5 
REMARK    4  A    between atoms: N2_8  and  C6_9 
REMARK    5  A    between atoms: C6_9  and  C7_10 
REMARK    6  A    between atoms: C15_22  and  C16_23 
REMARK    7  A    between atoms: C16_23  and  C17_24 
REMARK    8  A    between atoms: C20_27  and  N4_28 
REMARK       I    between atoms: N4_28  and  C21_30 
ROOT
HETATM    1  N1  UNL     1      38.075  41.461  33.844  1.00  0.00    -0.283 N 
HETATM    2  C5  UNL     1      37.139  40.614  33.354  1.00  0.00     0.333 A 
HETATM    3  O1  UNL     1      37.080  39.439  33.874  1.00  0.00    -0.246 OA
HETATM    4  N2  UNL     1      36.327  41.001  32.371  1.00  0.00    -0.260 N 
HETATM    5  C13 UNL     1      36.480  42.266  31.887  1.00  0.00     0.282 A 
HETATM    6  O2  UNL     1      35.749  42.709  30.952  1.00  0.00    -0.265 OA
HETATM    7  C14 UNL     1      37.433  43.145  32.377  1.00  0.00     0.147 A 
HETATM    8  N3  UNL     1      37.809  44.405  32.114  1.00  0.00    -0.338 N 
ATOM      9  H3  UNL     1      37.383  44.997  31.402  1.00  0.00     0.167 HD
HETATM   10  C15 UNL     1      38.819  44.783  32.910  1.00  0.00     0.087 A 
HETATM   11  N5  UNL     1      39.082  43.725  33.695  1.00  0.00    -0.330 N 
ATOM     12  H5  UNL     1      39.804  43.696  34.414  1.00  0.00     0.168 HD
HETATM   13  C25 UNL     1      38.248  42.703  33.391  1.00  0.00     0.145 A 
ENDROOT
BRANCH  10  14
HETATM   14  C16 UNL     1      39.490  46.096  32.906  1.00  0.00     0.115 C 
BRANCH  14  15
HETATM   15  C17 UNL     1      38.738  47.141  33.611  1.00  0.00    -0.051 A 
HETATM   16  C18 UNL     1      37.934  47.986  32.879  1.00  0.00     0.010 A 
HETATM   17  C19 UNL     1      37.210  48.990  33.545  1.00  0.00     0.030 A 
HETATM   18  C20 UNL     1      37.262  49.177  34.896  1.00  0.00     0.034 A 
HETATM   19  C23 UNL     1      38.091  48.302  35.617  1.00  0.00     0.030 A 
HETATM   20  C24 UNL     1      38.804  47.314  34.977  1.00  0.00     0.010 A 
BRANCH  18  21
HETATM   21  N4  UNL     1      36.567  50.176  35.597  1.00  0.00    -0.328 N 
HETATM   22  C21 UNL     1      35.240  50.058  36.039  1.00  0.00     0.218 C 
HETATM   23  C22 UNL     1      34.667  51.234  36.778  1.00  0.00     0.117 C 
HETATM   24  O3  UNL     1      34.537  49.045  35.849  1.00  0.00    -0.274 OA
ATOM     25  H4  UNL     1      37.059  51.046  35.798  1.00  0.00     0.169 HD
ENDBRANCH  18  21
ENDBRANCH  14  15
ENDBRANCH  10  14
BRANCH   1  26
HETATM   26  C4  UNL     1      38.944  41.018  34.911  1.00  0.00     0.135 C 
BRANCH  26  27
HETATM   27  C3  UNL     1      38.316  41.213  36.276  1.00  0.00     0.020 C 
BRANCH  27  28
HETATM   28  C2  UNL     1      39.387  41.823  37.175  1.00  0.00    -0.003 C 
HETATM   29  C1  UNL     1      38.974  41.801  38.612  1.00  0.00     0.005 C 
ENDBRANCH  27  28
ENDBRANCH  26  27
ENDBRANCH   1  26
BRANCH   4  30
HETATM   30  C6  UNL     1      35.300  40.175  31.833  1.00  0.00     0.178 C 
BRANCH  30  31
HETATM   31  C7  UNL     1      34.050  40.068  32.579  1.00  0.00    -0.001 A 
HETATM   32  C8  UNL     1      34.069  40.426  33.944  1.00  0.00     0.012 A 
HETATM   33  C9  UNL     1      32.935  40.347  34.716  1.00  0.00     0.001 A 
HETATM   34  C10 UNL     1      31.727  39.921  34.215  1.00  0.00     0.003 A 
HETATM   35  C11 UNL     1      31.700  39.572  32.889  1.00  0.00     0.043 A 
HETATM   36  C12 UNL     1      32.855  39.648  32.082  1.00  0.00     0.124 A 
HETATM   37  F1  UNL     1      32.738  39.305  30.794  1.00  0.00    -0.205 F 
ENDBRANCH  30  31
ENDBRANCH   4  30
TORSDOF 8
ENDMDL
