MODEL 4
REMARK VINA RESULT: -10.100661676      2.972      7.760
REMARK  8 active torsions:
REMARK  status: ('A' for Active; 'I' for Inactive)
REMARK    1  A    between atoms: C2_2  and  C3_3 
REMARK    2  A    between atoms: C3_3  and  C4_4 
REMARK    3  A    between atoms: C4_4  and  N1_5 
REMARK    4  A    between atoms: N2_8  and  C6_9 
REMARK    5  A    between atoms: C6_9  and  C7_10 
REMARK    6  A    between atoms: C15_22  and  C16_23 
REMARK    7  A    between atoms: C16_23  and  C17_24 
REMARK    8  A    between atoms: C20_27  and  N4_28 
REMARK       I    between atoms: N4_28  and  C21_30 
ROOT
HETATM    1  N1  UNL     1      37.985  41.580  33.950  1.00  0.00    -0.283 N 
HETATM    2  C5  UNL     1      37.086  40.677  33.490  1.00  0.00     0.333 A 
HETATM    3  O1  UNL     1      37.028  39.545  34.099  1.00  0.00    -0.246 OA
HETATM    4  N2  UNL     1      36.310  40.968  32.447  1.00  0.00    -0.260 N 
HETATM    5  C13 UNL     1      36.459  42.194  31.871  1.00  0.00     0.282 A 
HETATM    6  O2  UNL     1      35.760  42.546  30.875  1.00  0.00    -0.265 OA
HETATM    7  C14 UNL     1      37.373  43.129  32.329  1.00  0.00     0.147 A 
HETATM    8  N3  UNL     1      37.736  44.373  31.983  1.00  0.00    -0.338 N 
ATOM      9  H3  UNL     1      37.329  44.898  31.210  1.00  0.00     0.167 HD
HETATM   10  C15 UNL     1      38.703  44.835  32.787  1.00  0.00     0.087 A 
HETATM   11  N5  UNL     1      38.953  43.848  33.663  1.00  0.00    -0.330 N 
ATOM     12  H5  UNL     1      39.645  43.892  34.411  1.00  0.00     0.168 HD
HETATM   13  C25 UNL     1      38.152  42.787  33.407  1.00  0.00     0.145 A 
ENDROOT
BRANCH  10  14
HETATM   14  C16 UNL     1      39.349  46.158  32.707  1.00  0.00     0.115 C 
BRANCH  14  15
HETATM   15  C17 UNL     1      38.687  47.184  33.523  1.00  0.00    -0.051 A 
HETATM   16  C18 UNL     1      39.005  47.274  34.859  1.00  0.00     0.010 A 
HETATM   17  C19 UNL     1      38.378  48.253  35.649  1.00  0.00     0.030 A 
HETATM   18  C20 UNL     1      37.457  49.131  35.156  1.00  0.00     0.034 A 
HETATM   19  C23 UNL     1      37.152  49.018  33.790  1.00  0.00     0.030 A 
HETATM   20  C24 UNL     1      37.760  48.064  33.006  1.00  0.00     0.010 A 
BRANCH  18  21
HETATM   21  N4  UNL     1      36.798  50.114  35.913  1.00  0.00    -0.328 N 
HETATM   22  C21 UNL     1      35.603  49.903  36.620  1.00  0.00     0.218 C 
HETATM   23  C22 UNL     1      35.050  51.077  37.377  1.00  0.00     0.117 C 
HETATM   24  O3  UNL     1      35.001  48.811  36.645  1.00  0.00    -0.274 OA
ATOM     25  H4  UNL     1      37.215  51.044  35.952  1.00  0.00     0.169 HD
ENDBRANCH  18  21
ENDBRANCH  14  15
ENDBRANCH  10  14
BRANCH   1  26
HETATM   26  C4  UNL     1      38.815  41.242  35.083  1.00  0.00     0.135 C 
BRANCH  26  27
HETATM   27  C3  UNL     1      40.149  40.662  34.660  1.00  0.00     0.020 C 
BRANCH  27  28
HETATM   28  C2  UNL     1      40.364  39.395  35.483  1.00  0.00    -0.003 C 
HETATM   29  C1  UNL     1      41.796  38.967  35.466  1.00  0.00     0.005 C 
ENDBRANCH  27  28
ENDBRANCH  26  27
ENDBRANCH   1  26
BRANCH   4  30
HETATM   30  C6  UNL     1      35.322  40.079  31.934  1.00  0.00     0.178 C 
BRANCH  30  31
HETATM   31  C7  UNL     1      34.042  40.008  32.631  1.00  0.00    -0.001 A 
HETATM   32  C8  UNL     1      34.017  40.365  33.996  1.00  0.00     0.012 A 
HETATM   33  C9  UNL     1      32.853  40.318  34.724  1.00  0.00     0.001 A 
HETATM   34  C10 UNL     1      31.654  39.926  34.175  1.00  0.00     0.003 A 
HETATM   35  C11 UNL     1      31.668  39.579  32.848  1.00  0.00     0.043 A 
HETATM   36  C12 UNL     1      32.856  39.622  32.088  1.00  0.00     0.124 A 
HETATM   37  F1  UNL     1      32.779  39.283  30.796  1.00  0.00    -0.205 F 
ENDBRANCH  30  31
ENDBRANCH   4  30
TORSDOF 8
ENDMDL
