MODEL 8
REMARK VINA RESULT: -9.867467471      2.651      7.723
REMARK  8 active torsions:
REMARK  status: ('A' for Active; 'I' for Inactive)
REMARK    1  A    between atoms: C2_2  and  C3_3 
REMARK    2  A    between atoms: C3_3  and  C4_4 
REMARK    3  A    between atoms: C4_4  and  N1_5 
REMARK    4  A    between atoms: N2_8  and  C6_9 
REMARK    5  A    between atoms: C6_9  and  C7_10 
REMARK    6  A    between atoms: C15_22  and  C16_23 
REMARK    7  A    between atoms: C16_23  and  C17_24 
REMARK    8  A    between atoms: C20_27  and  N4_28 
REMARK       I    between atoms: N4_28  and  C21_30 
ROOT
HETATM    1  N1  UNL     1      38.178  41.836  33.977  1.00  0.00    -0.283 N 
HETATM    2  C5  UNL     1      37.403  40.759  33.704  1.00  0.00     0.333 A 
HETATM    3  O1  UNL     1      37.553  39.723  34.452  1.00  0.00    -0.246 OA
HETATM    4  N2  UNL     1      36.533  40.792  32.695  1.00  0.00    -0.260 N 
HETATM    5  C13 UNL     1      36.460  41.938  31.962  1.00  0.00     0.282 A 
HETATM    6  O2  UNL     1      35.660  42.048  30.986  1.00  0.00    -0.265 OA
HETATM    7  C14 UNL     1      37.246  43.048  32.228  1.00  0.00     0.147 A 
HETATM    8  N3  UNL     1      37.394  44.273  31.702  1.00  0.00    -0.338 N 
ATOM      9  H3  UNL     1      36.868  44.625  30.903  1.00  0.00     0.167 HD
HETATM   10  C15 UNL     1      38.324  44.973  32.366  1.00  0.00     0.087 A 
HETATM   11  N5  UNL     1      38.771  44.160  33.336  1.00  0.00    -0.330 N 
ATOM     12  H5  UNL     1      39.490  44.403  34.018  1.00  0.00     0.168 HD
HETATM   13  C25 UNL     1      38.128  42.970  33.277  1.00  0.00     0.145 A 
ENDROOT
BRANCH  10  14
HETATM   14  C16 UNL     1      38.754  46.353  32.072  1.00  0.00     0.115 C 
BRANCH  14  15
HETATM   15  C17 UNL     1      38.475  47.299  33.160  1.00  0.00    -0.051 A 
HETATM   16  C18 UNL     1      37.578  48.319  32.935  1.00  0.00     0.010 A 
HETATM   17  C19 UNL     1      37.303  49.230  33.970  1.00  0.00     0.030 A 
HETATM   18  C20 UNL     1      37.886  49.158  35.202  1.00  0.00     0.034 A 
HETATM   19  C23 UNL     1      38.797  48.108  35.403  1.00  0.00     0.030 A 
HETATM   20  C24 UNL     1      39.073  47.209  34.398  1.00  0.00     0.010 A 
BRANCH  18  21
HETATM   21  N4  UNL     1      37.650  50.055  36.256  1.00  0.00    -0.328 N 
HETATM   22  C21 UNL     1      36.610  49.926  37.190  1.00  0.00     0.218 C 
HETATM   23  C22 UNL     1      36.520  50.985  38.252  1.00  0.00     0.117 C 
HETATM   24  O3  UNL     1      35.781  48.994  37.175  1.00  0.00    -0.274 OA
ATOM     25  H4  UNL     1      38.277  50.854  36.351  1.00  0.00     0.169 HD
ENDBRANCH  18  21
ENDBRANCH  14  15
ENDBRANCH  10  14
BRANCH   1  26
HETATM   26  C4  UNL     1      39.114  41.776  35.077  1.00  0.00     0.135 C 
BRANCH  26  27
HETATM   27  C3  UNL     1      40.461  41.230  34.651  1.00  0.00     0.020 C 
BRANCH  27  28
HETATM   28  C2  UNL     1      40.977  40.372  35.802  1.00  0.00    -0.003 C 
HETATM   29  C1  UNL     1      41.458  39.041  35.321  1.00  0.00     0.005 C 
ENDBRANCH  27  28
ENDBRANCH  26  27
ENDBRANCH   1  26
BRANCH   4  30
HETATM   30  C6  UNL     1      35.665  39.710  32.375  1.00  0.00     0.178 C 
BRANCH  30  31
HETATM   31  C7  UNL     1      34.286  39.779  32.848  1.00  0.00    -0.001 A 
HETATM   32  C8  UNL     1      33.261  39.482  31.926  1.00  0.00     0.012 A 
HETATM   33  C9  UNL     1      31.937  39.531  32.292  1.00  0.00     0.001 A 
HETATM   34  C10 UNL     1      31.534  39.867  33.564  1.00  0.00     0.003 A 
HETATM   35  C11 UNL     1      32.525  40.155  34.467  1.00  0.00     0.043 A 
HETATM   36  C12 UNL     1      33.888  40.109  34.106  1.00  0.00     0.124 A 
HETATM   37  F1  UNL     1      34.791  40.389  35.053  1.00  0.00    -0.205 F 
ENDBRANCH  30  31
ENDBRANCH   4  30
TORSDOF 8
ENDMDL
