MODEL 1
REMARK VINA RESULT: -9.066537084      0.000      0.000
REMARK  4 active torsions:
REMARK  status: ('A' for Active; 'I' for Inactive)
REMARK    1  A    between atoms: C3_3  and  C4_4 
REMARK    2  A    between atoms: C4_4  and  O1_5 
REMARK    3  A    between atoms: C18_21  and  C19_22 
REMARK    4  A    between atoms: C22_25  and  N1_26 
ROOT
HETATM    1  C1  UNL     1      -1.236  15.838   2.976  1.00  0.00     0.112 C 
HETATM    2  C2  UNL     1      -1.940  14.583   3.289  1.00  0.00    -0.108 C 
HETATM    3  C3  UNL     1      -2.520  13.574   3.557  1.00  0.00    -0.068 C 
ENDROOT
BRANCH   3   4
HETATM    4  C4  UNL     1      -3.226  12.355   3.907  1.00  0.00     0.128 C 
HETATM    5  C5  UNL     1      -2.999  11.964   5.372  1.00  0.00     0.052 C 
HETATM    6  C6  UNL     1      -2.105  10.718   5.334  1.00  0.00     0.010 C 
HETATM    7  C7  UNL     1      -1.512  10.802   3.981  1.00  0.00     0.006 C 
HETATM    8  C8  UNL     1      -0.904   9.563   3.432  1.00  0.00     0.021 C 
HETATM    9  C28 UNL     1      -2.721  11.148   3.123  1.00  0.00     0.004 C 
HETATM   10  C9  UNL     1       0.355   9.308   4.287  1.00  0.00     0.014 C 
HETATM   11  C17 UNL     1      -0.560   9.659   2.010  1.00  0.00    -0.060 C 
HETATM   12  C10 UNL     1       0.755   7.898   3.950  1.00  0.00     0.040 C 
HETATM   13  C11 UNL     1       1.029   7.911   2.462  1.00  0.00    -0.048 C 
HETATM   14  C12 UNL     1       1.901   6.994   2.032  1.00  0.00     0.057 C 
HETATM   15  C16 UNL     1       0.384   8.852   1.555  1.00  0.00    -0.048 C 
HETATM   16  C13 UNL     1       2.192   6.974   0.610  1.00  0.00     0.150 C 
HETATM   17  O2  UNL     1       2.490   5.889   0.059  1.00  0.00    -0.293 OA
HETATM   18  C14 UNL     1       2.109   8.284  -0.102  1.00  0.00     0.087 C 
HETATM   19  C15 UNL     1       0.757   8.927   0.108  1.00  0.00     0.047 C 
HETATM   20  C18 UNL     1      -1.236  10.602   1.134  1.00  0.00     0.049 C 
HETATM   21  C27 UNL     1      -2.228  11.512   1.775  1.00  0.00     0.027 C 
HETATM   22  C29 UNL     1      -3.792  10.115   3.188  1.00  0.00     0.020 C 
BRANCH   4  23
HETATM   23  O1  UNL     1      -4.578  12.540   3.641  1.00  0.00    -0.377 OA
ATOM     24  H1  UNL     1      -5.016  11.700   3.721  1.00  0.00     0.211 HD
ENDBRANCH   4  23
BRANCH  20  25
HETATM   25  C19 UNL     1      -1.911   9.992  -0.026  1.00  0.00    -0.050 A 
HETATM   26  C20 UNL     1      -1.979  10.684  -1.199  1.00  0.00     0.010 A 
HETATM   27  C21 UNL     1      -2.596  10.164  -2.333  1.00  0.00     0.030 A 
HETATM   28  C22 UNL     1      -3.167   8.892  -2.271  1.00  0.00     0.029 A 
HETATM   29  C25 UNL     1      -3.082   8.220  -1.070  1.00  0.00     0.030 A 
HETATM   30  C26 UNL     1      -2.463   8.761   0.037  1.00  0.00     0.010 A 
BRANCH  28  31
HETATM   31  N1  UNL     1      -3.808   8.319  -3.401  1.00  0.00    -0.390 N 
HETATM   32  C23 UNL     1      -4.595   7.120  -3.246  1.00  0.00     0.149 C 
HETATM   33  C24 UNL     1      -3.695   8.909  -4.711  1.00  0.00     0.149 C 
ENDBRANCH  28  31
ENDBRANCH  20  25
ENDBRANCH   3   4
TORSDOF 4
ENDMDL
