MODEL 2
REMARK VINA RESULT: -7.608981846      1.056      1.459
REMARK  4 active torsions:
REMARK  status: ('A' for Active; 'I' for Inactive)
REMARK    1  A    between atoms: C3_3  and  C4_4 
REMARK    2  A    between atoms: C4_4  and  O1_5 
REMARK    3  A    between atoms: C18_21  and  C19_22 
REMARK    4  A    between atoms: C22_25  and  N1_26 
ROOT
HETATM    1  C1  UNL     1      -0.538  14.592   4.112  1.00  0.00     0.112 C 
HETATM    2  C2  UNL     1      -1.174  13.278   4.302  1.00  0.00    -0.108 C 
HETATM    3  C3  UNL     1      -1.691  12.209   4.437  1.00  0.00    -0.068 C 
ENDROOT
BRANCH   3   4
HETATM    4  C4  UNL     1      -2.331  10.914   4.579  1.00  0.00     0.128 C 
HETATM    5  C5  UNL     1      -1.899  10.200   5.865  1.00  0.00     0.052 C 
HETATM    6  C6  UNL     1      -1.009   9.036   5.412  1.00  0.00     0.010 C 
HETATM    7  C7  UNL     1      -0.611   9.458   4.051  1.00  0.00     0.006 C 
HETATM    8  C8  UNL     1      -0.075   8.409   3.147  1.00  0.00     0.021 C 
HETATM    9  C28 UNL     1      -1.930   9.946   3.470  1.00  0.00     0.004 C 
HETATM   10  C9  UNL     1       1.293   8.012   3.741  1.00  0.00     0.014 C 
HETATM   11  C17 UNL     1       0.066   8.850   1.756  1.00  0.00    -0.060 C 
HETATM   12  C10 UNL     1       1.653   6.738   3.028  1.00  0.00     0.040 C 
HETATM   13  C11 UNL     1       1.717   7.111   1.563  1.00  0.00    -0.048 C 
HETATM   14  C12 UNL     1       2.529   6.357   0.815  1.00  0.00     0.057 C 
HETATM   15  C16 UNL     1       0.944   8.212   1.000  1.00  0.00    -0.048 C 
HETATM   16  C13 UNL     1       2.618   6.684  -0.597  1.00  0.00     0.150 C 
HETATM   17  O2  UNL     1       2.846   5.771  -1.425  1.00  0.00    -0.293 OA
HETATM   18  C14 UNL     1       2.427   8.119  -0.960  1.00  0.00     0.087 C 
HETATM   19  C15 UNL     1       1.111   8.639  -0.423  1.00  0.00     0.047 C 
HETATM   20  C18 UNL     1      -0.733   9.944   1.228  1.00  0.00     0.049 C 
HETATM   21  C27 UNL     1      -1.633  10.636   2.193  1.00  0.00     0.027 C 
HETATM   22  C29 UNL     1      -2.973   8.884   3.429  1.00  0.00     0.020 C 
BRANCH   4  23
HETATM   23  O1  UNL     1      -3.708  11.100   4.547  1.00  0.00    -0.377 OA
ATOM     24  H1  UNL     1      -3.962  11.590   5.320  1.00  0.00     0.211 HD
ENDBRANCH   4  23
BRANCH  20  25
HETATM   25  C19 UNL     1      -1.558   9.596   0.057  1.00  0.00    -0.050 A 
HETATM   26  C20 UNL     1      -1.769  10.530  -0.913  1.00  0.00     0.010 A 
HETATM   27  C21 UNL     1      -2.533  10.265  -2.046  1.00  0.00     0.030 A 
HETATM   28  C22 UNL     1      -3.104   9.001  -2.198  1.00  0.00     0.029 A 
HETATM   29  C25 UNL     1      -2.871   8.079  -1.199  1.00  0.00     0.030 A 
HETATM   30  C26 UNL     1      -2.110   8.371  -0.088  1.00  0.00     0.010 A 
BRANCH  28  31
HETATM   31  N1  UNL     1      -3.891   8.683  -3.336  1.00  0.00    -0.390 N 
HETATM   32  C23 UNL     1      -3.619   9.329  -4.597  1.00  0.00     0.149 C 
HETATM   33  C24 UNL     1      -4.964   7.724  -3.265  1.00  0.00     0.149 C 
ENDBRANCH  28  31
ENDBRANCH  20  25
ENDBRANCH   3   4
TORSDOF 4
ENDMDL
