MODEL 3
REMARK VINA RESULT: -7.204844258      4.294      9.374
REMARK  4 active torsions:
REMARK  status: ('A' for Active; 'I' for Inactive)
REMARK    1  A    between atoms: C3_3  and  C4_4 
REMARK    2  A    between atoms: C4_4  and  O1_5 
REMARK    3  A    between atoms: C18_21  and  C19_22 
REMARK    4  A    between atoms: C22_25  and  N1_26 
ROOT
HETATM    1  C1  UNL     1       1.020  12.518  -8.983  1.00  0.00     0.112 C 
HETATM    2  C2  UNL     1       1.329  11.290  -8.234  1.00  0.00    -0.108 C 
HETATM    3  C3  UNL     1       1.571  10.300  -7.610  1.00  0.00    -0.068 C 
ENDROOT
BRANCH   3   4
HETATM    4  C4  UNL     1       1.866   9.112  -6.830  1.00  0.00     0.128 C 
HETATM    5  C5  UNL     1       2.150   7.899  -7.723  1.00  0.00     0.052 C 
HETATM    6  C6  UNL     1       0.940   6.971  -7.556  1.00  0.00     0.010 C 
HETATM    7  C7  UNL     1      -0.092   7.895  -7.033  1.00  0.00     0.006 C 
HETATM    8  C8  UNL     1      -1.275   7.284  -6.376  1.00  0.00     0.021 C 
HETATM    9  C28 UNL     1       0.682   8.670  -5.976  1.00  0.00     0.004 C 
HETATM   10  C9  UNL     1      -2.057   6.582  -7.505  1.00  0.00     0.014 C 
HETATM   11  C17 UNL     1      -2.122   8.255  -5.676  1.00  0.00    -0.060 C 
HETATM   12  C10 UNL     1      -3.040   5.701  -6.784  1.00  0.00     0.040 C 
HETATM   13  C11 UNL     1      -3.887   6.646  -5.960  1.00  0.00    -0.048 C 
HETATM   14  C12 UNL     1      -5.125   6.219  -5.691  1.00  0.00     0.057 C 
HETATM   15  C16 UNL     1      -3.390   7.932  -5.485  1.00  0.00    -0.048 C 
HETATM   16  C13 UNL     1      -5.970   7.098  -4.903  1.00  0.00     0.150 C 
HETATM   17  O2  UNL     1      -6.841   6.601  -4.152  1.00  0.00    -0.293 OA
HETATM   18  C14 UNL     1      -5.728   8.563  -5.055  1.00  0.00     0.087 C 
HETATM   19  C15 UNL     1      -4.280   8.902  -4.775  1.00  0.00     0.047 C 
HETATM   20  C18 UNL     1      -1.586   9.522  -5.206  1.00  0.00     0.049 C 
HETATM   21  C27 UNL     1      -0.163   9.808  -5.544  1.00  0.00     0.027 C 
HETATM   22  C29 UNL     1       1.229   7.798  -4.902  1.00  0.00     0.020 C 
BRANCH   4  23
HETATM   23  O1  UNL     1       2.948   9.389  -6.002  1.00  0.00    -0.377 OA
ATOM     24  H1  UNL     1       2.836   8.906  -5.192  1.00  0.00     0.211 HD
ENDBRANCH   4  23
BRANCH  20  25
HETATM   25  C19 UNL     1      -1.729   9.752  -3.757  1.00  0.00    -0.050 A 
HETATM   26  C20 UNL     1      -2.278  10.920  -3.317  1.00  0.00     0.010 A 
HETATM   27  C21 UNL     1      -2.447  11.198  -1.964  1.00  0.00     0.030 A 
HETATM   28  C22 UNL     1      -2.042  10.252  -1.021  1.00  0.00     0.029 A 
HETATM   29  C25 UNL     1      -1.489   9.082  -1.499  1.00  0.00     0.030 A 
HETATM   30  C26 UNL     1      -1.335   8.834  -2.846  1.00  0.00     0.010 A 
BRANCH  28  31
HETATM   31  N1  UNL     1      -2.193  10.490   0.370  1.00  0.00    -0.390 N 
HETATM   32  C23 UNL     1      -1.054  10.905   1.153  1.00  0.00     0.149 C 
HETATM   33  C24 UNL     1      -3.465  10.329   1.028  1.00  0.00     0.149 C 
ENDBRANCH  28  31
ENDBRANCH  20  25
ENDBRANCH   3   4
TORSDOF 4
ENDMDL
