MODEL 16
REMARK VINA RESULT: -6.970260446      5.876      7.924
REMARK  5 active torsions:
REMARK  status: ('A' for Active; 'I' for Inactive)
REMARK    1  A    between atoms: N2_5  and  C4_6 
REMARK    2  A    between atoms: C6_8  and  O1_9 
REMARK    3  A    between atoms: C7_11  and  C8_12 
REMARK    4  A    between atoms: C8_12  and  O2_13 
REMARK    5  A    between atoms: O2_13  and  P1_14 
ROOT
HETATM    1  C4  UNL     1      13.824  47.814 -46.397  1.00  0.00     0.235 C 
HETATM    2  C5  UNL     1      14.331  46.579 -45.675  1.00  0.00     0.088 C 
HETATM    3  C6  UNL     1      14.941  45.779 -46.828  1.00  0.00     0.153 C 
HETATM    4  C7  UNL     1      15.065  46.861 -47.871  1.00  0.00     0.177 C 
HETATM    5  O6  UNL     1      13.862  47.515 -47.758  1.00  0.00    -0.356 OA
ENDROOT
BRANCH   1   6
HETATM    6  N2  UNL     1      12.520  48.130 -45.920  1.00  0.00    -0.282 N 
HETATM    7  C3  UNL     1      11.765  47.163 -45.372  1.00  0.00     0.102 A 
HETATM    8  C2  UNL     1      10.485  47.413 -44.891  1.00  0.00     0.062 A 
HETATM    9  C1  UNL     1       9.967  48.689 -44.974  1.00  0.00     0.121 A 
HETATM   10  N1  UNL     1       8.656  48.975 -44.488  1.00  0.00    -0.083 NA
HETATM   11  N3  UNL     1      10.743  49.633 -45.525  1.00  0.00    -0.297 N 
HETATM   12  C9  UNL     1      11.987  49.359 -45.986  1.00  0.00     0.329 A 
ATOM     13  H3  UNL     1      10.387  50.585 -45.599  1.00  0.00     0.171 HD
HETATM   14  O7  UNL     1      12.687  50.264 -46.496  1.00  0.00    -0.246 OA
ENDBRANCH   1   6
BRANCH   3  15
HETATM   15  O1  UNL     1      16.139  45.202 -46.484  1.00  0.00    -0.393 OA
ATOM     16  H1  UNL     1      16.621  45.723 -45.853  1.00  0.00     0.210 HD
ENDBRANCH   3  15
BRANCH   4  17
HETATM   17  C8  UNL     1      15.375  46.348 -49.231  1.00  0.00     0.217 C 
BRANCH  17  18
HETATM   18  O2  UNL     1      14.480  46.904 -50.138  1.00  0.00    -0.280 OA
BRANCH  18  19
HETATM   19  P1  UNL     1      13.464  45.708 -50.596  1.00  0.00     0.422 P 
HETATM   20  O3  UNL     1      12.330  45.119 -49.530  1.00  0.00    -0.617 OA
HETATM   21  O4  UNL     1      13.717  44.931 -52.036  1.00  0.00    -0.617 OA
HETATM   22  O5  UNL     1      12.455  46.681 -51.186  1.00  0.00    -0.617 OA
ENDBRANCH  18  19
ENDBRANCH  17  18
ENDBRANCH   4  17
TORSDOF 5
ENDMDL
