MODEL 1
REMARK VINA RESULT: -7.872552690      0.000      0.000
REMARK  5 active torsions:
REMARK  status: ('A' for Active; 'I' for Inactive)
REMARK    1  A    between atoms: N2_5  and  C4_6 
REMARK    2  A    between atoms: C6_8  and  O1_9 
REMARK    3  A    between atoms: C7_11  and  C8_12 
REMARK    4  A    between atoms: C8_12  and  O2_13 
REMARK    5  A    between atoms: O2_13  and  P1_14 
ROOT
HETATM    1  C4  UNL     1      16.363  46.953 -53.200  1.00  0.00     0.235 C 
HETATM    2  C5  UNL     1      16.265  45.853 -54.242  1.00  0.00     0.088 C 
HETATM    3  C6  UNL     1      16.224  46.663 -55.539  1.00  0.00     0.153 C 
HETATM    4  C7  UNL     1      16.739  47.991 -55.045  1.00  0.00     0.177 C 
HETATM    5  O6  UNL     1      16.062  48.144 -53.859  1.00  0.00    -0.356 OA
ENDROOT
BRANCH   1   6
HETATM    6  N2  UNL     1      15.476  46.658 -52.125  1.00  0.00    -0.282 N 
HETATM    7  C3  UNL     1      14.478  45.780 -52.315  1.00  0.00     0.102 A 
HETATM    8  C2  UNL     1      13.583  45.454 -51.303  1.00  0.00     0.062 A 
HETATM    9  C1  UNL     1      13.716  46.045 -50.064  1.00  0.00     0.121 A 
HETATM   10  N1  UNL     1      12.812  45.730 -49.006  1.00  0.00    -0.083 NA
HETATM   11  N3  UNL     1      14.721  46.918 -49.904  1.00  0.00    -0.297 N 
HETATM   12  C9  UNL     1      15.578  47.216 -50.910  1.00  0.00     0.329 A 
ATOM     13  H3  UNL     1      14.844  47.370 -48.999  1.00  0.00     0.171 HD
HETATM   14  O7  UNL     1      16.507  48.036 -50.728  1.00  0.00    -0.246 OA
ENDBRANCH   1   6
BRANCH   3  15
HETATM   15  O1  UNL     1      16.998  46.102 -56.526  1.00  0.00    -0.393 OA
ATOM     16  H1  UNL     1      16.918  46.566 -57.351  1.00  0.00     0.210 HD
ENDBRANCH   3  15
BRANCH   4  17
HETATM   17  C8  UNL     1      16.561  49.101 -56.017  1.00  0.00     0.217 C 
BRANCH  17  18
HETATM   18  O2  UNL     1      16.981  48.675 -57.272  1.00  0.00    -0.280 OA
BRANCH  18  19
HETATM   19  P1  UNL     1      16.104  49.506 -58.374  1.00  0.00     0.422 P 
HETATM   20  O3  UNL     1      16.141  49.065 -59.978  1.00  0.00    -0.617 OA
HETATM   21  O4  UNL     1      15.366  50.919 -57.929  1.00  0.00    -0.617 OA
HETATM   22  O5  UNL     1      14.859  48.666 -58.135  1.00  0.00    -0.617 OA
ENDBRANCH  18  19
ENDBRANCH  17  18
ENDBRANCH   4  17
TORSDOF 5
ENDMDL
