MODEL 10
REMARK VINA RESULT: -7.160312256      4.194      7.675
REMARK  5 active torsions:
REMARK  status: ('A' for Active; 'I' for Inactive)
REMARK    1  A    between atoms: N2_5  and  C4_6 
REMARK    2  A    between atoms: C6_8  and  O1_9 
REMARK    3  A    between atoms: C7_11  and  C8_12 
REMARK    4  A    between atoms: C8_12  and  O2_13 
REMARK    5  A    between atoms: O2_13  and  P1_14 
ROOT
HETATM    1  C4  UNL     1      15.430  46.075 -52.571  1.00  0.00     0.235 C 
HETATM    2  C5  UNL     1      16.523  46.290 -51.539  1.00  0.00     0.088 C 
HETATM    3  C6  UNL     1      15.704  46.629 -50.292  1.00  0.00     0.153 C 
HETATM    4  C7  UNL     1      14.347  46.123 -50.714  1.00  0.00     0.177 C 
HETATM    5  O6  UNL     1      14.257  46.576 -52.008  1.00  0.00    -0.356 OA
ENDROOT
BRANCH   1   6
HETATM    6  N2  UNL     1      15.801  46.723 -53.784  1.00  0.00    -0.282 N 
HETATM    7  C3  UNL     1      16.336  47.954 -53.738  1.00  0.00     0.102 A 
HETATM    8  C2  UNL     1      16.716  48.634 -54.890  1.00  0.00     0.062 A 
HETATM    9  C1  UNL     1      16.542  48.034 -56.119  1.00  0.00     0.121 A 
HETATM   10  N1  UNL     1      16.922  48.707 -57.319  1.00  0.00    -0.083 NA
HETATM   11  N3  UNL     1      16.005  46.805 -56.134  1.00  0.00    -0.297 N 
HETATM   12  C9  UNL     1      15.645  46.168 -54.995  1.00  0.00     0.329 A 
ATOM     13  H3  UNL     1      15.865  46.337 -57.029  1.00  0.00     0.171 HD
HETATM   14  O7  UNL     1      15.146  45.020 -55.043  1.00  0.00    -0.246 OA
ENDBRANCH   1   6
BRANCH   3  15
HETATM   15  O1  UNL     1      16.196  46.016 -49.165  1.00  0.00    -0.393 OA
ATOM     16  H1  UNL     1      16.352  46.634 -48.460  1.00  0.00     0.210 HD
ENDBRANCH   3  15
BRANCH   4  17
HETATM   17  C8  UNL     1      13.243  46.557 -49.819  1.00  0.00     0.217 C 
BRANCH  17  18
HETATM   18  O2  UNL     1      13.079  45.612 -48.813  1.00  0.00    -0.280 OA
BRANCH  18  19
HETATM   19  P1  UNL     1      13.034  46.430 -47.397  1.00  0.00     0.422 P 
HETATM   20  O3  UNL     1      12.045  45.913 -46.163  1.00  0.00    -0.617 OA
HETATM   21  O4  UNL     1      13.796  47.895 -47.279  1.00  0.00    -0.617 OA
HETATM   22  O5  UNL     1      14.213  45.659 -46.822  1.00  0.00    -0.617 OA
ENDBRANCH  18  19
ENDBRANCH  17  18
ENDBRANCH   4  17
TORSDOF 5
ENDMDL
