MODEL 11
REMARK VINA RESULT: -7.110387863      3.946      6.857
REMARK  5 active torsions:
REMARK  status: ('A' for Active; 'I' for Inactive)
REMARK    1  A    between atoms: N2_5  and  C4_6 
REMARK    2  A    between atoms: C6_8  and  O1_9 
REMARK    3  A    between atoms: C7_11  and  C8_12 
REMARK    4  A    between atoms: C8_12  and  O2_13 
REMARK    5  A    between atoms: O2_13  and  P1_14 
ROOT
HETATM    1  C4  UNL     1      16.698  46.015 -53.175  1.00  0.00     0.235 C 
HETATM    2  C5  UNL     1      18.115  45.957 -52.632  1.00  0.00     0.088 C 
HETATM    3  C6  UNL     1      17.875  46.149 -51.133  1.00  0.00     0.153 C 
HETATM    4  C7  UNL     1      16.401  45.841 -51.054  1.00  0.00     0.177 C 
HETATM    5  O6  UNL     1      15.903  46.512 -52.144  1.00  0.00    -0.356 OA
ENDROOT
BRANCH   1   6
HETATM    6  N2  UNL     1      16.682  46.824 -54.348  1.00  0.00    -0.282 N 
HETATM    7  C3  UNL     1      17.403  47.956 -54.378  1.00  0.00     0.102 A 
HETATM    8  C2  UNL     1      17.424  48.785 -55.494  1.00  0.00     0.062 A 
HETATM    9  C1  UNL     1      16.686  48.441 -56.607  1.00  0.00     0.121 A 
HETATM   10  N1  UNL     1      16.688  49.272 -57.768  1.00  0.00    -0.083 NA
HETATM   11  N3  UNL     1      15.976  47.305 -56.548  1.00  0.00    -0.297 N 
HETATM   12  C9  UNL     1      15.975  46.519 -55.446  1.00  0.00     0.329 A 
ATOM     13  H3  UNL     1      15.420  47.026 -57.356  1.00  0.00     0.171 HD
HETATM   14  O7  UNL     1      15.300  45.463 -55.422  1.00  0.00    -0.246 OA
ENDBRANCH   1   6
BRANCH   3  15
HETATM   15  O1  UNL     1      18.656  45.315 -50.371  1.00  0.00    -0.393 OA
ATOM     16  H1  UNL     1      18.143  44.802 -49.758  1.00  0.00     0.210 HD
ENDBRANCH   3  15
BRANCH   4  17
HETATM   17  C8  UNL     1      15.782  46.211 -49.754  1.00  0.00     0.217 C 
BRANCH  17  18
HETATM   18  O2  UNL     1      14.600  46.901 -49.996  1.00  0.00    -0.280 OA
BRANCH  18  19
HETATM   19  P1  UNL     1      13.385  45.810 -49.896  1.00  0.00     0.422 P 
HETATM   20  O3  UNL     1      12.453  45.720 -48.520  1.00  0.00    -0.617 OA
HETATM   21  O4  UNL     1      13.234  44.650 -51.066  1.00  0.00    -0.617 OA
HETATM   22  O5  UNL     1      12.383  46.746 -50.555  1.00  0.00    -0.617 OA
ENDBRANCH  18  19
ENDBRANCH  17  18
ENDBRANCH   4  17
TORSDOF 5
ENDMDL
