MODEL 8
REMARK VINA RESULT: -6.882769679      1.775      2.201
REMARK  5 active torsions:
REMARK  status: ('A' for Active; 'I' for Inactive)
REMARK    1  A    between atoms: N2_5  and  C4_6 
REMARK    2  A    between atoms: C6_8  and  O1_9 
REMARK    3  A    between atoms: C7_11  and  C8_12 
REMARK    4  A    between atoms: C8_12  and  O2_13 
REMARK    5  A    between atoms: O2_13  and  P1_14 
ROOT
HETATM    1  C4  UNL     1      16.943  46.984 -52.667  1.00  0.00     0.235 C 
HETATM    2  C5  UNL     1      16.383  45.964 -53.643  1.00  0.00     0.088 C 
HETATM    3  C6  UNL     1      16.111  46.835 -54.871  1.00  0.00     0.153 C 
HETATM    4  C7  UNL     1      16.949  48.043 -54.537  1.00  0.00     0.177 C 
HETATM    5  O6  UNL     1      16.663  48.238 -53.208  1.00  0.00    -0.356 OA
ENDROOT
BRANCH   1   6
HETATM    6  N2  UNL     1      16.357  46.773 -51.386  1.00  0.00    -0.282 N 
HETATM    7  C3  UNL     1      15.090  47.162 -51.168  1.00  0.00     0.102 A 
HETATM    8  C2  UNL     1      14.467  46.983 -49.938  1.00  0.00     0.062 A 
HETATM    9  C1  UNL     1      15.163  46.388 -48.907  1.00  0.00     0.121 A 
HETATM   10  N1  UNL     1      14.550  46.190 -47.633  1.00  0.00    -0.083 NA
HETATM   11  N3  UNL     1      16.425  46.010 -49.154  1.00  0.00    -0.297 N 
HETATM   12  C9  UNL     1      17.006  46.199 -50.362  1.00  0.00     0.329 A 
ATOM     13  H3  UNL     1      16.964  45.568 -48.410  1.00  0.00     0.171 HD
HETATM   14  O7  UNL     1      18.188  45.834 -50.561  1.00  0.00    -0.246 OA
ENDBRANCH   1   6
BRANCH   3  15
HETATM   15  O1  UNL     1      16.478  46.213 -56.041  1.00  0.00    -0.393 OA
ATOM     16  H1  UNL     1      17.366  46.429 -56.299  1.00  0.00     0.210 HD
ENDBRANCH   3  15
BRANCH   4  17
HETATM   17  C8  UNL     1      16.685  49.214 -55.414  1.00  0.00     0.217 C 
BRANCH  17  18
HETATM   18  O2  UNL     1      16.900  48.847 -56.737  1.00  0.00    -0.280 OA
BRANCH  18  19
HETATM   19  P1  UNL     1      15.674  49.484 -57.612  1.00  0.00     0.422 P 
HETATM   20  O3  UNL     1      15.380  51.122 -57.571  1.00  0.00    -0.617 OA
HETATM   21  O4  UNL     1      14.591  48.475 -58.352  1.00  0.00    -0.617 OA
HETATM   22  O5  UNL     1      16.535  49.635 -58.857  1.00  0.00    -0.617 OA
ENDBRANCH  18  19
ENDBRANCH  17  18
ENDBRANCH   4  17
TORSDOF 5
ENDMDL
