MODEL 12
REMARK VINA RESULT: -6.769022292      4.470      6.268
REMARK  5 active torsions:
REMARK  status: ('A' for Active; 'I' for Inactive)
REMARK    1  A    between atoms: N2_5  and  C4_6 
REMARK    2  A    between atoms: C6_8  and  O1_9 
REMARK    3  A    between atoms: C7_11  and  C8_12 
REMARK    4  A    between atoms: C8_12  and  O2_13 
REMARK    5  A    between atoms: O2_13  and  P1_14 
ROOT
HETATM    1  C4  UNL     1      15.103  46.059 -52.005  1.00  0.00     0.235 C 
HETATM    2  C5  UNL     1      15.558  45.569 -50.642  1.00  0.00     0.088 C 
HETATM    3  C6  UNL     1      14.620  46.341 -49.712  1.00  0.00     0.153 C 
HETATM    4  C7  UNL     1      13.554  46.763 -50.691  1.00  0.00     0.177 C 
HETATM    5  O6  UNL     1      14.297  47.172 -51.772  1.00  0.00    -0.356 OA
ENDROOT
BRANCH   1   6
HETATM    6  N2  UNL     1      16.248  46.343 -52.804  1.00  0.00    -0.282 N 
HETATM    7  C3  UNL     1      17.239  47.091 -52.294  1.00  0.00     0.102 A 
HETATM    8  C2  UNL     1      18.379  47.400 -53.027  1.00  0.00     0.062 A 
HETATM    9  C1  UNL     1      18.503  46.928 -54.317  1.00  0.00     0.121 A 
HETATM   10  N1  UNL     1      19.662  47.229 -55.094  1.00  0.00    -0.083 NA
HETATM   11  N3  UNL     1      17.498  46.184 -54.799  1.00  0.00    -0.297 N 
HETATM   12  C9  UNL     1      16.399  45.900 -54.061  1.00  0.00     0.329 A 
ATOM     13  H3  UNL     1      17.562  45.822 -55.750  1.00  0.00     0.171 HD
HETATM   14  O7  UNL     1      15.477  45.201 -54.541  1.00  0.00    -0.246 OA
ENDBRANCH   1   6
BRANCH   3  15
HETATM   15  O1  UNL     1      14.149  45.560 -48.684  1.00  0.00    -0.393 OA
ATOM     16  H1  UNL     1      14.763  45.508 -47.961  1.00  0.00     0.210 HD
ENDBRANCH   3  15
BRANCH   4  17
HETATM   17  C8  UNL     1      12.617  47.782 -50.152  1.00  0.00     0.217 C 
BRANCH  17  18
HETATM   18  O2  UNL     1      13.292  48.575 -49.231  1.00  0.00    -0.280 OA
BRANCH  18  19
HETATM   19  P1  UNL     1      13.013  50.131 -49.649  1.00  0.00     0.422 P 
HETATM   20  O3  UNL     1      11.669  50.529 -50.547  1.00  0.00    -0.617 OA
HETATM   21  O4  UNL     1      14.183  51.270 -49.375  1.00  0.00    -0.617 OA
HETATM   22  O5  UNL     1      12.278  50.432 -48.351  1.00  0.00    -0.617 OA
ENDBRANCH  18  19
ENDBRANCH  17  18
ENDBRANCH   4  17
TORSDOF 5
ENDMDL
