MODEL 10
REMARK VINA RESULT: -6.845035924      4.230      5.315
REMARK  5 active torsions:
REMARK  status: ('A' for Active; 'I' for Inactive)
REMARK    1  A    between atoms: N2_5  and  C4_6 
REMARK    2  A    between atoms: C6_8  and  O1_9 
REMARK    3  A    between atoms: C7_11  and  C8_12 
REMARK    4  A    between atoms: C8_12  and  O2_13 
REMARK    5  A    between atoms: O2_13  and  P1_14 
ROOT
HETATM    1  C4  UNL     1      15.574  47.487 -49.421  1.00  0.00     0.235 C 
HETATM    2  C5  UNL     1      14.059  47.434 -49.348  1.00  0.00     0.088 C 
HETATM    3  C6  UNL     1      13.704  46.901 -50.738  1.00  0.00     0.153 C 
HETATM    4  C7  UNL     1      15.041  46.347 -51.164  1.00  0.00     0.177 C 
HETATM    5  O6  UNL     1      15.907  47.337 -50.766  1.00  0.00    -0.356 OA
ENDROOT
BRANCH   1   6
HETATM    6  N2  UNL     1      16.025  48.715 -48.857  1.00  0.00    -0.282 N 
HETATM    7  C3  UNL     1      15.399  49.858 -49.179  1.00  0.00     0.102 A 
HETATM    8  C2  UNL     1      15.795  51.085 -48.660  1.00  0.00     0.062 A 
HETATM    9  C1  UNL     1      16.862  51.139 -47.788  1.00  0.00     0.121 A 
HETATM   10  N1  UNL     1      17.292  52.384 -47.239  1.00  0.00    -0.083 NA
HETATM   11  N3  UNL     1      17.468  49.982 -47.485  1.00  0.00    -0.297 N 
HETATM   12  C9  UNL     1      17.059  48.802 -48.007  1.00  0.00     0.329 A 
ATOM     13  H3  UNL     1      18.260  49.991 -46.843  1.00  0.00     0.171 HD
HETATM   14  O7  UNL     1      17.647  47.737 -47.704  1.00  0.00    -0.246 OA
ENDBRANCH   1   6
BRANCH   3  15
HETATM   15  O1  UNL     1      12.704  45.960 -50.694  1.00  0.00    -0.393 OA
ATOM     16  H1  UNL     1      11.864  46.317 -50.958  1.00  0.00     0.210 HD
ENDBRANCH   3  15
BRANCH   4  17
HETATM   17  C8  UNL     1      15.110  45.995 -52.606  1.00  0.00     0.217 C 
BRANCH  17  18
HETATM   18  O2  UNL     1      15.817  46.984 -53.279  1.00  0.00    -0.280 OA
BRANCH  18  19
HETATM   19  P1  UNL     1      16.348  46.320 -54.677  1.00  0.00     0.422 P 
HETATM   20  O3  UNL     1      17.487  45.107 -54.647  1.00  0.00    -0.617 OA
HETATM   21  O4  UNL     1      15.922  47.010 -56.119  1.00  0.00    -0.617 OA
HETATM   22  O5  UNL     1      15.217  45.303 -54.717  1.00  0.00    -0.617 OA
ENDBRANCH  18  19
ENDBRANCH  17  18
ENDBRANCH   4  17
TORSDOF 5
ENDMDL
