MODEL 11
REMARK VINA RESULT: -6.838924755      4.458      6.088
REMARK  5 active torsions:
REMARK  status: ('A' for Active; 'I' for Inactive)
REMARK    1  A    between atoms: N2_5  and  C4_6 
REMARK    2  A    between atoms: C6_8  and  O1_9 
REMARK    3  A    between atoms: C7_11  and  C8_12 
REMARK    4  A    between atoms: C8_12  and  O2_13 
REMARK    5  A    between atoms: O2_13  and  P1_14 
ROOT
HETATM    1  C4  UNL     1      15.384  46.708 -52.104  1.00  0.00     0.235 C 
HETATM    2  C5  UNL     1      15.489  45.723 -50.953  1.00  0.00     0.088 C 
HETATM    3  C6  UNL     1      14.778  46.486 -49.833  1.00  0.00     0.153 C 
HETATM    4  C7  UNL     1      14.037  47.522 -50.640  1.00  0.00     0.177 C 
HETATM    5  O6  UNL     1      14.990  47.922 -51.546  1.00  0.00    -0.356 OA
ENDROOT
BRANCH   1   6
HETATM    6  N2  UNL     1      16.636  46.771 -52.779  1.00  0.00    -0.282 N 
HETATM    7  C3  UNL     1      17.588  47.604 -52.326  1.00  0.00     0.102 A 
HETATM    8  C2  UNL     1      18.829  47.709 -52.944  1.00  0.00     0.062 A 
HETATM    9  C1  UNL     1      19.099  46.938 -54.056  1.00  0.00     0.121 A 
HETATM   10  N1  UNL     1      20.364  47.023 -54.711  1.00  0.00    -0.083 NA
HETATM   11  N3  UNL     1      18.130  46.116 -54.484  1.00  0.00    -0.297 N 
HETATM   12  C9  UNL     1      16.931  46.036 -53.861  1.00  0.00     0.329 A 
ATOM     13  H3  UNL     1      18.302  45.534 -55.304  1.00  0.00     0.171 HD
HETATM   14  O7  UNL     1      16.046  45.258 -54.287  1.00  0.00    -0.246 OA
ENDBRANCH   1   6
BRANCH   3  15
HETATM   15  O1  UNL     1      13.957  45.672 -49.091  1.00  0.00    -0.393 OA
ATOM     16  H1  UNL     1      14.177  45.686 -48.167  1.00  0.00     0.210 HD
ENDBRANCH   3  15
BRANCH   4  17
HETATM   17  C8  UNL     1      13.455  48.615 -49.818  1.00  0.00     0.217 C 
BRANCH  17  18
HETATM   18  O2  UNL     1      13.775  49.837 -50.398  1.00  0.00    -0.280 OA
BRANCH  18  19
HETATM   19  P1  UNL     1      12.790  50.955 -49.725  1.00  0.00     0.422 P 
HETATM   20  O3  UNL     1      12.432  52.358 -50.546  1.00  0.00    -0.617 OA
HETATM   21  O4  UNL     1      12.337  50.793 -48.141  1.00  0.00    -0.617 OA
HETATM   22  O5  UNL     1      11.532  50.284 -50.256  1.00  0.00    -0.617 OA
ENDBRANCH  18  19
ENDBRANCH  17  18
ENDBRANCH   4  17
TORSDOF 5
ENDMDL
