MODEL 5
REMARK VINA RESULT: -7.027882664      1.813      2.215
REMARK  5 active torsions:
REMARK  status: ('A' for Active; 'I' for Inactive)
REMARK    1  A    between atoms: N2_5  and  C4_6 
REMARK    2  A    between atoms: C6_8  and  O1_9 
REMARK    3  A    between atoms: C7_11  and  C8_12 
REMARK    4  A    between atoms: C8_12  and  O2_13 
REMARK    5  A    between atoms: O2_13  and  P1_14 
ROOT
HETATM    1  C4  UNL     1      16.845  47.104 -52.847  1.00  0.00     0.235 C 
HETATM    2  C5  UNL     1      16.497  45.949 -53.768  1.00  0.00     0.088 C 
HETATM    3  C6  UNL     1      16.109  46.688 -55.050  1.00  0.00     0.153 C 
HETATM    4  C7  UNL     1      16.714  48.041 -54.777  1.00  0.00     0.177 C 
HETATM    5  O6  UNL     1      16.365  48.257 -53.466  1.00  0.00    -0.356 OA
ENDROOT
BRANCH   1   6
HETATM    6  N2  UNL     1      16.273  46.867 -51.564  1.00  0.00    -0.282 N 
HETATM    7  C3  UNL     1      15.004  47.241 -51.328  1.00  0.00     0.102 A 
HETATM    8  C2  UNL     1      14.394  47.035 -50.097  1.00  0.00     0.062 A 
HETATM    9  C1  UNL     1      15.104  46.429 -49.081  1.00  0.00     0.121 A 
HETATM   10  N1  UNL     1      14.504  46.205 -47.806  1.00  0.00    -0.083 NA
HETATM   11  N3  UNL     1      16.368  46.067 -49.346  1.00  0.00    -0.297 N 
HETATM   12  C9  UNL     1      16.935  46.281 -50.556  1.00  0.00     0.329 A 
ATOM     13  H3  UNL     1      16.917  45.617 -48.614  1.00  0.00     0.171 HD
HETATM   14  O7  UNL     1      18.119  45.931 -50.771  1.00  0.00    -0.246 OA
ENDBRANCH   1   6
BRANCH   3  15
HETATM   15  O1  UNL     1      16.608  46.075 -56.174  1.00  0.00    -0.393 OA
ATOM     16  H1  UNL     1      16.576  46.641 -56.936  1.00  0.00     0.210 HD
ENDBRANCH   3  15
BRANCH   4  17
HETATM   17  C8  UNL     1      16.272  49.097 -55.726  1.00  0.00     0.217 C 
BRANCH  17  18
HETATM   18  O2  UNL     1      16.760  48.798 -56.993  1.00  0.00    -0.280 OA
BRANCH  18  19
HETATM   19  P1  UNL     1      15.900  49.695 -58.056  1.00  0.00     0.422 P 
HETATM   20  O3  UNL     1      15.892  49.298 -59.672  1.00  0.00    -0.617 OA
HETATM   21  O4  UNL     1      15.229  51.124 -57.559  1.00  0.00    -0.617 OA
HETATM   22  O5  UNL     1      14.625  48.900 -57.819  1.00  0.00    -0.617 OA
ENDBRANCH  18  19
ENDBRANCH  17  18
ENDBRANCH   4  17
TORSDOF 5
ENDMDL
