MODEL 5
REMARK VINA RESULT: -7.253190653      2.956      3.925
REMARK  5 active torsions:
REMARK  status: ('A' for Active; 'I' for Inactive)
REMARK    1  A    between atoms: N1_5  and  C4_6 
REMARK    2  A    between atoms: C6_8  and  O2_9 
REMARK    3  A    between atoms: C7_11  and  C8_12 
REMARK    4  A    between atoms: C8_12  and  O3_13 
REMARK    5  A    between atoms: O3_13  and  P1_14 
ROOT
HETATM    1  C4  UNL     1      16.141  48.991 -54.441  1.00  0.00     0.235 C 
HETATM    2  C5  UNL     1      15.473  48.259 -55.580  1.00  0.00     0.088 C 
HETATM    3  C6  UNL     1      16.417  48.645 -56.705  1.00  0.00     0.153 C 
HETATM    4  C7  UNL     1      16.751  50.071 -56.302  1.00  0.00     0.177 C 
HETATM    5  O7  UNL     1      16.443  50.214 -54.978  1.00  0.00    -0.356 OA
ENDROOT
BRANCH   1   6
HETATM    6  N1  UNL     1      15.349  49.045 -53.253  1.00  0.00    -0.282 N 
HETATM    7  C3  UNL     1      14.039  48.738 -53.326  1.00  0.00     0.104 A 
HETATM    8  C2  UNL     1      13.195  48.759 -52.242  1.00  0.00     0.092 A 
HETATM    9  C1  UNL     1      13.746  49.120 -51.018  1.00  0.00     0.250 A 
HETATM   10  O1  UNL     1      13.041  49.163 -49.983  1.00  0.00    -0.268 OA
HETATM   11  N2  UNL     1      15.060  49.427 -50.949  1.00  0.00    -0.275 N 
HETATM   12  C9  UNL     1      15.828  49.386 -52.045  1.00  0.00     0.331 A 
ATOM     13  H2  UNL     1      15.471  49.692 -50.054  1.00  0.00     0.173 HD
HETATM   14  O8  UNL     1      17.071  49.671 -52.006  1.00  0.00    -0.246 OA
ENDBRANCH   1   6
BRANCH   3  15
HETATM   15  O2  UNL     1      17.524  47.806 -56.610  1.00  0.00    -0.393 OA
ATOM     16  H2  UNL     1      17.293  46.994 -57.045  1.00  0.00     0.210 HD
ENDBRANCH   3  15
BRANCH   4  17
HETATM   17  C8  UNL     1      15.884  50.984 -57.111  1.00  0.00     0.217 C 
BRANCH  17  18
HETATM   18  O3  UNL     1      15.660  50.552 -58.392  1.00  0.00    -0.280 OA
BRANCH  18  19
HETATM   19  P1  UNL     1      15.768  51.553 -59.620  1.00  0.00     0.422 P 
HETATM   20  O4  UNL     1      14.587  50.999 -60.426  1.00  0.00    -0.617 OA
HETATM   21  O5  UNL     1      16.790  51.280 -60.899  1.00  0.00    -0.617 OA
HETATM   22  O6  UNL     1      14.957  53.066 -59.609  1.00  0.00    -0.617 OA
ENDBRANCH  18  19
ENDBRANCH  17  18
ENDBRANCH   4  17
TORSDOF 5
ENDMDL
