MODEL 15
REMARK VINA RESULT: -7.095884877      3.636      6.433
REMARK  5 active torsions:
REMARK  status: ('A' for Active; 'I' for Inactive)
REMARK    1  A    between atoms: N1_5  and  C4_6 
REMARK    2  A    between atoms: C6_8  and  O2_9 
REMARK    3  A    between atoms: C7_11  and  C8_12 
REMARK    4  A    between atoms: C8_12  and  O3_13 
REMARK    5  A    between atoms: O3_13  and  P1_14 
ROOT
HETATM    1  C4  UNL     1      16.981  49.171 -55.781  1.00  0.00     0.235 C 
HETATM    2  C5  UNL     1      17.984  49.744 -54.808  1.00  0.00     0.088 C 
HETATM    3  C6  UNL     1      18.032  48.603 -53.807  1.00  0.00     0.153 C 
HETATM    4  C7  UNL     1      16.577  48.166 -53.825  1.00  0.00     0.177 C 
HETATM    5  O7  UNL     1      16.009  48.648 -54.971  1.00  0.00    -0.356 OA
ENDROOT
BRANCH   1   6
HETATM    6  N1  UNL     1      16.508  50.119 -56.739  1.00  0.00    -0.282 N 
HETATM    7  C3  UNL     1      16.284  51.389 -56.348  1.00  0.00     0.104 A 
HETATM    8  C2  UNL     1      15.830  52.373 -57.191  1.00  0.00     0.092 A 
HETATM    9  C1  UNL     1      15.596  52.014 -58.514  1.00  0.00     0.250 A 
HETATM   10  O1  UNL     1      15.181  52.855 -59.345  1.00  0.00    -0.268 OA
HETATM   11  N2  UNL     1      15.822  50.740 -58.903  1.00  0.00    -0.275 N 
HETATM   12  C9  UNL     1      16.266  49.829 -58.029  1.00  0.00     0.331 A 
ATOM     13  H2  UNL     1      15.652  50.470 -59.871  1.00  0.00     0.173 HD
HETATM   14  O8  UNL     1      16.486  48.620 -58.371  1.00  0.00    -0.246 OA
ENDBRANCH   1   6
BRANCH   3  15
HETATM   15  O2  UNL     1      18.873  47.631 -54.342  1.00  0.00    -0.393 OA
ATOM     16  H2  UNL     1      19.732  48.027 -54.430  1.00  0.00     0.210 HD
ENDBRANCH   3  15
BRANCH   4  17
HETATM   17  C8  UNL     1      15.904  48.787 -52.642  1.00  0.00     0.217 C 
BRANCH  17  18
HETATM   18  O3  UNL     1      14.685  49.348 -52.922  1.00  0.00    -0.280 OA
BRANCH  18  19
HETATM   19  P1  UNL     1      13.375  48.872 -52.162  1.00  0.00     0.422 P 
HETATM   20  O4  UNL     1      12.899  50.258 -51.711  1.00  0.00    -0.617 OA
HETATM   21  O5  UNL     1      13.405  48.352 -50.586  1.00  0.00    -0.617 OA
HETATM   22  O6  UNL     1      11.879  48.705 -52.986  1.00  0.00    -0.617 OA
ENDBRANCH  18  19
ENDBRANCH  17  18
ENDBRANCH   4  17
TORSDOF 5
ENDMDL
