MODEL 7
REMARK VINA RESULT: -7.228245795      3.147      4.096
REMARK  5 active torsions:
REMARK  status: ('A' for Active; 'I' for Inactive)
REMARK    1  A    between atoms: N1_5  and  C4_6 
REMARK    2  A    between atoms: C6_8  and  O2_9 
REMARK    3  A    between atoms: C7_11  and  C8_12 
REMARK    4  A    between atoms: C8_12  and  O3_13 
REMARK    5  A    between atoms: O3_13  and  P1_14 
ROOT
HETATM    1  C4  UNL     1      16.248  48.617 -54.027  1.00  0.00     0.235 C 
HETATM    2  C5  UNL     1      15.502  48.088 -55.228  1.00  0.00     0.088 C 
HETATM    3  C6  UNL     1      16.474  48.497 -56.320  1.00  0.00     0.153 C 
HETATM    4  C7  UNL     1      16.956  49.828 -55.769  1.00  0.00     0.177 C 
HETATM    5  O7  UNL     1      16.673  49.854 -54.432  1.00  0.00    -0.356 OA
ENDROOT
BRANCH   1   6
HETATM    6  N1  UNL     1      15.474  48.619 -52.827  1.00  0.00    -0.282 N 
HETATM    7  C3  UNL     1      14.176  48.975 -52.887  1.00  0.00     0.104 A 
HETATM    8  C2  UNL     1      13.348  49.009 -51.791  1.00  0.00     0.092 A 
HETATM    9  C1  UNL     1      13.904  48.654 -50.567  1.00  0.00     0.250 A 
HETATM   10  O1  UNL     1      13.214  48.659 -49.522  1.00  0.00    -0.268 OA
HETATM   11  N2  UNL     1      15.206  48.297 -50.511  1.00  0.00    -0.275 N 
HETATM   12  C9  UNL     1      15.958  48.284 -51.619  1.00  0.00     0.331 A 
ATOM     13  H2  UNL     1      15.620  48.034 -49.617  1.00  0.00     0.173 HD
HETATM   14  O8  UNL     1      17.189  47.951 -51.592  1.00  0.00    -0.246 OA
ENDBRANCH   1   6
BRANCH   3  15
HETATM   15  O2  UNL     1      17.488  47.543 -56.337  1.00  0.00    -0.393 OA
ATOM     16  H2  UNL     1      18.310  48.015 -56.397  1.00  0.00     0.210 HD
ENDBRANCH   3  15
BRANCH   4  17
HETATM   17  C8  UNL     1      16.184  50.908 -56.458  1.00  0.00     0.217 C 
BRANCH  17  18
HETATM   18  O3  UNL     1      16.671  51.243 -57.695  1.00  0.00    -0.280 OA
BRANCH  18  19
HETATM   19  P1  UNL     1      15.706  51.336 -58.952  1.00  0.00     0.422 P 
HETATM   20  O4  UNL     1      15.606  52.866 -59.006  1.00  0.00    -0.617 OA
HETATM   21  O5  UNL     1      14.056  51.218 -58.814  1.00  0.00    -0.617 OA
HETATM   22  O6  UNL     1      16.329  51.392 -60.551  1.00  0.00    -0.617 OA
ENDBRANCH  18  19
ENDBRANCH  17  18
ENDBRANCH   4  17
TORSDOF 5
ENDMDL
