MODEL 12
REMARK VINA RESULT: -7.180677970      3.490      6.569
REMARK  5 active torsions:
REMARK  status: ('A' for Active; 'I' for Inactive)
REMARK    1  A    between atoms: N1_5  and  C4_6 
REMARK    2  A    between atoms: C6_8  and  O2_9 
REMARK    3  A    between atoms: C7_11  and  C8_12 
REMARK    4  A    between atoms: C8_12  and  O3_13 
REMARK    5  A    between atoms: O3_13  and  P1_14 
ROOT
HETATM    1  C4  UNL     1      17.269  50.056 -55.538  1.00  0.00     0.235 C 
HETATM    2  C5  UNL     1      17.720  51.190 -54.649  1.00  0.00     0.088 C 
HETATM    3  C6  UNL     1      18.050  50.401 -53.395  1.00  0.00     0.153 C 
HETATM    4  C7  UNL     1      16.955  49.350 -53.440  1.00  0.00     0.177 C 
HETATM    5  O7  UNL     1      16.473  49.301 -54.718  1.00  0.00    -0.356 OA
ENDROOT
BRANCH   1   6
HETATM    6  N1  UNL     1      16.637  50.489 -56.743  1.00  0.00    -0.282 N 
HETATM    7  C3  UNL     1      16.063  51.708 -56.779  1.00  0.00     0.104 A 
HETATM    8  C2  UNL     1      15.431  52.217 -57.887  1.00  0.00     0.092 A 
HETATM    9  C1  UNL     1      15.395  51.410 -59.020  1.00  0.00     0.250 A 
HETATM   10  O1  UNL     1      14.837  51.802 -60.071  1.00  0.00    -0.268 OA
HETATM   11  N2  UNL     1      15.971  50.189 -58.980  1.00  0.00    -0.275 N 
HETATM   12  C9  UNL     1      16.571  49.754 -57.866  1.00  0.00     0.331 A 
ATOM     13  H2  UNL     1      15.947  49.592 -59.807  1.00  0.00     0.173 HD
HETATM   14  O8  UNL     1      17.123  48.605 -57.803  1.00  0.00    -0.246 OA
ENDBRANCH   1   6
BRANCH   3  15
HETATM   15  O2  UNL     1      19.312  49.844 -53.588  1.00  0.00    -0.393 OA
ATOM     16  H2  UNL     1      19.549  50.004 -54.493  1.00  0.00     0.210 HD
ENDBRANCH   3  15
BRANCH   4  17
HETATM   17  C8  UNL     1      15.863  49.796 -52.519  1.00  0.00     0.217 C 
BRANCH  17  18
HETATM   18  O3  UNL     1      14.601  49.482 -52.952  1.00  0.00    -0.280 OA
BRANCH  18  19
HETATM   19  P1  UNL     1      13.818  48.241 -52.349  1.00  0.00     0.422 P 
HETATM   20  O4  UNL     1      12.417  48.645 -52.828  1.00  0.00    -0.617 OA
HETATM   21  O5  UNL     1      13.287  48.206 -50.776  1.00  0.00    -0.617 OA
HETATM   22  O6  UNL     1      13.626  46.788 -53.244  1.00  0.00    -0.617 OA
ENDBRANCH  18  19
ENDBRANCH  17  18
ENDBRANCH   4  17
TORSDOF 5
ENDMDL
