MODEL 11
REMARK VINA RESULT: -7.182490261      2.829      3.778
REMARK  5 active torsions:
REMARK  status: ('A' for Active; 'I' for Inactive)
REMARK    1  A    between atoms: N1_5  and  C4_6 
REMARK    2  A    between atoms: C6_8  and  O2_9 
REMARK    3  A    between atoms: C7_11  and  C8_12 
REMARK    4  A    between atoms: C8_12  and  O3_13 
REMARK    5  A    between atoms: O3_13  and  P1_14 
ROOT
HETATM    1  C4  UNL     1      19.483  48.991 -53.192  1.00  0.00     0.235 C 
HETATM    2  C5  UNL     1      19.102  48.065 -54.322  1.00  0.00     0.088 C 
HETATM    3  C6  UNL     1      19.402  48.977 -55.498  1.00  0.00     0.153 C 
HETATM    4  C7  UNL     1      18.972  50.315 -54.920  1.00  0.00     0.177 C 
HETATM    5  O7  UNL     1      18.934  50.190 -53.560  1.00  0.00    -0.356 OA
ENDROOT
BRANCH   1   6
HETATM    6  N1  UNL     1      19.077  48.522 -51.906  1.00  0.00    -0.282 N 
HETATM    7  C3  UNL     1      17.918  47.844 -51.793  1.00  0.00     0.104 A 
HETATM    8  C2  UNL     1      17.440  47.352 -50.603  1.00  0.00     0.092 A 
HETATM    9  C1  UNL     1      18.212  47.580 -49.469  1.00  0.00     0.250 A 
HETATM   10  O1  UNL     1      17.844  47.163 -48.346  1.00  0.00    -0.268 OA
HETATM   11  N2  UNL     1      19.373  48.260 -49.586  1.00  0.00    -0.275 N 
HETATM   12  C9  UNL     1      19.782  48.712 -50.778  1.00  0.00     0.331 A 
ATOM     13  H2  UNL     1      19.944  48.431 -48.758  1.00  0.00     0.173 HD
HETATM   14  O8  UNL     1      20.874  49.357 -50.914  1.00  0.00    -0.246 OA
ENDBRANCH   1   6
BRANCH   3  15
HETATM   15  O2  UNL     1      20.778  48.923 -55.711  1.00  0.00    -0.393 OA
ATOM     16  H2  UNL     1      20.918  48.359 -56.462  1.00  0.00     0.210 HD
ENDBRANCH   3  15
BRANCH   4  17
HETATM   17  C8  UNL     1      17.594  50.602 -55.427  1.00  0.00     0.217 C 
BRANCH  17  18
HETATM   18  O3  UNL     1      17.515  50.737 -56.789  1.00  0.00    -0.280 OA
BRANCH  18  19
HETATM   19  P1  UNL     1      16.380  49.996 -57.616  1.00  0.00     0.422 P 
HETATM   20  O4  UNL     1      17.206  48.768 -58.020  1.00  0.00    -0.617 OA
HETATM   21  O5  UNL     1      16.081  50.339 -59.213  1.00  0.00    -0.617 OA
HETATM   22  O6  UNL     1      15.283  48.918 -56.855  1.00  0.00    -0.617 OA
ENDBRANCH  18  19
ENDBRANCH  17  18
ENDBRANCH   4  17
TORSDOF 5
ENDMDL
