MODEL 6
REMARK VINA RESULT: -7.341754173      8.036     10.398
REMARK  5 active torsions:
REMARK  status: ('A' for Active; 'I' for Inactive)
REMARK    1  A    between atoms: N2_5  and  C4_6 
REMARK    2  A    between atoms: C6_8  and  O1_9 
REMARK    3  A    between atoms: C7_11  and  C8_12 
REMARK    4  A    between atoms: C8_12  and  O2_13 
REMARK    5  A    between atoms: O2_13  and  P1_14 
ROOT
HETATM    1  C4  UNL     1      17.282  53.004 -64.957  1.00  0.00     0.235 C 
HETATM    2  C5  UNL     1      18.017  51.708 -65.247  1.00  0.00     0.088 C 
HETATM    3  C6  UNL     1      17.963  51.014 -63.884  1.00  0.00     0.153 C 
HETATM    4  C7  UNL     1      16.865  51.806 -63.221  1.00  0.00     0.177 C 
HETATM    5  O6  UNL     1      17.185  53.096 -63.569  1.00  0.00    -0.356 OA
ENDROOT
BRANCH   1   6
HETATM    6  N2  UNL     1      17.993  54.086 -65.550  1.00  0.00    -0.282 N 
HETATM    7  C3  UNL     1      19.331  54.018 -65.655  1.00  0.00     0.102 A 
HETATM    8  C2  UNL     1      20.077  55.043 -66.225  1.00  0.00     0.062 A 
HETATM    9  C1  UNL     1      19.433  56.167 -66.699  1.00  0.00     0.121 A 
HETATM   10  N1  UNL     1      20.172  57.236 -67.289  1.00  0.00    -0.083 NA
HETATM   11  N3  UNL     1      18.098  56.206 -66.581  1.00  0.00    -0.297 N 
HETATM   12  C9  UNL     1      17.398  55.192 -66.021  1.00  0.00     0.329 A 
ATOM     13  H3  UNL     1      17.595  57.025 -66.923  1.00  0.00     0.171 HD
HETATM   14  O7  UNL     1      16.151  55.260 -65.925  1.00  0.00    -0.246 OA
ENDBRANCH   1   6
BRANCH   3  15
HETATM   15  O1  UNL     1      17.688  49.672 -63.994  1.00  0.00    -0.393 OA
ATOM     16  H1  UNL     1      18.452  49.134 -63.824  1.00  0.00     0.210 HD
ENDBRANCH   3  15
BRANCH   4  17
HETATM   17  C8  UNL     1      16.750  51.562 -61.759  1.00  0.00     0.217 C 
BRANCH  17  18
HETATM   18  O2  UNL     1      15.405  51.537 -61.410  1.00  0.00    -0.280 OA
BRANCH  18  19
HETATM   19  P1  UNL     1      15.329  51.803 -59.798  1.00  0.00     0.422 P 
HETATM   20  O3  UNL     1      15.355  50.523 -58.735  1.00  0.00    -0.617 OA
HETATM   21  O4  UNL     1      14.996  53.325 -59.239  1.00  0.00    -0.617 OA
HETATM   22  O5  UNL     1      16.835  51.981 -59.675  1.00  0.00    -0.617 OA
ENDBRANCH  18  19
ENDBRANCH  17  18
ENDBRANCH   4  17
TORSDOF 5
ENDMDL
