MODEL 2
REMARK VINA RESULT: -7.812999425      3.191      3.887
REMARK  5 active torsions:
REMARK  status: ('A' for Active; 'I' for Inactive)
REMARK    1  A    between atoms: N2_5  and  C4_6 
REMARK    2  A    between atoms: C6_8  and  O1_9 
REMARK    3  A    between atoms: C7_11  and  C8_12 
REMARK    4  A    between atoms: C8_12  and  O2_13 
REMARK    5  A    between atoms: O2_13  and  P1_14 
ROOT
HETATM    1  C4  UNL     1      16.136  49.012 -54.245  1.00  0.00     0.235 C 
HETATM    2  C5  UNL     1      15.658  47.992 -55.263  1.00  0.00     0.088 C 
HETATM    3  C6  UNL     1      15.434  48.871 -56.495  1.00  0.00     0.153 C 
HETATM    4  C7  UNL     1      16.221  50.095 -56.100  1.00  0.00     0.177 C 
HETATM    5  O6  UNL     1      15.855  50.265 -54.787  1.00  0.00    -0.356 OA
ENDROOT
BRANCH   1   6
HETATM    6  N2  UNL     1      15.484  48.770 -53.002  1.00  0.00    -0.282 N 
HETATM    7  C3  UNL     1      14.159  48.969 -52.902  1.00  0.00     0.102 A 
HETATM    8  C2  UNL     1      13.470  48.750 -51.715  1.00  0.00     0.062 A 
HETATM    9  C1  UNL     1      14.159  48.315 -50.602  1.00  0.00     0.121 A 
HETATM   10  N1  UNL     1      13.479  48.081 -49.369  1.00  0.00    -0.083 NA
HETATM   11  N3  UNL     1      15.480  48.125 -50.732  1.00  0.00    -0.297 N 
HETATM   12  C9  UNL     1      16.124  48.347 -51.902  1.00  0.00     0.329 A 
ATOM     13  H3  UNL     1      16.015  47.804 -49.926  1.00  0.00     0.171 HD
HETATM   14  O7  UNL     1      17.359  48.160 -51.991  1.00  0.00    -0.246 OA
ENDBRANCH   1   6
BRANCH   3  15
HETATM   15  O1  UNL     1      15.882  48.274 -57.649  1.00  0.00    -0.393 OA
ATOM     16  H1  UNL     1      15.533  48.690 -58.427  1.00  0.00     0.210 HD
ENDBRANCH   3  15
BRANCH   4  17
HETATM   17  C8  UNL     1      15.977  51.271 -56.976  1.00  0.00     0.217 C 
BRANCH  17  18
HETATM   18  O2  UNL     1      16.514  51.018 -58.233  1.00  0.00    -0.280 OA
BRANCH  18  19
HETATM   19  P1  UNL     1      15.521  51.721 -59.325  1.00  0.00     0.422 P 
HETATM   20  O3  UNL     1      15.028  53.297 -59.114  1.00  0.00    -0.617 OA
HETATM   21  O4  UNL     1      14.828  50.796 -60.509  1.00  0.00    -0.617 OA
HETATM   22  O5  UNL     1      16.676  52.165 -60.210  1.00  0.00    -0.617 OA
ENDBRANCH  18  19
ENDBRANCH  17  18
ENDBRANCH   4  17
TORSDOF 5
ENDMDL
