MODEL 3
REMARK VINA RESULT: -7.657161720      3.099      3.888
REMARK  5 active torsions:
REMARK  status: ('A' for Active; 'I' for Inactive)
REMARK    1  A    between atoms: N2_5  and  C4_6 
REMARK    2  A    between atoms: C6_8  and  O1_9 
REMARK    3  A    between atoms: C7_11  and  C8_12 
REMARK    4  A    between atoms: C8_12  and  O2_13 
REMARK    5  A    between atoms: O2_13  and  P1_14 
ROOT
HETATM    1  C4  UNL     1      16.341  49.525 -54.299  1.00  0.00     0.235 C 
HETATM    2  C5  UNL     1      16.786  48.274 -55.034  1.00  0.00     0.088 C 
HETATM    3  C6  UNL     1      16.438  48.629 -56.481  1.00  0.00     0.153 C 
HETATM    4  C7  UNL     1      16.284  50.125 -56.363  1.00  0.00     0.177 C 
HETATM    5  O6  UNL     1      15.564  50.253 -55.200  1.00  0.00    -0.356 OA
ENDROOT
BRANCH   1   6
HETATM    6  N2  UNL     1      15.639  49.147 -53.119  1.00  0.00    -0.282 N 
HETATM    7  C3  UNL     1      14.509  48.428 -53.224  1.00  0.00     0.102 A 
HETATM    8  C2  UNL     1      13.783  48.032 -52.107  1.00  0.00     0.062 A 
HETATM    9  C1  UNL     1      14.229  48.382 -50.850  1.00  0.00     0.121 A 
HETATM   10  N1  UNL     1      13.504  47.990 -49.685  1.00  0.00    -0.083 NA
HETATM   11  N3  UNL     1      15.359  49.100 -50.776  1.00  0.00    -0.297 N 
HETATM   12  C9  UNL     1      16.044  49.472 -51.882  1.00  0.00     0.329 A 
ATOM     13  H3  UNL     1      15.712  49.374 -49.859  1.00  0.00     0.171 HD
HETATM   14  O7  UNL     1      17.097  50.143 -51.779  1.00  0.00    -0.246 OA
ENDBRANCH   1   6
BRANCH   3  15
HETATM   15  O1  UNL     1      17.418  48.242 -57.362  1.00  0.00    -0.393 OA
ATOM     16  H1  UNL     1      17.083  48.124 -58.243  1.00  0.00     0.210 HD
ENDBRANCH   3  15
BRANCH   4  17
HETATM   17  C8  UNL     1      15.665  50.758 -57.557  1.00  0.00     0.217 C 
BRANCH  17  18
HETATM   18  O2  UNL     1      16.640  50.936 -58.531  1.00  0.00    -0.280 OA
BRANCH  18  19
HETATM   19  P1  UNL     1      16.024  51.973 -59.635  1.00  0.00     0.422 P 
HETATM   20  O3  UNL     1      16.677  52.052 -61.164  1.00  0.00    -0.617 OA
HETATM   21  O4  UNL     1      14.907  53.098 -59.161  1.00  0.00    -0.617 OA
HETATM   22  O5  UNL     1      14.971  50.978 -60.100  1.00  0.00    -0.617 OA
ENDBRANCH  18  19
ENDBRANCH  17  18
ENDBRANCH   4  17
TORSDOF 5
ENDMDL
