MODEL 11
REMARK VINA RESULT: -6.933062122      6.537      8.719
REMARK  5 active torsions:
REMARK  status: ('A' for Active; 'I' for Inactive)
REMARK    1  A    between atoms: N2_5  and  C4_6 
REMARK    2  A    between atoms: C6_8  and  O1_9 
REMARK    3  A    between atoms: C7_11  and  C8_12 
REMARK    4  A    between atoms: C8_12  and  O2_13 
REMARK    5  A    between atoms: O2_13  and  P1_14 
ROOT
HETATM    1  C4  UNL     1      14.578  47.836 -52.160  1.00  0.00     0.235 C 
HETATM    2  C5  UNL     1      15.887  47.894 -51.393  1.00  0.00     0.088 C 
HETATM    3  C6  UNL     1      15.465  48.638 -50.125  1.00  0.00     0.153 C 
HETATM    4  C7  UNL     1      13.968  48.475 -50.201  1.00  0.00     0.177 C 
HETATM    5  O6  UNL     1      13.714  48.728 -51.527  1.00  0.00    -0.356 OA
ENDROOT
BRANCH   1   6
HETATM    6  N2  UNL     1      14.825  48.157 -53.526  1.00  0.00    -0.282 N 
HETATM    7  C3  UNL     1      15.960  48.792 -53.861  1.00  0.00     0.102 A 
HETATM    8  C2  UNL     1      16.253  49.130 -55.177  1.00  0.00     0.062 A 
HETATM    9  C1  UNL     1      15.358  48.807 -56.175  1.00  0.00     0.121 A 
HETATM   10  N1  UNL     1      15.632  49.141 -57.535  1.00  0.00    -0.083 NA
HETATM   11  N3  UNL     1      14.234  48.173 -55.811  1.00  0.00    -0.297 N 
HETATM   12  C9  UNL     1      13.976  47.857 -54.520  1.00  0.00     0.329 A 
ATOM     13  H3  UNL     1      13.554  47.922 -56.528  1.00  0.00     0.171 HD
HETATM   14  O7  UNL     1      12.915  47.265 -54.213  1.00  0.00    -0.246 OA
ENDBRANCH   1   6
BRANCH   3  15
HETATM   15  O1  UNL     1      16.024  48.096 -48.993  1.00  0.00    -0.393 OA
ATOM     16  H1  UNL     1      15.637  47.259 -48.767  1.00  0.00     0.210 HD
ENDBRANCH   3  15
BRANCH   4  17
HETATM   17  C8  UNL     1      13.223  49.335 -49.244  1.00  0.00     0.217 C 
BRANCH  17  18
HETATM   18  O2  UNL     1      12.889  48.582 -48.125  1.00  0.00    -0.280 OA
BRANCH  18  19
HETATM   19  P1  UNL     1      11.869  49.493 -47.227  1.00  0.00     0.422 P 
HETATM   20  O3  UNL     1      10.980  50.705 -47.942  1.00  0.00    -0.617 OA
HETATM   21  O4  UNL     1      11.895  49.359 -45.578  1.00  0.00    -0.617 OA
HETATM   22  O5  UNL     1      10.720  48.509 -47.388  1.00  0.00    -0.617 OA
ENDBRANCH  18  19
ENDBRANCH  17  18
ENDBRANCH   4  17
TORSDOF 5
ENDMDL
