MODEL 10
REMARK VINA RESULT: -7.052484310      5.790      7.031
REMARK  5 active torsions:
REMARK  status: ('A' for Active; 'I' for Inactive)
REMARK    1  A    between atoms: N2_5  and  C4_6 
REMARK    2  A    between atoms: C6_8  and  O1_9 
REMARK    3  A    between atoms: C7_11  and  C8_12 
REMARK    4  A    between atoms: C8_12  and  O2_13 
REMARK    5  A    between atoms: O2_13  and  P1_14 
ROOT
HETATM    1  C4  UNL     1      14.045  49.530 -51.422  1.00  0.00     0.235 C 
HETATM    2  C5  UNL     1      13.236  48.537 -52.237  1.00  0.00     0.088 C 
HETATM    3  C6  UNL     1      13.927  48.625 -53.599  1.00  0.00     0.153 C 
HETATM    4  C7  UNL     1      15.224  49.283 -53.202  1.00  0.00     0.177 C 
HETATM    5  O6  UNL     1      14.802  50.262 -52.336  1.00  0.00    -0.356 OA
ENDROOT
BRANCH   1   6
HETATM    6  N2  UNL     1      13.157  50.331 -50.648  1.00  0.00    -0.282 N 
HETATM    7  C3  UNL     1      12.724  51.502 -51.142  1.00  0.00     0.102 A 
HETATM    8  C2  UNL     1      11.858  52.325 -50.432  1.00  0.00     0.062 A 
HETATM    9  C1  UNL     1      11.425  51.934 -49.182  1.00  0.00     0.121 A 
HETATM   10  N1  UNL     1      10.535  52.758 -48.429  1.00  0.00    -0.083 NA
HETATM   11  N3  UNL     1      11.874  50.761 -48.714  1.00  0.00    -0.297 N 
HETATM   12  C9  UNL     1      12.718  49.981 -49.430  1.00  0.00     0.329 A 
ATOM     13  H3  UNL     1      11.570  50.447 -47.793  1.00  0.00     0.171 HD
HETATM   14  O7  UNL     1      13.119  48.889 -48.964  1.00  0.00    -0.246 OA
ENDBRANCH   1   6
BRANCH   3  15
HETATM   15  O1  UNL     1      14.088  47.390 -54.180  1.00  0.00    -0.393 OA
ATOM     16  H1  UNL     1      14.973  47.060 -54.082  1.00  0.00     0.210 HD
ENDBRANCH   3  15
BRANCH   4  17
HETATM   17  C8  UNL     1      16.025  49.769 -54.356  1.00  0.00     0.217 C 
BRANCH  17  18
HETATM   18  O2  UNL     1      16.850  48.742 -54.799  1.00  0.00    -0.280 OA
BRANCH  18  19
HETATM   19  P1  UNL     1      16.512  48.511 -56.382  1.00  0.00     0.422 P 
HETATM   20  O3  UNL     1      17.741  48.230 -57.468  1.00  0.00    -0.617 OA
HETATM   21  O4  UNL     1      14.976  48.784 -56.935  1.00  0.00    -0.617 OA
HETATM   22  O5  UNL     1      16.286  47.018 -56.199  1.00  0.00    -0.617 OA
ENDBRANCH  18  19
ENDBRANCH  17  18
ENDBRANCH   4  17
TORSDOF 5
ENDMDL
