MODEL 4
REMARK VINA RESULT: -9.633838928      6.239      8.327
REMARK  8 active torsions:
REMARK  status: ('A' for Active; 'I' for Inactive)
REMARK    1  A    between atoms: N5_13  and  C6_14 
REMARK    2  A    between atoms: C7_16  and  C8_17 
REMARK    3  A    between atoms: C8_17  and  O2_18 
REMARK    4  A    between atoms: O2_18  and  P1_19 
REMARK    5  A    between atoms: P1_19  and  O5_22 
REMARK    6  A    between atoms: O5_22  and  P2_23 
REMARK    7  A    between atoms: C9_27  and  O9_28 
REMARK    8  A    between atoms: C10_30  and  O10_31 
ROOT
HETATM    1  C6  UNL     1      36.325  58.199  18.300  1.00  0.00     0.262 C 
HETATM    2  O1  UNL     1      35.654  57.059  17.909  1.00  0.00    -0.353 OA
HETATM    3  C7  UNL     1      36.515  56.225  17.261  1.00  0.00     0.180 C 
HETATM    4  C9  UNL     1      37.916  56.692  17.574  1.00  0.00     0.182 C 
HETATM    5  C10 UNL     1      37.641  58.202  17.588  1.00  0.00     0.198 C 
ENDROOT
BRANCH   1   6
HETATM    6  N5  UNL     1      36.416  58.221  19.724  1.00  0.00    -0.297 N 
HETATM    7  C3  UNL     1      37.118  59.060  20.505  1.00  0.00     0.142 A 
HETATM    8  N3  UNL     1      37.914  60.090  20.226  1.00  0.00    -0.336 N 
HETATM    9  C4  UNL     1      36.921  58.723  21.815  1.00  0.00     0.119 A 
HETATM   10  C2  UNL     1      38.519  60.792  21.202  1.00  0.00     0.183 A 
ATOM     11  H3  UNL     1      38.068  60.353  19.253  1.00  0.00     0.168 HD
HETATM   12  N2  UNL     1      38.338  60.477  22.486  1.00  0.00    -0.339 N 
HETATM   13  C1  UNL     1      37.546  59.451  22.806  1.00  0.00     0.148 A 
ATOM     14  H2  UNL     1      38.801  61.016  23.217  1.00  0.00     0.167 HD
HETATM   15  N1  UNL     1      37.311  59.062  24.144  1.00  0.00    -0.080 NA
HETATM   16  N4  UNL     1      36.100  57.679  21.824  1.00  0.00    -0.346 N 
HETATM   17  C5  UNL     1      35.797  57.378  20.570  1.00  0.00     0.188 A 
ATOM     18  H4  UNL     1      35.761  57.193  22.654  1.00  0.00     0.167 HD
ENDBRANCH   1   6
BRANCH   5  19
HETATM   19  O10 UNL     1      37.397  58.559  16.256  1.00  0.00    -0.388 OA
ATOM     20  H10 UNL     1      38.225  58.517  15.793  1.00  0.00     0.210 HD
ENDBRANCH   5  19
BRANCH   3  21
HETATM   21  C8  UNL     1      36.313  54.766  17.526  1.00  0.00     0.216 C 
BRANCH  21  22
HETATM   22  O2  UNL     1      37.306  53.959  17.036  1.00  0.00    -0.287 OA
BRANCH  22  23
HETATM   23  P1  UNL     1      36.740  52.348  17.140  1.00  0.00     0.418 P 
HETATM   24  O3  UNL     1      37.556  51.508  16.193  1.00  0.00    -0.624 OA
HETATM   25  O4  UNL     1      35.130  52.242  16.662  1.00  0.00    -0.624 OA
BRANCH  23  26
HETATM   26  O5  UNL     1      36.952  51.805  18.706  1.00  0.00    -0.173 OA
BRANCH  26  27
HETATM   27  P2  UNL     1      36.320  50.282  18.982  1.00  0.00     0.431 P 
HETATM   28  O6  UNL     1      36.631  49.323  17.849  1.00  0.00    -0.616 OA
HETATM   29  O7  UNL     1      34.633  50.304  19.148  1.00  0.00    -0.616 OA
HETATM   30  O8  UNL     1      36.979  49.707  20.447  1.00  0.00    -0.616 OA
ENDBRANCH  26  27
ENDBRANCH  23  26
ENDBRANCH  22  23
ENDBRANCH  21  22
ENDBRANCH   3  21
BRANCH   4  31
HETATM   31  O9  UNL     1      38.840  56.345  16.617  1.00  0.00    -0.390 OA
ATOM     32  H9  UNL     1      39.560  56.960  16.542  1.00  0.00     0.210 HD
ENDBRANCH   4  31
TORSDOF 8
ENDMDL
