MODEL 6
REMARK VINA RESULT: -9.405667084      3.656      5.318
REMARK  8 active torsions:
REMARK  status: ('A' for Active; 'I' for Inactive)
REMARK    1  A    between atoms: N5_13  and  C6_14 
REMARK    2  A    between atoms: C7_16  and  C8_17 
REMARK    3  A    between atoms: C8_17  and  O2_18 
REMARK    4  A    between atoms: O2_18  and  P1_19 
REMARK    5  A    between atoms: P1_19  and  O5_22 
REMARK    6  A    between atoms: O5_22  and  P2_23 
REMARK    7  A    between atoms: C9_27  and  O9_28 
REMARK    8  A    between atoms: C10_30  and  O10_31 
ROOT
HETATM    1  C6  UNL     1      37.690  55.296  14.623  1.00  0.00     0.262 C 
HETATM    2  O1  UNL     1      37.255  54.005  14.839  1.00  0.00    -0.353 OA
HETATM    3  C7  UNL     1      38.279  53.136  14.601  1.00  0.00     0.180 C 
HETATM    4  C9  UNL     1      39.557  53.939  14.586  1.00  0.00     0.182 C 
HETATM    5  C10 UNL     1      39.006  55.206  13.918  1.00  0.00     0.198 C 
ENDROOT
BRANCH   1   6
HETATM    6  N5  UNL     1      37.725  55.990  15.869  1.00  0.00    -0.297 N 
HETATM    7  C3  UNL     1      36.740  56.146  16.769  1.00  0.00     0.142 A 
HETATM    8  N3  UNL     1      35.476  55.727  16.796  1.00  0.00    -0.336 N 
HETATM    9  C4  UNL     1      37.206  56.881  17.822  1.00  0.00     0.119 A 
HETATM   10  C2  UNL     1      34.664  56.016  17.830  1.00  0.00     0.183 A 
ATOM     11  H3  UNL     1      35.116  55.176  16.017  1.00  0.00     0.168 HD
HETATM   12  N2  UNL     1      35.103  56.733  18.866  1.00  0.00    -0.339 N 
HETATM   13  C1  UNL     1      36.364  57.170  18.876  1.00  0.00     0.148 A 
ATOM     14  H2  UNL     1      34.479  56.945  19.644  1.00  0.00     0.167 HD
HETATM   15  N1  UNL     1      36.894  57.935  19.940  1.00  0.00    -0.080 NA
HETATM   16  N4  UNL     1      38.475  57.171  17.557  1.00  0.00    -0.346 N 
HETATM   17  C5  UNL     1      38.786  56.636  16.385  1.00  0.00     0.188 A 
ATOM     18  H4  UNL     1      39.101  57.712  18.153  1.00  0.00     0.167 HD
ENDBRANCH   1   6
BRANCH   5  19
HETATM   19  O10 UNL     1      38.748  54.856  12.587  1.00  0.00    -0.388 OA
ATOM     20  H10 UNL     1      39.508  55.102  12.074  1.00  0.00     0.210 HD
ENDBRANCH   5  19
BRANCH   3  21
HETATM   21  C8  UNL     1      38.340  51.956  15.518  1.00  0.00     0.216 C 
BRANCH  21  22
HETATM   22  O2  UNL     1      37.181  51.716  16.210  1.00  0.00    -0.287 OA
BRANCH  22  23
HETATM   23  P1  UNL     1      37.401  52.342  17.787  1.00  0.00     0.418 P 
HETATM   24  O3  UNL     1      36.136  53.055  18.184  1.00  0.00    -0.624 OA
HETATM   25  O4  UNL     1      38.655  53.464  17.823  1.00  0.00    -0.624 OA
BRANCH  23  26
HETATM   26  O5  UNL     1      37.687  51.070  18.834  1.00  0.00    -0.173 OA
BRANCH  26  27
HETATM   27  P2  UNL     1      36.411  49.996  18.953  1.00  0.00     0.431 P 
HETATM   28  O6  UNL     1      36.573  48.813  18.019  1.00  0.00    -0.616 OA
HETATM   29  O7  UNL     1      34.925  50.716  18.567  1.00  0.00    -0.616 OA
HETATM   30  O8  UNL     1      36.328  49.470  20.574  1.00  0.00    -0.616 OA
ENDBRANCH  26  27
ENDBRANCH  23  26
ENDBRANCH  22  23
ENDBRANCH  21  22
ENDBRANCH   3  21
BRANCH   4  31
HETATM   31  O9  UNL     1      40.562  53.362  13.847  1.00  0.00    -0.390 OA
ATOM     32  H9  UNL     1      41.250  53.968  13.601  1.00  0.00     0.210 HD
ENDBRANCH   4  31
TORSDOF 8
ENDMDL
