MODEL 17
REMARK VINA RESULT: -8.533868090      1.307      1.756
REMARK  8 active torsions:
REMARK  status: ('A' for Active; 'I' for Inactive)
REMARK    1  A    between atoms: N5_13  and  C6_14 
REMARK    2  A    between atoms: C7_16  and  C8_17 
REMARK    3  A    between atoms: C8_17  and  O2_18 
REMARK    4  A    between atoms: O2_18  and  P1_19 
REMARK    5  A    between atoms: P1_19  and  O5_22 
REMARK    6  A    between atoms: O5_22  and  P2_23 
REMARK    7  A    between atoms: C9_27  and  O9_28 
REMARK    8  A    between atoms: C10_30  and  O10_31 
ROOT
HETATM    1  C6  UNL     1      39.808  54.682  12.423  1.00  0.00     0.262 C 
HETATM    2  O1  UNL     1      40.052  54.047  13.623  1.00  0.00    -0.353 OA
HETATM    3  C7  UNL     1      39.354  54.670  14.616  1.00  0.00     0.180 C 
HETATM    4  C9  UNL     1      38.308  55.535  13.956  1.00  0.00     0.182 C 
HETATM    5  C10 UNL     1      39.131  55.978  12.739  1.00  0.00     0.198 C 
ENDROOT
BRANCH   1   6
HETATM    6  N5  UNL     1      39.061  53.809  11.578  1.00  0.00    -0.297 N 
HETATM    7  C3  UNL     1      38.707  52.530  11.797  1.00  0.00     0.142 A 
HETATM    8  N3  UNL     1      38.924  51.703  12.817  1.00  0.00    -0.336 N 
HETATM    9  C4  UNL     1      37.996  52.072  10.724  1.00  0.00     0.119 A 
HETATM   10  C2  UNL     1      38.460  50.440  12.806  1.00  0.00     0.183 A 
ATOM     11  H3  UNL     1      39.453  52.033  13.624  1.00  0.00     0.168 HD
HETATM   12  N2  UNL     1      37.763  49.975  11.766  1.00  0.00    -0.339 N 
HETATM   13  C1  UNL     1      37.524  50.775  10.724  1.00  0.00     0.148 A 
ATOM     14  H2  UNL     1      37.415  49.017  11.769  1.00  0.00     0.167 HD
HETATM   15  N1  UNL     1      36.795  50.349   9.592  1.00  0.00    -0.080 NA
HETATM   16  N4  UNL     1      37.919  53.074   9.856  1.00  0.00    -0.346 N 
HETATM   17  C5  UNL     1      38.559  54.116  10.368  1.00  0.00     0.188 A 
ATOM     18  H4  UNL     1      37.450  53.046   8.951  1.00  0.00     0.167 HD
ENDBRANCH   1   6
BRANCH   5  19
HETATM   19  O10 UNL     1      40.107  56.852  13.234  1.00  0.00    -0.388 OA
ATOM     20  H10 UNL     1      40.945  56.568  12.891  1.00  0.00     0.210 HD
ENDBRANCH   5  19
BRANCH   3  21
HETATM   21  C8  UNL     1      38.789  53.765  15.664  1.00  0.00     0.216 C 
BRANCH  21  22
HETATM   22  O2  UNL     1      37.524  53.311  15.397  1.00  0.00    -0.287 OA
BRANCH  22  23
HETATM   23  P1  UNL     1      36.872  52.747  16.875  1.00  0.00     0.418 P 
HETATM   24  O3  UNL     1      35.380  52.942  16.828  1.00  0.00    -0.624 OA
HETATM   25  O4  UNL     1      37.465  53.634  18.176  1.00  0.00    -0.624 OA
BRANCH  23  26
HETATM   26  O5  UNL     1      37.225  51.120  17.031  1.00  0.00    -0.173 OA
BRANCH  26  27
HETATM   27  P2  UNL     1      36.467  50.388  18.328  1.00  0.00     0.431 P 
HETATM   28  O6  UNL     1      35.052  50.899  18.523  1.00  0.00    -0.616 OA
HETATM   29  O7  UNL     1      37.284  50.657  19.789  1.00  0.00    -0.616 OA
HETATM   30  O8  UNL     1      36.459  48.706  18.039  1.00  0.00    -0.616 OA
ENDBRANCH  26  27
ENDBRANCH  23  26
ENDBRANCH  22  23
ENDBRANCH  21  22
ENDBRANCH   3  21
BRANCH   4  31
HETATM   31  O9  UNL     1      37.911  56.603  14.726  1.00  0.00    -0.390 OA
ATOM     32  H9  UNL     1      37.616  56.357  15.595  1.00  0.00     0.210 HD
ENDBRANCH   4  31
TORSDOF 8
ENDMDL
