MODEL 5
REMARK VINA RESULT: -9.549991952      6.300      8.009
REMARK  8 active torsions:
REMARK  status: ('A' for Active; 'I' for Inactive)
REMARK    1  A    between atoms: N5_13  and  C6_14 
REMARK    2  A    between atoms: C7_16  and  C8_17 
REMARK    3  A    between atoms: C8_17  and  O2_18 
REMARK    4  A    between atoms: O2_18  and  P1_19 
REMARK    5  A    between atoms: P1_19  and  O5_22 
REMARK    6  A    between atoms: O5_22  and  P2_23 
REMARK    7  A    between atoms: C9_27  and  O9_28 
REMARK    8  A    between atoms: C10_30  and  O10_31 
ROOT
HETATM    1  C6  UNL     1      35.968  58.164  18.205  1.00  0.00     0.262 C 
HETATM    2  O1  UNL     1      35.488  56.948  17.766  1.00  0.00    -0.353 OA
HETATM    3  C7  UNL     1      36.530  56.170  17.356  1.00  0.00     0.180 C 
HETATM    4  C9  UNL     1      37.794  56.783  17.907  1.00  0.00     0.182 C 
HETATM    5  C10 UNL     1      37.396  58.259  17.767  1.00  0.00     0.198 C 
ENDROOT
BRANCH   1   6
HETATM    6  N5  UNL     1      35.769  58.263  19.614  1.00  0.00    -0.297 N 
HETATM    7  C3  UNL     1      34.917  57.571  20.390  1.00  0.00     0.142 A 
HETATM    8  N3  UNL     1      34.028  56.618  20.116  1.00  0.00    -0.336 N 
HETATM    9  C4  UNL     1      35.053  57.983  21.685  1.00  0.00     0.119 A 
HETATM   10  C2  UNL     1      33.274  56.065  21.083  1.00  0.00     0.183 A 
ATOM     11  H3  UNL     1      33.917  56.300  19.153  1.00  0.00     0.168 HD
HETATM   12  N2  UNL     1      33.394  56.456  22.354  1.00  0.00    -0.339 N 
HETATM   13  C1  UNL     1      34.274  57.408  22.668  1.00  0.00     0.148 A 
ATOM     14  H2  UNL     1      32.817  56.029  23.079  1.00  0.00     0.167 HD
HETATM   15  N1  UNL     1      34.453  57.871  23.991  1.00  0.00    -0.080 NA
HETATM   16  N4  UNL     1      35.988  58.926  21.692  1.00  0.00    -0.346 N 
HETATM   17  C5  UNL     1      36.418  59.094  20.450  1.00  0.00     0.188 A 
ATOM     18  H4  UNL     1      36.319  59.434  22.512  1.00  0.00     0.167 HD
ENDBRANCH   1   6
BRANCH   5  19
HETATM   19  O10 UNL     1      37.397  58.527  16.392  1.00  0.00    -0.388 OA
ATOM     20  H10 UNL     1      37.568  57.709  15.942  1.00  0.00     0.210 HD
ENDBRANCH   5  19
BRANCH   3  21
HETATM   21  C8  UNL     1      36.401  54.713  17.671  1.00  0.00     0.216 C 
BRANCH  21  22
HETATM   22  O2  UNL     1      37.324  53.916  17.046  1.00  0.00    -0.287 OA
BRANCH  22  23
HETATM   23  P1  UNL     1      36.749  52.308  17.148  1.00  0.00     0.418 P 
HETATM   24  O3  UNL     1      37.540  51.469  16.180  1.00  0.00    -0.624 OA
HETATM   25  O4  UNL     1      35.129  52.216  16.701  1.00  0.00    -0.624 OA
BRANCH  23  26
HETATM   26  O5  UNL     1      36.988  51.751  18.706  1.00  0.00    -0.173 OA
BRANCH  26  27
HETATM   27  P2  UNL     1      36.322  50.244  18.991  1.00  0.00     0.431 P 
HETATM   28  O6  UNL     1      36.613  49.270  17.865  1.00  0.00    -0.616 OA
HETATM   29  O7  UNL     1      34.636  50.304  19.156  1.00  0.00    -0.616 OA
HETATM   30  O8  UNL     1      36.968  49.665  20.462  1.00  0.00    -0.616 OA
ENDBRANCH  26  27
ENDBRANCH  23  26
ENDBRANCH  22  23
ENDBRANCH  21  22
ENDBRANCH   3  21
BRANCH   4  31
HETATM   31  O9  UNL     1      38.917  56.481  17.174  1.00  0.00    -0.390 OA
ATOM     32  H9  UNL     1      39.713  56.450  17.693  1.00  0.00     0.210 HD
ENDBRANCH   4  31
TORSDOF 8
ENDMDL
