MODEL 3
REMARK VINA RESULT: -9.694674256      1.260      2.139
REMARK  8 active torsions:
REMARK  status: ('A' for Active; 'I' for Inactive)
REMARK    1  A    between atoms: N5_13  and  C6_14 
REMARK    2  A    between atoms: C7_16  and  C8_17 
REMARK    3  A    between atoms: C8_17  and  O2_18 
REMARK    4  A    between atoms: O2_18  and  P1_19 
REMARK    5  A    between atoms: P1_19  and  O5_22 
REMARK    6  A    between atoms: O5_22  and  P2_23 
REMARK    7  A    between atoms: C9_27  and  O9_28 
REMARK    8  A    between atoms: C10_30  and  O10_31 
ROOT
HETATM    1  C6  UNL     1      39.774  53.983  13.342  1.00  0.00     0.262 C 
HETATM    2  O1  UNL     1      40.001  53.802  14.691  1.00  0.00    -0.353 OA
HETATM    3  C7  UNL     1      39.256  54.696  15.401  1.00  0.00     0.180 C 
HETATM    4  C9  UNL     1      38.204  55.246  14.469  1.00  0.00     0.182 C 
HETATM    5  C10 UNL     1      39.049  55.283  13.188  1.00  0.00     0.198 C 
ENDROOT
BRANCH   1   6
HETATM    6  N5  UNL     1      39.079  52.848  12.829  1.00  0.00    -0.297 N 
HETATM    7  C3  UNL     1      38.523  52.683  11.617  1.00  0.00     0.142 A 
HETATM    8  N3  UNL     1      38.442  53.480  10.553  1.00  0.00    -0.336 N 
HETATM    9  C4  UNL     1      37.960  51.440  11.547  1.00  0.00     0.119 A 
HETATM   10  C2  UNL     1      37.820  53.083   9.427  1.00  0.00     0.183 A 
ATOM     11  H3  UNL     1      38.860  54.409  10.592  1.00  0.00     0.168 HD
HETATM   12  N2  UNL     1      37.264  51.873   9.341  1.00  0.00    -0.339 N 
HETATM   13  C1  UNL     1      37.325  51.045  10.387  1.00  0.00     0.148 A 
ATOM     14  H2  UNL     1      36.796  51.583   8.483  1.00  0.00     0.167 HD
HETATM   15  N1  UNL     1      36.758  49.752  10.366  1.00  0.00    -0.080 NA
HETATM   16  N4  UNL     1      38.175  50.854  12.719  1.00  0.00    -0.346 N 
HETATM   17  C5  UNL     1      38.846  51.698  13.488  1.00  0.00     0.188 A 
ATOM     18  H4  UNL     1      37.874  49.915  12.981  1.00  0.00     0.167 HD
ENDBRANCH   1   6
BRANCH   5  19
HETATM   19  O10 UNL     1      39.982  56.310  13.376  1.00  0.00    -0.388 OA
ATOM     20  H10 UNL     1      39.551  57.130  13.163  1.00  0.00     0.210 HD
ENDBRANCH   5  19
BRANCH   3  21
HETATM   21  C8  UNL     1      38.688  54.177  16.684  1.00  0.00     0.216 C 
BRANCH  21  22
HETATM   22  O2  UNL     1      38.673  52.810  16.784  1.00  0.00    -0.287 OA
BRANCH  22  23
HETATM   23  P1  UNL     1      37.187  52.377  17.513  1.00  0.00     0.418 P 
HETATM   24  O3  UNL     1      36.331  51.717  16.464  1.00  0.00    -0.624 OA
HETATM   25  O4  UNL     1      36.365  53.737  18.065  1.00  0.00    -0.624 OA
BRANCH  23  26
HETATM   26  O5  UNL     1      37.492  51.299  18.754  1.00  0.00    -0.173 OA
BRANCH  26  27
HETATM   27  P2  UNL     1      36.280  50.170  18.978  1.00  0.00     0.431 P 
HETATM   28  O6  UNL     1      34.905  50.749  18.705  1.00  0.00    -0.616 OA
HETATM   29  O7  UNL     1      36.245  49.567  20.562  1.00  0.00    -0.616 OA
HETATM   30  O8  UNL     1      36.594  48.860  17.930  1.00  0.00    -0.616 OA
ENDBRANCH  26  27
ENDBRANCH  23  26
ENDBRANCH  22  23
ENDBRANCH  21  22
ENDBRANCH   3  21
BRANCH   4  31
HETATM   31  O9  UNL     1      37.751  56.494  14.825  1.00  0.00    -0.390 OA
ATOM     32  H9  UNL     1      37.179  56.890  14.178  1.00  0.00     0.210 HD
ENDBRANCH   4  31
TORSDOF 8
ENDMDL
