MODEL 2
REMARK VINA RESULT: -10.234044372      1.166      1.990
REMARK  8 active torsions:
REMARK  status: ('A' for Active; 'I' for Inactive)
REMARK    1  A    between atoms: N5_13  and  C6_14 
REMARK    2  A    between atoms: C7_16  and  C8_17 
REMARK    3  A    between atoms: C8_17  and  O2_18 
REMARK    4  A    between atoms: O2_18  and  P1_19 
REMARK    5  A    between atoms: P1_19  and  O5_22 
REMARK    6  A    between atoms: O5_22  and  P2_23 
REMARK    7  A    between atoms: C9_27  and  O9_28 
REMARK    8  A    between atoms: C10_30  and  O10_31 
ROOT
HETATM    1  C6  UNL     1      39.862  53.830  13.774  1.00  0.00     0.262 C 
HETATM    2  O1  UNL     1      39.920  53.575  15.128  1.00  0.00    -0.353 OA
HETATM    3  C7  UNL     1      39.153  54.484  15.795  1.00  0.00     0.180 C 
HETATM    4  C9  UNL     1      38.251  55.143  14.780  1.00  0.00     0.182 C 
HETATM    5  C10 UNL     1      39.240  55.181  13.606  1.00  0.00     0.198 C 
ENDROOT
BRANCH   1   6
HETATM    6  N5  UNL     1      39.165  52.767  13.128  1.00  0.00    -0.297 N 
HETATM    7  C3  UNL     1      38.667  52.727  11.881  1.00  0.00     0.142 A 
HETATM    8  N3  UNL     1      38.661  53.617  10.890  1.00  0.00    -0.336 N 
HETATM    9  C4  UNL     1      38.074  51.514  11.672  1.00  0.00     0.119 A 
HETATM   10  C2  UNL     1      38.086  53.341   9.705  1.00  0.00     0.183 A 
ATOM     11  H3  UNL     1      39.101  54.526  11.032  1.00  0.00     0.168 HD
HETATM   12  N2  UNL     1      37.503  52.161   9.484  1.00  0.00    -0.339 N 
HETATM   13  C1  UNL     1      37.489  51.243  10.453  1.00  0.00     0.148 A 
ATOM     14  H2  UNL     1      37.072  51.962   8.581  1.00  0.00     0.167 HD
HETATM   15  N1  UNL     1      36.889  49.974  10.288  1.00  0.00    -0.080 NA
HETATM   16  N4  UNL     1      38.214  50.819  12.796  1.00  0.00    -0.346 N 
HETATM   17  C5  UNL     1      38.868  51.571  13.669  1.00  0.00     0.188 A 
ATOM     18  H4  UNL     1      37.876  49.871  12.958  1.00  0.00     0.167 HD
ENDBRANCH   1   6
BRANCH   5  19
HETATM   19  O10 UNL     1      40.206  56.135  13.950  1.00  0.00    -0.388 OA
ATOM     20  H10 UNL     1      40.566  56.480  13.142  1.00  0.00     0.210 HD
ENDBRANCH   5  19
BRANCH   3  21
HETATM   21  C8  UNL     1      38.410  53.947  16.977  1.00  0.00     0.216 C 
BRANCH  21  22
HETATM   22  O2  UNL     1      37.050  53.889  16.811  1.00  0.00    -0.287 OA
BRANCH  22  23
HETATM   23  P1  UNL     1      36.590  52.254  17.016  1.00  0.00     0.418 P 
HETATM   24  O3  UNL     1      37.400  51.421  16.057  1.00  0.00    -0.624 OA
HETATM   25  O4  UNL     1      34.965  52.032  16.642  1.00  0.00    -0.624 OA
BRANCH  23  26
HETATM   26  O5  UNL     1      36.927  51.795  18.588  1.00  0.00    -0.173 OA
BRANCH  26  27
HETATM   27  P2  UNL     1      36.312  50.295  18.997  1.00  0.00     0.431 P 
HETATM   28  O6  UNL     1      36.545  49.267  17.906  1.00  0.00    -0.616 OA
HETATM   29  O7  UNL     1      34.640  50.337  19.274  1.00  0.00    -0.616 OA
HETATM   30  O8  UNL     1      37.068  49.806  20.447  1.00  0.00    -0.616 OA
ENDBRANCH  26  27
ENDBRANCH  23  26
ENDBRANCH  22  23
ENDBRANCH  21  22
ENDBRANCH   3  21
BRANCH   4  31
HETATM   31  O9  UNL     1      37.837  56.401  15.145  1.00  0.00    -0.390 OA
ATOM     32  H9  UNL     1      37.016  56.663  14.746  1.00  0.00     0.210 HD
ENDBRANCH   4  31
TORSDOF 8
ENDMDL
