MODEL 3
REMARK VINA RESULT: -6.678700602      2.986      6.782
REMARK  15 active torsions:
REMARK  status: ('A' for Active; 'I' for Inactive)
REMARK    1  A    between atoms: N1_2  and  C2_5 
REMARK    2  A    between atoms: C3_6  and  O1_7 
REMARK    3  A    between atoms: C4_9  and  O2_10 
REMARK    4  A    between atoms: O2_10  and  C5_11 
REMARK    5  A    between atoms: C6_12  and  O3_13 
REMARK    6  A    between atoms: C7_15  and  O4_16 
REMARK    7  A    between atoms: O4_16  and  C8_17 
REMARK    8  A    between atoms: C9_19  and  C10_20 
REMARK    9  A    between atoms: C10_20  and  O6_22 
REMARK   10  A    between atoms: C12_24  and  O7_25 
REMARK   11  A    between atoms: C13_27  and  O8_28 
REMARK   12  A    between atoms: C14_30  and  N2_31 
REMARK   13  A    between atoms: C15_35  and  N3_36 
REMARK   14  A    between atoms: C17_41  and  N4_42 
REMARK   15  A    between atoms: C19_48  and  O10_50 
ROOT
HETATM    1  C5  UNL     1      73.807  87.859 115.421  1.00  0.00     0.186 C 
HETATM    2  C6  UNL     1      73.067  86.568 115.257  1.00  0.00     0.180 C 
HETATM    3  C7  UNL     1      72.915  86.110 113.843  1.00  0.00     0.186 C 
HETATM    4  C15 UNL     1      73.558  87.146 112.914  1.00  0.00     0.217 C 
HETATM    5  C16 UNL     1      72.851  88.457 113.181  1.00  0.00     0.071 C 
HETATM    6  C17 UNL     1      73.338  88.959 114.523  1.00  0.00     0.217 C 
ENDROOT
BRANCH   3   7
HETATM    7  O4  UNL     1      73.541  84.922 113.638  1.00  0.00    -0.349 OA
BRANCH   7   8
HETATM    8  C8  UNL     1      72.744  83.883 113.207  1.00  0.00     0.294 C 
HETATM    9  O5  UNL     1      72.407  83.942 111.887  1.00  0.00    -0.349 OA
HETATM   10  C9  UNL     1      73.079  83.107 111.041  1.00  0.00     0.184 C 
HETATM   11  C12 UNL     1      72.892  81.644 111.382  1.00  0.00     0.180 C 
HETATM   12  C13 UNL     1      72.377  81.515 112.828  1.00  0.00     0.184 C 
HETATM   13  C14 UNL     1      73.206  82.531 113.591  1.00  0.00     0.269 C 
BRANCH  10  14
HETATM   14  C10 UNL     1      72.707  83.293 109.590  1.00  0.00     0.145 C 
HETATM   15  C11 UNL     1      71.537  82.457 109.176  1.00  0.00     0.042 C 
BRANCH  14  16
HETATM   16  O6  UNL     1      72.351  84.639 109.435  1.00  0.00    -0.393 OA
ATOM     17  H6  UNL     1      71.434  84.651 109.186  1.00  0.00     0.210 HD
ENDBRANCH  14  16
ENDBRANCH  10  14
BRANCH  11  18
HETATM   18  O7  UNL     1      74.089  80.982 111.255  1.00  0.00    -0.390 OA
ATOM     19  H7  UNL     1      74.114  80.522 110.424  1.00  0.00     0.210 HD
ENDBRANCH  11  18
BRANCH  12  20
HETATM   20  O8  UNL     1      71.030  81.840 112.872  1.00  0.00    -0.391 OA
ATOM     21  H8  UNL     1      70.931  82.765 113.066  1.00  0.00     0.210 HD
ENDBRANCH  12  20
BRANCH  13  22
HETATM   22  N2  UNL     1      74.587  82.262 113.174  1.00  0.00    -0.068 N 
ATOM     23  H23 UNL     1      74.706  82.430 112.176  1.00  0.00     0.275 HD
ATOM     24  H22 UNL     1      75.223  82.971 113.539  1.00  0.00     0.275 HD
ATOM     25  H21 UNL     1      74.901  81.325 113.427  1.00  0.00     0.275 HD
ENDBRANCH  13  22
ENDBRANCH   7   8
ENDBRANCH   3   7
BRANCH   2  26
HETATM   26  O3  UNL     1      71.818  86.635 115.917  1.00  0.00    -0.390 OA
ATOM     27  H3  UNL     1      71.523  85.763 116.148  1.00  0.00     0.210 HD
ENDBRANCH   2  26
BRANCH   4  28
HETATM   28  N3  UNL     1      73.292  86.804 111.524  1.00  0.00    -0.072 N 
ATOM     29  H33 UNL     1      74.148  86.761 110.971  1.00  0.00     0.274 HD
ATOM     30  H32 UNL     1      72.997  85.833 111.420  1.00  0.00     0.274 HD
ATOM     31  H31 UNL     1      72.613  87.454 111.128  1.00  0.00     0.274 HD
ENDBRANCH   4  28
BRANCH   1  32
HETATM   32  O2  UNL     1      75.185  87.653 115.368  1.00  0.00    -0.349 OA
BRANCH  32  33
HETATM   33  C4  UNL     1      75.601  86.560 116.085  1.00  0.00     0.291 C 
HETATM   34  C3  UNL     1      75.902  86.929 117.514  1.00  0.00     0.207 C 
HETATM   35  C2  UNL     1      76.870  85.952 118.137  1.00  0.00     0.254 C 
HETATM   36  C19 UNL     1      76.638  84.567 117.557  1.00  0.00     0.106 C 
HETATM   37  C18 UNL     1      76.797  84.632 116.062  1.00  0.00     0.210 C 
HETATM   38  C20 UNL     1      77.687  83.651 118.151  1.00  0.00     0.050 C 
HETATM   39  O9  UNL     1      76.731  85.936 115.570  1.00  0.00    -0.356 OA
BRANCH  34  40
HETATM   40  O1  UNL     1      76.475  88.215 117.550  1.00  0.00    -0.388 OA
ATOM     41  H1  UNL     1      76.897  88.383 116.716  1.00  0.00     0.210 HD
ENDBRANCH  34  40
BRANCH  35  42
HETATM   42  N1  UNL     1      76.652  85.843 119.585  1.00  0.00    -0.069 N 
HETATM   43  C1  UNL     1      77.659  86.603 120.306  1.00  0.00     0.267 C 
ATOM     44  H12 UNL     1      76.616  84.871 119.892  1.00  0.00     0.277 HD
ATOM     45  H11 UNL     1      75.706  86.119 119.848  1.00  0.00     0.277 HD
ENDBRANCH  35  42
BRANCH  36  46
HETATM   46  O10 UNL     1      75.391  84.090 117.934  1.00  0.00    -0.386 OA
ATOM     47  H10 UNL     1      74.728  84.378 117.318  1.00  0.00     0.210 HD
ENDBRANCH  36  46
ENDBRANCH  32  33
ENDBRANCH   1  32
BRANCH   6  48
HETATM   48  N4  UNL     1      72.356  89.816 115.162  1.00  0.00    -0.072 N 
ATOM     49  H43 UNL     1      72.009  89.398 116.025  1.00  0.00     0.274 HD
ATOM     50  H42 UNL     1      72.794  90.652 115.550  1.00  0.00     0.274 HD
ATOM     51  H41 UNL     1      71.587  90.060 114.538  1.00  0.00     0.274 HD
ENDBRANCH   6  48
TORSDOF 15
ENDMDL
