MODEL 2
REMARK VINA RESULT: -6.798515030      0.928      1.637
REMARK  15 active torsions:
REMARK  status: ('A' for Active; 'I' for Inactive)
REMARK    1  A    between atoms: N1_2  and  C2_5 
REMARK    2  A    between atoms: C3_6  and  O1_7 
REMARK    3  A    between atoms: C4_9  and  O2_10 
REMARK    4  A    between atoms: O2_10  and  C5_11 
REMARK    5  A    between atoms: C6_12  and  O3_13 
REMARK    6  A    between atoms: C7_15  and  O4_16 
REMARK    7  A    between atoms: O4_16  and  C8_17 
REMARK    8  A    between atoms: C9_19  and  C10_20 
REMARK    9  A    between atoms: C10_20  and  O6_22 
REMARK   10  A    between atoms: C12_24  and  O7_25 
REMARK   11  A    between atoms: C13_27  and  O8_28 
REMARK   12  A    between atoms: C14_30  and  N2_31 
REMARK   13  A    between atoms: C15_35  and  N3_36 
REMARK   14  A    between atoms: C17_41  and  N4_42 
REMARK   15  A    between atoms: C19_48  and  O10_50 
ROOT
HETATM    1  C5  UNL     1      74.326  82.989 111.736  1.00  0.00     0.186 C 
HETATM    2  C6  UNL     1      74.663  83.916 112.864  1.00  0.00     0.180 C 
HETATM    3  C7  UNL     1      73.897  85.198 112.868  1.00  0.00     0.186 C 
HETATM    4  C15 UNL     1      72.964  85.223 111.653  1.00  0.00     0.217 C 
HETATM    5  C16 UNL     1      73.847  85.077 110.433  1.00  0.00     0.071 C 
HETATM    6  C17 UNL     1      74.308  83.636 110.389  1.00  0.00     0.217 C 
ENDROOT
BRANCH   3   7
HETATM    7  O4  UNL     1      73.130  85.312 113.983  1.00  0.00    -0.349 OA
BRANCH   7   8
HETATM    8  C8  UNL     1      73.595  86.176 114.952  1.00  0.00     0.294 C 
HETATM    9  O5  UNL     1      74.479  87.110 114.498  1.00  0.00    -0.349 OA
HETATM   10  C9  UNL     1      74.001  88.375 114.317  1.00  0.00     0.184 C 
HETATM   11  C12 UNL     1      73.468  88.995 115.591  1.00  0.00     0.180 C 
HETATM   12  C13 UNL     1      73.197  87.887 116.626  1.00  0.00     0.184 C 
HETATM   13  C14 UNL     1      72.552  86.786 115.807  1.00  0.00     0.269 C 
BRANCH  10  14
HETATM   14  C10 UNL     1      75.019  89.326 113.735  1.00  0.00     0.145 C 
HETATM   15  C11 UNL     1      75.600  88.839 112.445  1.00  0.00     0.042 C 
BRANCH  14  16
HETATM   16  O6  UNL     1      74.346  90.527 113.476  1.00  0.00    -0.393 OA
ATOM     17  H6  UNL     1      74.954  91.085 113.007  1.00  0.00     0.210 HD
ENDBRANCH  14  16
ENDBRANCH  10  14
BRANCH  11  18
HETATM   18  O7  UNL     1      72.304  89.674 115.324  1.00  0.00    -0.390 OA
ATOM     19  H7  UNL     1      71.747  89.671 116.094  1.00  0.00     0.210 HD
ENDBRANCH  11  18
BRANCH  12  20
HETATM   20  O8  UNL     1      74.398  87.460 117.174  1.00  0.00    -0.391 OA
ATOM     21  H8  UNL     1      74.225  86.859 117.890  1.00  0.00     0.210 HD
ENDBRANCH  12  20
BRANCH  13  22
HETATM   22  N2  UNL     1      71.510  87.470 115.032  1.00  0.00    -0.068 N 
ATOM     23  H23 UNL     1      70.980  88.113 115.621  1.00  0.00     0.275 HD
ATOM     24  H22 UNL     1      71.919  88.141 114.382  1.00  0.00     0.275 HD
ATOM     25  H21 UNL     1      70.888  86.823 114.547  1.00  0.00     0.275 HD
ENDBRANCH  13  22
ENDBRANCH   7   8
ENDBRANCH   3   7
BRANCH   2  26
HETATM   26  O3  UNL     1      76.058  84.145 112.905  1.00  0.00    -0.390 OA
ATOM     27  H3  UNL     1      76.527  83.323 112.830  1.00  0.00     0.210 HD
ENDBRANCH   2  26
BRANCH   4  28
HETATM   28  N3  UNL     1      72.318  86.524 111.545  1.00  0.00    -0.072 N 
ATOM     29  H33 UNL     1      71.349  86.444 111.236  1.00  0.00     0.274 HD
ATOM     30  H32 UNL     1      72.149  86.943 112.460  1.00  0.00     0.274 HD
ATOM     31  H31 UNL     1      72.864  87.137 110.940  1.00  0.00     0.274 HD
ENDBRANCH   4  28
BRANCH   1  32
HETATM   32  O2  UNL     1      73.168  82.266 112.017  1.00  0.00    -0.349 OA
BRANCH  32  33
HETATM   33  C4  UNL     1      73.091  81.843 113.320  1.00  0.00     0.291 C 
HETATM   34  C3  UNL     1      73.166  80.341 113.411  1.00  0.00     0.207 C 
HETATM   35  C2  UNL     1      72.524  79.838 114.681  1.00  0.00     0.254 C 
HETATM   36  C19 UNL     1      72.732  80.854 115.792  1.00  0.00     0.106 C 
HETATM   37  C18 UNL     1      72.152  82.174 115.358  1.00  0.00     0.210 C 
HETATM   38  C20 UNL     1      71.997  80.340 117.012  1.00  0.00     0.050 C 
HETATM   39  O9  UNL     1      71.936  82.242 113.982  1.00  0.00    -0.356 OA
BRANCH  34  40
HETATM   40  O1  UNL     1      72.492  79.776 112.311  1.00  0.00    -0.388 OA
ATOM     41  H1  UNL     1      73.052  79.837 111.546  1.00  0.00     0.210 HD
ENDBRANCH  34  40
BRANCH  35  42
HETATM   42  N1  UNL     1      73.152  78.590 115.131  1.00  0.00    -0.069 N 
HETATM   43  C1  UNL     1      72.309  77.453 114.801  1.00  0.00     0.267 C 
ATOM     44  H12 UNL     1      73.382  78.617 116.125  1.00  0.00     0.277 HD
ATOM     45  H11 UNL     1      74.096  78.484 114.760  1.00  0.00     0.277 HD
ENDBRANCH  35  42
BRANCH  36  46
HETATM   46  O10 UNL     1      74.077  80.950 116.111  1.00  0.00    -0.386 OA
ATOM     47  H10 UNL     1      74.253  80.513 116.936  1.00  0.00     0.210 HD
ENDBRANCH  36  46
ENDBRANCH  32  33
ENDBRANCH   1  32
BRANCH   6  48
HETATM   48  N4  UNL     1      75.574  83.500 109.692  1.00  0.00    -0.072 N 
ATOM     49  H43 UNL     1      76.208  84.263 109.929  1.00  0.00     0.274 HD
ATOM     50  H42 UNL     1      76.115  82.718 110.060  1.00  0.00     0.274 HD
ATOM     51  H41 UNL     1      75.456  83.421 108.681  1.00  0.00     0.274 HD
ENDBRANCH   6  48
TORSDOF 15
ENDMDL
