MODEL 1
REMARK VINA RESULT: -6.890520258      0.000      0.000
REMARK  15 active torsions:
REMARK  status: ('A' for Active; 'I' for Inactive)
REMARK    1  A    between atoms: N1_2  and  C2_5 
REMARK    2  A    between atoms: C3_6  and  O1_7 
REMARK    3  A    between atoms: C4_9  and  O2_10 
REMARK    4  A    between atoms: O2_10  and  C5_11 
REMARK    5  A    between atoms: C6_12  and  O3_13 
REMARK    6  A    between atoms: C7_15  and  O4_16 
REMARK    7  A    between atoms: O4_16  and  C8_17 
REMARK    8  A    between atoms: C9_19  and  C10_20 
REMARK    9  A    between atoms: C10_20  and  O6_22 
REMARK   10  A    between atoms: C12_24  and  O7_25 
REMARK   11  A    between atoms: C13_27  and  O8_28 
REMARK   12  A    between atoms: C14_30  and  N2_31 
REMARK   13  A    between atoms: C15_35  and  N3_36 
REMARK   14  A    between atoms: C17_41  and  N4_42 
REMARK   15  A    between atoms: C19_48  and  O10_50 
ROOT
HETATM    1  C5  UNL     1      73.992  82.832 111.868  1.00  0.00     0.186 C 
HETATM    2  C6  UNL     1      74.370  83.738 112.999  1.00  0.00     0.180 C 
HETATM    3  C7  UNL     1      73.747  85.094 112.948  1.00  0.00     0.186 C 
HETATM    4  C15 UNL     1      72.884  85.197 111.685  1.00  0.00     0.217 C 
HETATM    5  C16 UNL     1      73.807  84.935 110.514  1.00  0.00     0.071 C 
HETATM    6  C17 UNL     1      74.111  83.452 110.513  1.00  0.00     0.217 C 
ENDROOT
BRANCH   3   7
HETATM    7  O4  UNL     1      72.942  85.310 114.020  1.00  0.00    -0.349 OA
BRANCH   7   8
HETATM    8  C8  UNL     1      73.430  86.170 114.981  1.00  0.00     0.294 C 
HETATM    9  O5  UNL     1      74.339  87.075 114.518  1.00  0.00    -0.349 OA
HETATM   10  C9  UNL     1      73.896  88.351 114.325  1.00  0.00     0.184 C 
HETATM   11  C12 UNL     1      73.380  88.997 115.594  1.00  0.00     0.180 C 
HETATM   12  C13 UNL     1      73.080  87.907 116.639  1.00  0.00     0.184 C 
HETATM   13  C14 UNL     1      72.405  86.815 115.830  1.00  0.00     0.269 C 
BRANCH  10  14
HETATM   14  C10 UNL     1      74.938  89.268 113.733  1.00  0.00     0.145 C 
HETATM   15  C11 UNL     1      75.511  88.750 112.452  1.00  0.00     0.042 C 
BRANCH  14  16
HETATM   16  O6  UNL     1      74.296  90.482 113.457  1.00  0.00    -0.393 OA
ATOM     17  H6  UNL     1      73.631  90.598 114.124  1.00  0.00     0.210 HD
ENDBRANCH  14  16
ENDBRANCH  10  14
BRANCH  11  18
HETATM   18  O7  UNL     1      72.234  89.704 115.320  1.00  0.00    -0.390 OA
ATOM     19  H7  UNL     1      71.474  89.173 115.524  1.00  0.00     0.210 HD
ENDBRANCH  11  18
BRANCH  12  20
HETATM   20  O8  UNL     1      74.269  87.452 117.190  1.00  0.00    -0.391 OA
ATOM     21  H8  UNL     1      74.228  86.509 117.302  1.00  0.00     0.210 HD
ENDBRANCH  12  20
BRANCH  13  22
HETATM   22  N2  UNL     1      71.381  87.520 115.050  1.00  0.00    -0.068 N 
ATOM     23  H23 UNL     1      71.081  86.960 114.252  1.00  0.00     0.275 HD
ATOM     24  H22 UNL     1      70.500  87.567 115.561  1.00  0.00     0.275 HD
ATOM     25  H21 UNL     1      71.681  88.449 114.752  1.00  0.00     0.275 HD
ENDBRANCH  13  22
ENDBRANCH   7   8
ENDBRANCH   3   7
BRANCH   2  26
HETATM   26  O3  UNL     1      75.778  83.817 113.110  1.00  0.00    -0.390 OA
ATOM     27  H3  UNL     1      76.036  84.690 113.381  1.00  0.00     0.210 HD
ENDBRANCH   2  26
BRANCH   4  28
HETATM   28  N3  UNL     1      72.388  86.556 111.528  1.00  0.00    -0.072 N 
ATOM     29  H33 UNL     1      71.374  86.606 111.626  1.00  0.00     0.274 HD
ATOM     30  H32 UNL     1      72.643  87.150 112.318  1.00  0.00     0.274 HD
ATOM     31  H31 UNL     1      72.706  86.945 110.640  1.00  0.00     0.274 HD
ENDBRANCH   4  28
BRANCH   1  32
HETATM   32  O2  UNL     1      72.750  82.241 112.098  1.00  0.00    -0.349 OA
BRANCH  32  33
HETATM   33  C4  UNL     1      72.827  81.064 112.798  1.00  0.00     0.291 C 
HETATM   34  C3  UNL     1      71.848  81.046 113.942  1.00  0.00     0.207 C 
HETATM   35  C2  UNL     1      72.289  80.088 115.022  1.00  0.00     0.254 C 
HETATM   36  C19 UNL     1      73.014  78.910 114.392  1.00  0.00     0.106 C 
HETATM   37  C18 UNL     1      74.181  79.428 113.594  1.00  0.00     0.210 C 
HETATM   38  C20 UNL     1      73.506  78.031 115.522  1.00  0.00     0.050 C 
HETATM   39  O9  UNL     1      74.085  80.792 113.321  1.00  0.00    -0.356 OA
BRANCH  34  40
HETATM   40  O1  UNL     1      71.758  82.338 114.496  1.00  0.00    -0.388 OA
ATOM     41  H1  UNL     1      71.083  82.336 115.164  1.00  0.00     0.210 HD
ENDBRANCH  34  40
BRANCH  35  42
HETATM   42  N1  UNL     1      71.135  79.535 115.741  1.00  0.00    -0.069 N 
HETATM   43  C1  UNL     1      71.072  80.077 117.088  1.00  0.00     0.267 C 
ATOM     44  H12 UNL     1      71.140  78.515 115.742  1.00  0.00     0.277 HD
ATOM     45  H11 UNL     1      70.264  79.681 115.232  1.00  0.00     0.277 HD
ENDBRANCH  35  42
BRANCH  36  46
HETATM   46  O10 UNL     1      72.138  78.164 113.619  1.00  0.00    -0.386 OA
ATOM     47  H10 UNL     1      71.254  78.233 113.961  1.00  0.00     0.210 HD
ENDBRANCH  36  46
ENDBRANCH  32  33
ENDBRANCH   1  32
BRANCH   6  48
HETATM   48  N4  UNL     1      75.389  83.169 109.884  1.00  0.00    -0.072 N 
ATOM     49  H43 UNL     1      75.798  84.015 109.486  1.00  0.00     0.274 HD
ATOM     50  H42 UNL     1      76.102  82.955 110.580  1.00  0.00     0.274 HD
ATOM     51  H41 UNL     1      75.323  82.429 109.185  1.00  0.00     0.274 HD
ENDBRANCH   6  48
TORSDOF 15
ENDMDL
