MODEL 4
REMARK VINA RESULT: -8.804848859      0.859      1.365
REMARK  15 active torsions:
REMARK  status: ('A' for Active; 'I' for Inactive)
REMARK    1  A    between atoms: C3_7  and  C4_8 
REMARK    2  A    between atoms: C4_8  and  C5_9 
REMARK    3  A    between atoms: C5_9  and  C6_10 
REMARK    4  A    between atoms: C6_10  and  C7_11 
REMARK    5  A    between atoms: C7_11  and  C8_12 
REMARK    6  A    between atoms: C7_11  and  C20_31 
REMARK    7  A    between atoms: C11_15  and  C12_16 
REMARK       I    between atoms: C12_16  and  N4_18 
REMARK    8  A    between atoms: N4_18  and  C13_20 
REMARK    9  A    between atoms: C13_20  and  C14_21 
REMARK   10  A    between atoms: C13_20  and  C17_26 
REMARK   11  A    between atoms: C14_21  and  C15_22 
REMARK   12  A    between atoms: C15_22  and  C16_23 
REMARK   13  A    between atoms: C20_31  and  O6_32 
REMARK   14  A    between atoms: C20_31  and  O7_34 
REMARK   15  A    between atoms: C20_31  and  C21_36 
ROOT
HETATM    1  C7  UNL     1      72.339  22.363  28.906  1.00  0.00     0.090 C 
ENDROOT
BRANCH   1   2
HETATM    2  C6  UNL     1      73.456  22.299  27.949  1.00  0.00     0.015 C 
BRANCH   2   3
HETATM    3  C5  UNL     1      74.066  23.532  27.476  1.00  0.00     0.006 C 
BRANCH   3   4
HETATM    4  C4  UNL     1      75.274  23.622  26.670  1.00  0.00     0.048 C 
BRANCH   4   5
HETATM    5  C3  UNL     1      76.270  24.642  27.047  1.00  0.00     0.051 A 
HETATM    6  C2  UNL     1      76.292  25.963  26.704  1.00  0.00     0.130 A 
HETATM    7  N2  UNL     1      77.323  26.761  27.125  1.00  0.00    -0.318 N 
HETATM    8  N3  UNL     1      75.237  26.495  25.936  1.00  0.00    -0.082 NA
HETATM    9  C1  UNL     1      78.331  26.322  27.867  1.00  0.00     0.196 A 
ATOM     10  H2  UNL     1      77.315  27.745  26.854  1.00  0.00     0.169 HD
HETATM   11  N1  UNL     1      79.401  27.189  28.294  1.00  0.00    -0.063 NA
HETATM   12  N5  UNL     1      78.341  25.030  28.223  1.00  0.00    -0.297 N 
HETATM   13  C22 UNL     1      77.352  24.219  27.832  1.00  0.00     0.257 A 
ATOM     14  H5  UNL     1      79.103  24.664  28.794  1.00  0.00     0.171 HD
HETATM   15  O8  UNL     1      77.397  23.034  28.181  1.00  0.00    -0.267 OA
ENDBRANCH   4   5
ENDBRANCH   3   4
ENDBRANCH   2   3
ENDBRANCH   1   2
BRANCH   1  16
HETATM   16  C8  UNL     1      72.846  22.483  30.323  1.00  0.00    -0.048 A 
HETATM   17  C9  UNL     1      73.768  21.588  30.842  1.00  0.00     0.009 A 
HETATM   18  C10 UNL     1      74.187  21.721  32.137  1.00  0.00     0.017 A 
HETATM   19  C11 UNL     1      73.705  22.734  32.936  1.00  0.00     0.032 A 
HETATM   20  C18 UNL     1      72.785  23.623  32.409  1.00  0.00     0.017 A 
HETATM   21  C19 UNL     1      72.348  23.501  31.091  1.00  0.00     0.009 A 
BRANCH  19  22
HETATM   22  C12 UNL     1      74.194  22.829  34.313  1.00  0.00     0.252 C 
HETATM   23  O1  UNL     1      73.541  23.496  35.149  1.00  0.00    -0.268 OA
HETATM   24  N4  UNL     1      75.378  22.193  34.738  1.00  0.00    -0.342 N 
ATOM     25  H4  UNL     1      75.933  21.643  34.083  1.00  0.00     0.163 HD
BRANCH  24  26
HETATM   26  C13 UNL     1      75.799  22.333  36.127  1.00  0.00     0.186 C 
BRANCH  26  27
HETATM   27  C14 UNL     1      75.574  21.068  36.887  1.00  0.00     0.046 C 
BRANCH  27  28
HETATM   28  C15 UNL     1      74.240  21.049  37.559  1.00  0.00     0.116 C 
BRANCH  28  29
HETATM   29  C16 UNL     1      73.158  20.400  36.801  1.00  0.00     0.172 C 
HETATM   30  O2  UNL     1      71.953  20.438  37.126  1.00  0.00    -0.648 OA
HETATM   31  O3  UNL     1      73.477  19.693  35.642  1.00  0.00    -0.648 OA
ENDBRANCH  28  29
ENDBRANCH  27  28
ENDBRANCH  26  27
BRANCH  26  32
HETATM   32  C17 UNL     1      77.226  22.743  36.107  1.00  0.00     0.196 C 
HETATM   33  O4  UNL     1      77.981  22.251  35.229  1.00  0.00    -0.646 OA
HETATM   34  O5  UNL     1      77.780  23.632  36.986  1.00  0.00    -0.646 OA
ENDBRANCH  26  32
ENDBRANCH  24  26
ENDBRANCH  19  22
ENDBRANCH   1  16
BRANCH   1  35
HETATM   35  C20 UNL     1      71.433  21.169  28.769  1.00  0.00     0.268 C 
BRANCH  35  36
HETATM   36  O6  UNL     1      72.175  19.971  28.927  1.00  0.00    -0.358 OA
ATOM     37  H6  UNL     1      72.731  20.029  29.695  1.00  0.00     0.213 HD
ENDBRANCH  35  36
BRANCH  35  38
HETATM   38  O7  UNL     1      70.982  21.057  27.419  1.00  0.00    -0.358 OA
ATOM     39  H7  UNL     1      70.111  20.676  27.402  1.00  0.00     0.213 HD
ENDBRANCH  35  38
BRANCH  35  40
HETATM   40  C21 UNL     1      70.288  21.076  29.711  1.00  0.00     0.445 C 
HETATM   41  F1  UNL     1      69.352  20.114  29.227  1.00  0.00    -0.166 F 
HETATM   42  F2  UNL     1      70.587  20.596  30.968  1.00  0.00    -0.166 F 
HETATM   43  F3  UNL     1      69.605  22.274  29.902  1.00  0.00    -0.166 F 
ENDBRANCH  35  40
ENDBRANCH   1  35
TORSDOF 15
ENDMDL
