MODEL 1
REMARK VINA RESULT: -8.948020339      0.000      0.000
REMARK  15 active torsions:
REMARK  status: ('A' for Active; 'I' for Inactive)
REMARK    1  A    between atoms: C3_7  and  C4_8 
REMARK    2  A    between atoms: C4_8  and  C5_9 
REMARK    3  A    between atoms: C5_9  and  C6_10 
REMARK    4  A    between atoms: C6_10  and  C7_11 
REMARK    5  A    between atoms: C7_11  and  C8_12 
REMARK    6  A    between atoms: C7_11  and  C20_31 
REMARK    7  A    between atoms: C11_15  and  C12_16 
REMARK       I    between atoms: C12_16  and  N4_18 
REMARK    8  A    between atoms: N4_18  and  C13_20 
REMARK    9  A    between atoms: C13_20  and  C14_21 
REMARK   10  A    between atoms: C13_20  and  C17_26 
REMARK   11  A    between atoms: C14_21  and  C15_22 
REMARK   12  A    between atoms: C15_22  and  C16_23 
REMARK   13  A    between atoms: C20_31  and  O6_32 
REMARK   14  A    between atoms: C20_31  and  O7_34 
REMARK   15  A    between atoms: C20_31  and  C21_36 
ROOT
HETATM    1  C7  UNL     1      72.362  23.085  29.309  1.00  0.00     0.090 C 
ENDROOT
BRANCH   1   2
HETATM    2  C6  UNL     1      73.372  22.620  28.343  1.00  0.00     0.015 C 
BRANCH   2   3
HETATM    3  C5  UNL     1      73.897  23.548  27.353  1.00  0.00     0.006 C 
BRANCH   3   4
HETATM    4  C4  UNL     1      75.211  23.466  26.732  1.00  0.00     0.048 C 
BRANCH   4   5
HETATM    5  C3  UNL     1      76.195  24.507  27.082  1.00  0.00     0.051 A 
HETATM    6  C2  UNL     1      76.200  25.820  26.709  1.00  0.00     0.130 A 
HETATM    7  N2  UNL     1      77.222  26.640  27.108  1.00  0.00    -0.318 N 
HETATM    8  N3  UNL     1      75.135  26.321  25.934  1.00  0.00    -0.082 NA
HETATM    9  C1  UNL     1      78.239  26.231  27.856  1.00  0.00     0.196 A 
ATOM     10  H2  UNL     1      77.201  27.618  26.815  1.00  0.00     0.169 HD
HETATM   11  N1  UNL     1      79.299  27.120  28.258  1.00  0.00    -0.063 NA
HETATM   12  N5  UNL     1      78.266  24.947  28.241  1.00  0.00    -0.297 N 
HETATM   13  C22 UNL     1      77.286  24.115  27.872  1.00  0.00     0.257 A 
ATOM     14  H5  UNL     1      79.034  24.604  28.817  1.00  0.00     0.171 HD
HETATM   15  O8  UNL     1      77.347  22.939  28.248  1.00  0.00    -0.267 OA
ENDBRANCH   4   5
ENDBRANCH   3   4
ENDBRANCH   2   3
ENDBRANCH   1   2
BRANCH   1  16
HETATM   16  C8  UNL     1      72.885  22.996  30.723  1.00  0.00    -0.048 A 
HETATM   17  C9  UNL     1      72.415  23.832  31.724  1.00  0.00     0.009 A 
HETATM   18  C10 UNL     1      72.930  23.731  32.987  1.00  0.00     0.017 A 
HETATM   19  C11 UNL     1      73.911  22.809  33.281  1.00  0.00     0.032 A 
HETATM   20  C18 UNL     1      74.374  21.980  32.274  1.00  0.00     0.017 A 
HETATM   21  C19 UNL     1      73.859  22.070  30.981  1.00  0.00     0.009 A 
BRANCH  19  22
HETATM   22  C12 UNL     1      74.420  22.745  34.652  1.00  0.00     0.252 C 
HETATM   23  O1  UNL     1      73.857  23.421  35.545  1.00  0.00    -0.268 OA
HETATM   24  N4  UNL     1      75.525  21.946  35.009  1.00  0.00    -0.342 N 
ATOM     25  H4  UNL     1      76.004  21.384  34.307  1.00  0.00     0.163 HD
BRANCH  24  26
HETATM   26  C13 UNL     1      75.972  21.934  36.397  1.00  0.00     0.186 C 
BRANCH  26  27
HETATM   27  C14 UNL     1      75.604  20.654  37.069  1.00  0.00     0.046 C 
BRANCH  27  28
HETATM   28  C15 UNL     1      74.269  20.735  37.737  1.00  0.00     0.116 C 
BRANCH  28  29
HETATM   29  C16 UNL     1      73.125  20.293  36.923  1.00  0.00     0.172 C 
HETATM   30  O2  UNL     1      71.930  20.505  37.218  1.00  0.00    -0.648 OA
HETATM   31  O3  UNL     1      73.369  19.592  35.741  1.00  0.00    -0.648 OA
ENDBRANCH  28  29
ENDBRANCH  27  28
ENDBRANCH  26  27
BRANCH  26  32
HETATM   32  C17 UNL     1      77.437  22.171  36.381  1.00  0.00     0.196 C 
HETATM   33  O4  UNL     1      78.040  22.289  37.479  1.00  0.00    -0.646 OA
HETATM   34  O5  UNL     1      78.185  22.268  35.240  1.00  0.00    -0.646 OA
ENDBRANCH  26  32
ENDBRANCH  24  26
ENDBRANCH  19  22
ENDBRANCH   1  16
BRANCH   1  35
HETATM   35  C20 UNL     1      71.078  22.313  29.171  1.00  0.00     0.268 C 
BRANCH  35  36
HETATM   36  O6  UNL     1      70.653  22.308  27.819  1.00  0.00    -0.358 OA
ATOM     37  H6  UNL     1      69.860  21.792  27.726  1.00  0.00     0.213 HD
ENDBRANCH  35  36
BRANCH  35  38
HETATM   38  O7  UNL     1      70.016  23.025  29.808  1.00  0.00    -0.358 OA
ATOM     39  H7  UNL     1      69.943  22.749  30.714  1.00  0.00     0.213 HD
ENDBRANCH  35  38
BRANCH  35  40
HETATM   40  C21 UNL     1      71.090  20.894  29.609  1.00  0.00     0.445 C 
HETATM   41  F1  UNL     1      70.010  20.197  28.991  1.00  0.00    -0.166 F 
HETATM   42  F2  UNL     1      72.186  20.157  29.215  1.00  0.00    -0.166 F 
HETATM   43  F3  UNL     1      70.976  20.718  30.986  1.00  0.00    -0.166 F 
ENDBRANCH  35  40
ENDBRANCH   1  35
TORSDOF 15
ENDMDL
