MODEL 18
REMARK VINA RESULT: -8.046514277      4.006      6.733
REMARK  15 active torsions:
REMARK  status: ('A' for Active; 'I' for Inactive)
REMARK    1  A    between atoms: C3_7  and  C4_8 
REMARK    2  A    between atoms: C4_8  and  C5_9 
REMARK    3  A    between atoms: C5_9  and  C6_10 
REMARK    4  A    between atoms: C6_10  and  C7_11 
REMARK    5  A    between atoms: C7_11  and  C8_12 
REMARK    6  A    between atoms: C7_11  and  C20_31 
REMARK    7  A    between atoms: C11_15  and  C12_16 
REMARK       I    between atoms: C12_16  and  N4_18 
REMARK    8  A    between atoms: N4_18  and  C13_20 
REMARK    9  A    between atoms: C13_20  and  C14_21 
REMARK   10  A    between atoms: C13_20  and  C17_26 
REMARK   11  A    between atoms: C14_21  and  C15_22 
REMARK   12  A    between atoms: C15_22  and  C16_23 
REMARK   13  A    between atoms: C20_31  and  O6_32 
REMARK   14  A    between atoms: C20_31  and  O7_34 
REMARK   15  A    between atoms: C20_31  and  C21_36 
ROOT
HETATM    1  C7  UNL     1      73.073  21.830  29.184  1.00  0.00     0.090 C 
ENDROOT
BRANCH   1   2
HETATM    2  C6  UNL     1      71.669  21.819  28.743  1.00  0.00     0.015 C 
BRANCH   2   3
HETATM    3  C5  UNL     1      71.112  20.610  28.154  1.00  0.00     0.006 C 
BRANCH   3   4
HETATM    4  C4  UNL     1      69.694  20.324  27.995  1.00  0.00     0.048 C 
BRANCH   4   5
HETATM    5  C3  UNL     1      69.108  19.284  28.860  1.00  0.00     0.051 A 
HETATM    6  C2  UNL     1      69.015  17.944  28.619  1.00  0.00     0.130 A 
HETATM    7  N2  UNL     1      68.404  17.126  29.534  1.00  0.00    -0.318 N 
HETATM    8  N3  UNL     1      69.572  17.414  27.438  1.00  0.00    -0.082 NA
HETATM    9  C1  UNL     1      67.881  17.563  30.672  1.00  0.00     0.196 A 
ATOM     10  H2  UNL     1      68.348  16.128  29.329  1.00  0.00     0.169 HD
HETATM   11  N1  UNL     1      67.245  16.676  31.613  1.00  0.00    -0.063 NA
HETATM   12  N5  UNL     1      67.956  18.875  30.941  1.00  0.00    -0.297 N 
HETATM   13  C22 UNL     1      68.545  19.705  30.073  1.00  0.00     0.257 A 
ATOM     14  H5  UNL     1      67.564  19.240  31.808  1.00  0.00     0.171 HD
HETATM   15  O8  UNL     1      68.594  20.907  30.358  1.00  0.00    -0.267 OA
ENDBRANCH   4   5
ENDBRANCH   3   4
ENDBRANCH   2   3
ENDBRANCH   1   2
BRANCH   1  16
HETATM   16  C8  UNL     1      73.179  22.219  30.640  1.00  0.00    -0.048 A 
HETATM   17  C9  UNL     1      74.071  21.593  31.495  1.00  0.00     0.009 A 
HETATM   18  C10 UNL     1      74.121  21.962  32.812  1.00  0.00     0.017 A 
HETATM   19  C11 UNL     1      73.296  22.951  33.301  1.00  0.00     0.032 A 
HETATM   20  C18 UNL     1      72.408  23.570  32.439  1.00  0.00     0.017 A 
HETATM   21  C19 UNL     1      72.345  23.205  31.095  1.00  0.00     0.009 A 
BRANCH  19  22
HETATM   22  C12 UNL     1      73.398  23.306  34.717  1.00  0.00     0.252 C 
HETATM   23  O1  UNL     1      72.355  23.362  35.410  1.00  0.00    -0.268 OA
HETATM   24  N4  UNL     1      74.633  23.589  35.336  1.00  0.00    -0.342 N 
ATOM     25  H4  UNL     1      75.500  23.552  34.801  1.00  0.00     0.163 HD
BRANCH  24  26
HETATM   26  C13 UNL     1      74.653  23.934  36.753  1.00  0.00     0.186 C 
BRANCH  26  27
HETATM   27  C14 UNL     1      75.532  23.003  37.520  1.00  0.00     0.046 C 
BRANCH  27  28
HETATM   28  C15 UNL     1      76.301  22.091  36.621  1.00  0.00     0.116 C 
BRANCH  28  29
HETATM   29  C16 UNL     1      77.755  22.322  36.578  1.00  0.00     0.172 C 
HETATM   30  O2  UNL     1      78.498  22.305  37.581  1.00  0.00    -0.648 OA
HETATM   31  O3  UNL     1      78.360  22.578  35.347  1.00  0.00    -0.648 OA
ENDBRANCH  28  29
ENDBRANCH  27  28
ENDBRANCH  26  27
BRANCH  26  32
HETATM   32  C17 UNL     1      75.096  25.348  36.847  1.00  0.00     0.196 C 
HETATM   33  O4  UNL     1      76.092  25.712  36.171  1.00  0.00    -0.646 OA
HETATM   34  O5  UNL     1      74.485  26.292  37.626  1.00  0.00    -0.646 OA
ENDBRANCH  26  32
ENDBRANCH  24  26
ENDBRANCH  19  22
ENDBRANCH   1  16
BRANCH   1  35
HETATM   35  C20 UNL     1      73.908  22.747  28.331  1.00  0.00     0.268 C 
BRANCH  35  36
HETATM   36  O6  UNL     1      74.370  23.845  29.100  1.00  0.00    -0.358 OA
ATOM     37  H6  UNL     1      75.009  23.551  29.739  1.00  0.00     0.213 HD
ENDBRANCH  35  36
BRANCH  35  38
HETATM   38  O7  UNL     1      73.079  23.396  27.367  1.00  0.00    -0.358 OA
ATOM     39  H7  UNL     1      72.362  23.839  27.806  1.00  0.00     0.213 HD
ENDBRANCH  35  38
BRANCH  35  40
HETATM   40  C21 UNL     1      75.106  22.161  27.679  1.00  0.00     0.445 C 
HETATM   41  F1  UNL     1      75.326  22.804  26.425  1.00  0.00    -0.166 F 
HETATM   42  F2  UNL     1      76.302  22.366  28.333  1.00  0.00    -0.166 F 
HETATM   43  F3  UNL     1      75.019  20.791  27.445  1.00  0.00    -0.166 F 
ENDBRANCH  35  40
ENDBRANCH   1  35
TORSDOF 15
ENDMDL
