MODEL 2
REMARK VINA RESULT: -8.829154077      1.215      1.663
REMARK  15 active torsions:
REMARK  status: ('A' for Active; 'I' for Inactive)
REMARK    1  A    between atoms: C3_7  and  C4_8 
REMARK    2  A    between atoms: C4_8  and  C5_9 
REMARK    3  A    between atoms: C5_9  and  C6_10 
REMARK    4  A    between atoms: C6_10  and  C7_11 
REMARK    5  A    between atoms: C7_11  and  C8_12 
REMARK    6  A    between atoms: C7_11  and  C20_31 
REMARK    7  A    between atoms: C11_15  and  C12_16 
REMARK       I    between atoms: C12_16  and  N4_18 
REMARK    8  A    between atoms: N4_18  and  C13_20 
REMARK    9  A    between atoms: C13_20  and  C14_21 
REMARK   10  A    between atoms: C13_20  and  C17_26 
REMARK   11  A    between atoms: C14_21  and  C15_22 
REMARK   12  A    between atoms: C15_22  and  C16_23 
REMARK   13  A    between atoms: C20_31  and  O6_32 
REMARK   14  A    between atoms: C20_31  and  O7_34 
REMARK   15  A    between atoms: C20_31  and  C21_36 
ROOT
HETATM    1  C7  UNL     1      72.221  22.432  28.947  1.00  0.00     0.090 C 
ENDROOT
BRANCH   1   2
HETATM    2  C6  UNL     1      73.331  22.464  27.980  1.00  0.00     0.015 C 
BRANCH   2   3
HETATM    3  C5  UNL     1      73.863  23.745  27.542  1.00  0.00     0.006 C 
BRANCH   3   4
HETATM    4  C4  UNL     1      74.948  23.929  26.589  1.00  0.00     0.048 C 
BRANCH   4   5
HETATM    5  C3  UNL     1      76.151  24.643  27.055  1.00  0.00     0.051 A 
HETATM    6  C2  UNL     1      77.189  24.149  27.791  1.00  0.00     0.130 A 
HETATM    7  N2  UNL     1      78.218  24.975  28.162  1.00  0.00    -0.318 N 
HETATM    8  N3  UNL     1      77.199  22.784  28.142  1.00  0.00    -0.082 NA
HETATM    9  C1  UNL     1      78.273  26.261  27.843  1.00  0.00     0.196 A 
ATOM     10  H2  UNL     1      78.981  24.580  28.712  1.00  0.00     0.169 HD
HETATM   11  N1  UNL     1      79.371  27.103  28.250  1.00  0.00    -0.063 NA
HETATM   12  N5  UNL     1      77.271  26.779  27.120  1.00  0.00    -0.297 N 
HETATM   13  C22 UNL     1      76.249  26.005  26.738  1.00  0.00     0.257 A 
ATOM     14  H5  UNL     1      77.287  27.765  26.859  1.00  0.00     0.171 HD
HETATM   15  O8  UNL     1      75.344  26.521  26.073  1.00  0.00    -0.267 OA
ENDBRANCH   4   5
ENDBRANCH   3   4
ENDBRANCH   2   3
ENDBRANCH   1   2
BRANCH   1  16
HETATM   16  C8  UNL     1      72.736  22.530  30.363  1.00  0.00    -0.048 A 
HETATM   17  C9  UNL     1      72.262  23.491  31.242  1.00  0.00     0.009 A 
HETATM   18  C10 UNL     1      72.769  23.558  32.511  1.00  0.00     0.017 A 
HETATM   19  C11 UNL     1      73.747  22.682  32.929  1.00  0.00     0.032 A 
HETATM   20  C18 UNL     1      74.214  21.727  32.044  1.00  0.00     0.017 A 
HETATM   21  C19 UNL     1      73.707  21.645  30.748  1.00  0.00     0.009 A 
BRANCH  19  22
HETATM   22  C12 UNL     1      74.248  22.799  34.300  1.00  0.00     0.252 C 
HETATM   23  O1  UNL     1      73.620  23.507  35.121  1.00  0.00    -0.268 OA
HETATM   24  N4  UNL     1      75.416  22.140  34.734  1.00  0.00    -0.342 N 
ATOM     25  H4  UNL     1      75.949  21.556  34.091  1.00  0.00     0.163 HD
BRANCH  24  26
HETATM   26  C13 UNL     1      75.851  22.305  36.117  1.00  0.00     0.186 C 
BRANCH  26  27
HETATM   27  C14 UNL     1      75.596  21.068  36.911  1.00  0.00     0.046 C 
BRANCH  27  28
HETATM   28  C15 UNL     1      74.259  21.098  37.580  1.00  0.00     0.116 C 
BRANCH  28  29
HETATM   29  C16 UNL     1      73.163  20.459  36.833  1.00  0.00     0.172 C 
HETATM   30  O2  UNL     1      71.958  20.541  37.149  1.00  0.00    -0.648 OA
HETATM   31  O3  UNL     1      73.469  19.709  35.697  1.00  0.00    -0.648 OA
ENDBRANCH  28  29
ENDBRANCH  27  28
ENDBRANCH  26  27
BRANCH  26  32
HETATM   32  C17 UNL     1      77.288  22.674  36.076  1.00  0.00     0.196 C 
HETATM   33  O4  UNL     1      77.700  23.577  36.849  1.00  0.00    -0.646 OA
HETATM   34  O5  UNL     1      78.206  22.088  35.248  1.00  0.00    -0.646 OA
ENDBRANCH  26  32
ENDBRANCH  24  26
ENDBRANCH  19  22
ENDBRANCH   1  16
BRANCH   1  35
HETATM   35  C20 UNL     1      71.381  21.195  28.775  1.00  0.00     0.268 C 
BRANCH  35  36
HETATM   36  O6  UNL     1      72.169  20.036  28.992  1.00  0.00    -0.358 OA
ATOM     37  H6  UNL     1      72.851  19.975  28.333  1.00  0.00     0.213 HD
ENDBRANCH  35  36
BRANCH  35  38
HETATM   38  O7  UNL     1      71.016  21.046  27.403  1.00  0.00    -0.358 OA
ATOM     39  H7  UNL     1      71.148  20.146  27.131  1.00  0.00     0.213 HD
ENDBRANCH  35  38
BRANCH  35  40
HETATM   40  C21 UNL     1      70.190  21.058  29.650  1.00  0.00     0.445 C 
HETATM   41  F1  UNL     1      69.254  20.170  29.042  1.00  0.00    -0.166 F 
HETATM   42  F2  UNL     1      70.413  20.465  30.874  1.00  0.00    -0.166 F 
HETATM   43  F3  UNL     1      69.531  22.257  29.912  1.00  0.00    -0.166 F 
ENDBRANCH  35  40
ENDBRANCH   1  35
TORSDOF 15
ENDMDL
