MODEL 20
REMARK VINA RESULT: -7.880962756      4.066      6.234
REMARK  15 active torsions:
REMARK  status: ('A' for Active; 'I' for Inactive)
REMARK    1  A    between atoms: C3_7  and  C4_8 
REMARK    2  A    between atoms: C4_8  and  C5_9 
REMARK    3  A    between atoms: C5_9  and  C6_10 
REMARK    4  A    between atoms: C6_10  and  C7_11 
REMARK    5  A    between atoms: C7_11  and  C8_12 
REMARK    6  A    between atoms: C7_11  and  C20_31 
REMARK    7  A    between atoms: C11_15  and  C12_16 
REMARK       I    between atoms: C12_16  and  N4_18 
REMARK    8  A    between atoms: N4_18  and  C13_20 
REMARK    9  A    between atoms: C13_20  and  C14_21 
REMARK   10  A    between atoms: C13_20  and  C17_26 
REMARK   11  A    between atoms: C14_21  and  C15_22 
REMARK   12  A    between atoms: C15_22  and  C16_23 
REMARK   13  A    between atoms: C20_31  and  O6_32 
REMARK   14  A    between atoms: C20_31  and  O7_34 
REMARK   15  A    between atoms: C20_31  and  C21_36 
ROOT
HETATM    1  C7  UNL     1      71.797  21.900  29.966  1.00  0.00     0.090 C 
ENDROOT
BRANCH   1   2
HETATM    2  C6  UNL     1      70.384  22.306  30.038  1.00  0.00     0.015 C 
BRANCH   2   3
HETATM    3  C5  UNL     1      69.342  21.302  29.881  1.00  0.00     0.006 C 
BRANCH   3   4
HETATM    4  C4  UNL     1      69.449  19.904  30.270  1.00  0.00     0.048 C 
BRANCH   4   5
HETATM    5  C3  UNL     1      69.179  18.886  29.238  1.00  0.00     0.051 A 
HETATM    6  C2  UNL     1      69.876  18.649  28.088  1.00  0.00     0.130 A 
HETATM    7  N2  UNL     1      69.456  17.672  27.224  1.00  0.00    -0.318 N 
HETATM    8  N3  UNL     1      71.036  19.401  27.817  1.00  0.00    -0.082 NA
HETATM    9  C1  UNL     1      68.385  16.918  27.437  1.00  0.00     0.196 A 
ATOM     10  H2  UNL     1      69.996  17.515  26.372  1.00  0.00     0.169 HD
HETATM   11  N1  UNL     1      67.971  15.898  26.507  1.00  0.00    -0.063 NA
HETATM   12  N5  UNL     1      67.678  17.124  28.557  1.00  0.00    -0.297 N 
HETATM   13  C22 UNL     1      68.056  18.068  29.426  1.00  0.00     0.257 A 
ATOM     14  H5  UNL     1      66.850  16.559  28.747  1.00  0.00     0.171 HD
HETATM   15  O8  UNL     1      67.377  18.227  30.446  1.00  0.00    -0.267 OA
ENDBRANCH   4   5
ENDBRANCH   3   4
ENDBRANCH   2   3
ENDBRANCH   1   2
BRANCH   1  16
HETATM   16  C8  UNL     1      72.516  22.213  31.257  1.00  0.00    -0.048 A 
HETATM   17  C9  UNL     1      72.323  23.414  31.922  1.00  0.00     0.009 A 
HETATM   18  C10 UNL     1      73.009  23.665  33.079  1.00  0.00     0.017 A 
HETATM   19  C11 UNL     1      73.890  22.740  33.594  1.00  0.00     0.032 A 
HETATM   20  C18 UNL     1      74.076  21.545  32.922  1.00  0.00     0.017 A 
HETATM   21  C19 UNL     1      73.385  21.273  31.742  1.00  0.00     0.009 A 
BRANCH  19  22
HETATM   22  C12 UNL     1      74.592  23.064  34.837  1.00  0.00     0.252 C 
HETATM   23  O1  UNL     1      74.385  24.172  35.386  1.00  0.00    -0.268 OA
HETATM   24  N4  UNL     1      75.497  22.170  35.447  1.00  0.00    -0.342 N 
ATOM     25  H4  UNL     1      75.687  21.261  35.027  1.00  0.00     0.163 HD
BRANCH  24  26
HETATM   26  C13 UNL     1      76.156  22.564  36.686  1.00  0.00     0.186 C 
BRANCH  26  27
HETATM   27  C14 UNL     1      75.657  21.760  37.840  1.00  0.00     0.046 C 
BRANCH  27  28
HETATM   28  C15 UNL     1      74.511  22.424  38.532  1.00  0.00     0.116 C 
BRANCH  28  29
HETATM   29  C16 UNL     1      73.172  21.998  38.093  1.00  0.00     0.172 C 
HETATM   30  O2  UNL     1      72.964  21.118  37.232  1.00  0.00    -0.648 OA
HETATM   31  O3  UNL     1      72.051  22.602  38.662  1.00  0.00    -0.648 OA
ENDBRANCH  28  29
ENDBRANCH  27  28
ENDBRANCH  26  27
BRANCH  26  32
HETATM   32  C17 UNL     1      77.616  22.407  36.468  1.00  0.00     0.196 C 
HETATM   33  O4  UNL     1      78.375  22.379  37.471  1.00  0.00    -0.646 OA
HETATM   34  O5  UNL     1      78.197  22.286  35.236  1.00  0.00    -0.646 OA
ENDBRANCH  26  32
ENDBRANCH  24  26
ENDBRANCH  19  22
ENDBRANCH   1  16
BRANCH   1  35
HETATM   35  C20 UNL     1      72.494  22.553  28.803  1.00  0.00     0.268 C 
BRANCH  35  36
HETATM   36  O6  UNL     1      72.666  23.939  29.051  1.00  0.00    -0.358 OA
ATOM     37  H6  UNL     1      72.208  24.449  28.393  1.00  0.00     0.213 HD
ENDBRANCH  35  36
BRANCH  35  38
HETATM   38  O7  UNL     1      71.630  22.565  27.667  1.00  0.00    -0.358 OA
ATOM     39  H7  UNL     1      72.119  22.325  26.889  1.00  0.00     0.213 HD
ENDBRANCH  35  38
BRANCH  35  40
HETATM   40  C21 UNL     1      73.833  22.028  28.434  1.00  0.00     0.445 C 
HETATM   41  F1  UNL     1      74.273  22.652  27.229  1.00  0.00    -0.166 F 
HETATM   42  F2  UNL     1      74.853  22.322  29.312  1.00  0.00    -0.166 F 
HETATM   43  F3  UNL     1      73.873  20.650  28.237  1.00  0.00    -0.166 F 
ENDBRANCH  35  40
ENDBRANCH   1  35
TORSDOF 15
ENDMDL
