MODEL 5
REMARK VINA RESULT: -8.782007947      0.836      1.405
REMARK  15 active torsions:
REMARK  status: ('A' for Active; 'I' for Inactive)
REMARK    1  A    between atoms: C3_7  and  C4_8 
REMARK    2  A    between atoms: C4_8  and  C5_9 
REMARK    3  A    between atoms: C5_9  and  C6_10 
REMARK    4  A    between atoms: C6_10  and  C7_11 
REMARK    5  A    between atoms: C7_11  and  C8_12 
REMARK    6  A    between atoms: C7_11  and  C20_31 
REMARK    7  A    between atoms: C11_15  and  C12_16 
REMARK       I    between atoms: C12_16  and  N4_18 
REMARK    8  A    between atoms: N4_18  and  C13_20 
REMARK    9  A    between atoms: C13_20  and  C14_21 
REMARK   10  A    between atoms: C13_20  and  C17_26 
REMARK   11  A    between atoms: C14_21  and  C15_22 
REMARK   12  A    between atoms: C15_22  and  C16_23 
REMARK   13  A    between atoms: C20_31  and  O6_32 
REMARK   14  A    between atoms: C20_31  and  O7_34 
REMARK   15  A    between atoms: C20_31  and  C21_36 
ROOT
HETATM    1  C7  UNL     1      72.356  23.145  29.341  1.00  0.00     0.090 C 
ENDROOT
BRANCH   1   2
HETATM    2  C6  UNL     1      73.380  22.749  28.360  1.00  0.00     0.015 C 
BRANCH   2   3
HETATM    3  C5  UNL     1      73.801  23.698  27.341  1.00  0.00     0.006 C 
BRANCH   3   4
HETATM    4  C4  UNL     1      75.044  23.631  26.586  1.00  0.00     0.048 C 
BRANCH   4   5
HETATM    5  C3  UNL     1      76.181  24.433  27.073  1.00  0.00     0.051 A 
HETATM    6  C2  UNL     1      77.224  24.026  27.854  1.00  0.00     0.130 A 
HETATM    7  N2  UNL     1      78.183  24.927  28.237  1.00  0.00    -0.318 N 
HETATM    8  N3  UNL     1      77.312  22.673  28.237  1.00  0.00    -0.082 NA
HETATM    9  C1  UNL     1      78.165  26.207  27.889  1.00  0.00     0.196 A 
ATOM     10  H2  UNL     1      78.952  24.595  28.821  1.00  0.00     0.169 HD
HETATM   11  N1  UNL     1      79.190  27.128  28.310  1.00  0.00    -0.063 NA
HETATM   12  N5  UNL     1      77.155  26.641  27.122  1.00  0.00    -0.297 N 
HETATM   13  C22 UNL     1      76.200  25.792  26.727  1.00  0.00     0.257 A 
ATOM     14  H5  UNL     1      77.115  27.620  26.838  1.00  0.00     0.171 HD
HETATM   15  O8  UNL     1      75.286  26.231  26.020  1.00  0.00    -0.267 OA
ENDBRANCH   4   5
ENDBRANCH   3   4
ENDBRANCH   2   3
ENDBRANCH   1   2
BRANCH   1  16
HETATM   16  C8  UNL     1      72.890  23.049  30.750  1.00  0.00    -0.048 A 
HETATM   17  C9  UNL     1      72.380  23.832  31.774  1.00  0.00     0.009 A 
HETATM   18  C10 UNL     1      72.906  23.728  33.032  1.00  0.00     0.017 A 
HETATM   19  C11 UNL     1      73.938  22.856  33.298  1.00  0.00     0.032 A 
HETATM   20  C18 UNL     1      74.441  22.079  32.269  1.00  0.00     0.017 A 
HETATM   21  C19 UNL     1      73.916  22.173  30.981  1.00  0.00     0.009 A 
BRANCH  19  22
HETATM   22  C12 UNL     1      74.457  22.786  34.665  1.00  0.00     0.252 C 
HETATM   23  O1  UNL     1      73.927  23.488  35.557  1.00  0.00    -0.268 OA
HETATM   24  N4  UNL     1      75.536  21.951  35.020  1.00  0.00    -0.342 N 
ATOM     25  H4  UNL     1      75.990  21.367  34.318  1.00  0.00     0.163 HD
BRANCH  24  26
HETATM   26  C13 UNL     1      75.996  21.935  36.404  1.00  0.00     0.186 C 
BRANCH  26  27
HETATM   27  C14 UNL     1      75.645  20.648  37.072  1.00  0.00     0.046 C 
BRANCH  27  28
HETATM   28  C15 UNL     1      74.317  20.714  37.754  1.00  0.00     0.116 C 
BRANCH  28  29
HETATM   29  C16 UNL     1      73.160  20.333  36.926  1.00  0.00     0.172 C 
HETATM   30  O2  UNL     1      71.975  20.610  37.207  1.00  0.00    -0.648 OA
HETATM   31  O3  UNL     1      73.380  19.617  35.749  1.00  0.00    -0.648 OA
ENDBRANCH  28  29
ENDBRANCH  27  28
ENDBRANCH  26  27
BRANCH  26  32
HETATM   32  C17 UNL     1      77.459  22.187  36.377  1.00  0.00     0.196 C 
HETATM   33  O4  UNL     1      78.019  22.357  35.263  1.00  0.00    -0.646 OA
HETATM   34  O5  UNL     1      78.246  22.249  37.493  1.00  0.00    -0.646 OA
ENDBRANCH  26  32
ENDBRANCH  24  26
ENDBRANCH  19  22
ENDBRANCH   1  16
BRANCH   1  35
HETATM   35  C20 UNL     1      71.108  22.316  29.192  1.00  0.00     0.268 C 
BRANCH  35  36
HETATM   36  O6  UNL     1      70.705  22.278  27.833  1.00  0.00    -0.358 OA
ATOM     37  H6  UNL     1      69.759  22.334  27.770  1.00  0.00     0.213 HD
ENDBRANCH  35  36
BRANCH  35  38
HETATM   38  O7  UNL     1      70.007  22.988  29.804  1.00  0.00    -0.358 OA
ATOM     39  H7  UNL     1      70.264  23.313  30.659  1.00  0.00     0.213 HD
ENDBRANCH  35  38
BRANCH  35  40
HETATM   40  C21 UNL     1      71.175  20.903  29.645  1.00  0.00     0.445 C 
HETATM   41  F1  UNL     1      70.114  20.162  29.047  1.00  0.00    -0.166 F 
HETATM   42  F2  UNL     1      72.292  20.201  29.248  1.00  0.00    -0.166 F 
HETATM   43  F3  UNL     1      71.081  20.740  31.025  1.00  0.00    -0.166 F 
ENDBRANCH  35  40
ENDBRANCH   1  35
TORSDOF 15
ENDMDL
