MODEL 3
REMARK VINA RESULT: -8.807561371      1.030      1.667
REMARK  15 active torsions:
REMARK  status: ('A' for Active; 'I' for Inactive)
REMARK    1  A    between atoms: C3_7  and  C4_8 
REMARK    2  A    between atoms: C4_8  and  C5_9 
REMARK    3  A    between atoms: C5_9  and  C6_10 
REMARK    4  A    between atoms: C6_10  and  C7_11 
REMARK    5  A    between atoms: C7_11  and  C8_12 
REMARK    6  A    between atoms: C7_11  and  C20_31 
REMARK    7  A    between atoms: C11_15  and  C12_16 
REMARK       I    between atoms: C12_16  and  N4_18 
REMARK    8  A    between atoms: N4_18  and  C13_20 
REMARK    9  A    between atoms: C13_20  and  C14_21 
REMARK   10  A    between atoms: C13_20  and  C17_26 
REMARK   11  A    between atoms: C14_21  and  C15_22 
REMARK   12  A    between atoms: C15_22  and  C16_23 
REMARK   13  A    between atoms: C20_31  and  O6_32 
REMARK   14  A    between atoms: C20_31  and  O7_34 
REMARK   15  A    between atoms: C20_31  and  C21_36 
ROOT
HETATM    1  C7  UNL     1      72.370  23.088  29.356  1.00  0.00     0.090 C 
ENDROOT
BRANCH   1   2
HETATM    2  C6  UNL     1      73.367  22.650  28.365  1.00  0.00     0.015 C 
BRANCH   2   3
HETATM    3  C5  UNL     1      73.874  23.603  27.389  1.00  0.00     0.006 C 
BRANCH   3   4
HETATM    4  C4  UNL     1      75.171  23.531  26.732  1.00  0.00     0.048 C 
BRANCH   4   5
HETATM    5  C3  UNL     1      76.172  24.553  27.088  1.00  0.00     0.051 A 
HETATM    6  C2  UNL     1      76.218  25.858  26.693  1.00  0.00     0.130 A 
HETATM    7  N2  UNL     1      77.251  26.661  27.103  1.00  0.00    -0.318 N 
HETATM    8  N3  UNL     1      75.185  26.371  25.883  1.00  0.00    -0.082 NA
HETATM    9  C1  UNL     1      78.239  26.239  27.882  1.00  0.00     0.196 A 
ATOM     10  H2  UNL     1      77.261  27.633  26.792  1.00  0.00     0.169 HD
HETATM   11  N1  UNL     1      79.311  27.110  28.295  1.00  0.00    -0.063 NA
HETATM   12  N5  UNL     1      78.224  24.962  28.290  1.00  0.00    -0.297 N 
HETATM   13  C22 UNL     1      77.233  24.148  27.911  1.00  0.00     0.257 A 
ATOM     14  H5  UNL     1      78.970  24.611  28.890  1.00  0.00     0.171 HD
HETATM   15  O8  UNL     1      77.256  22.978  28.309  1.00  0.00    -0.267 OA
ENDBRANCH   4   5
ENDBRANCH   3   4
ENDBRANCH   2   3
ENDBRANCH   1   2
BRANCH   1  16
HETATM   16  C8  UNL     1      72.907  22.949  30.760  1.00  0.00    -0.048 A 
HETATM   17  C9  UNL     1      73.880  22.014  31.076  1.00  0.00     0.009 A 
HETATM   18  C10 UNL     1      74.324  21.908  32.366  1.00  0.00     0.017 A 
HETATM   19  C11 UNL     1      73.819  22.719  33.358  1.00  0.00     0.032 A 
HETATM   20  C18 UNL     1      72.846  23.648  33.033  1.00  0.00     0.017 A 
HETATM   21  C19 UNL     1      72.383  23.769  31.724  1.00  0.00     0.009 A 
BRANCH  19  22
HETATM   22  C12 UNL     1      74.336  22.562  34.718  1.00  0.00     0.252 C 
HETATM   23  O1  UNL     1      73.590  22.823  35.690  1.00  0.00    -0.268 OA
HETATM   24  N4  UNL     1      75.651  22.124  34.978  1.00  0.00    -0.342 N 
ATOM     25  H4  UNL     1      76.284  21.903  34.210  1.00  0.00     0.163 HD
BRANCH  24  26
HETATM   26  C13 UNL     1      76.094  21.991  36.362  1.00  0.00     0.186 C 
BRANCH  26  27
HETATM   27  C14 UNL     1      75.743  20.649  36.911  1.00  0.00     0.046 C 
BRANCH  27  28
HETATM   28  C15 UNL     1      75.267  20.730  38.326  1.00  0.00     0.116 C 
BRANCH  28  29
HETATM   29  C16 UNL     1      75.976  19.865  39.283  1.00  0.00     0.172 C 
HETATM   30  O2  UNL     1      77.216  19.719  39.312  1.00  0.00    -0.648 OA
HETATM   31  O3  UNL     1      75.234  19.153  40.226  1.00  0.00    -0.648 OA
ENDBRANCH  28  29
ENDBRANCH  27  28
ENDBRANCH  26  27
BRANCH  26  32
HETATM   32  C17 UNL     1      77.555  22.251  36.374  1.00  0.00     0.196 C 
HETATM   33  O4  UNL     1      78.151  22.388  35.275  1.00  0.00    -0.646 OA
HETATM   34  O5  UNL     1      78.304  22.357  37.514  1.00  0.00    -0.646 OA
ENDBRANCH  26  32
ENDBRANCH  24  26
ENDBRANCH  19  22
ENDBRANCH   1  16
BRANCH   1  35
HETATM   35  C20 UNL     1      71.080  22.327  29.206  1.00  0.00     0.268 C 
BRANCH  35  36
HETATM   36  O6  UNL     1      70.659  22.340  27.853  1.00  0.00    -0.358 OA
ATOM     37  H6  UNL     1      70.058  21.621  27.689  1.00  0.00     0.213 HD
ENDBRANCH  35  36
BRANCH  35  38
HETATM   38  O7  UNL     1      70.022  23.040  29.847  1.00  0.00    -0.358 OA
ATOM     39  H7  UNL     1      69.570  22.466  30.454  1.00  0.00     0.213 HD
ENDBRANCH  35  38
BRANCH  35  40
HETATM   40  C21 UNL     1      71.080  20.904  29.629  1.00  0.00     0.445 C 
HETATM   41  F1  UNL     1      69.993  20.223  29.005  1.00  0.00    -0.166 F 
HETATM   42  F2  UNL     1      72.168  20.161  29.225  1.00  0.00    -0.166 F 
HETATM   43  F3  UNL     1      70.966  20.714  31.004  1.00  0.00    -0.166 F 
ENDBRANCH  35  40
ENDBRANCH   1  35
TORSDOF 15
ENDMDL
