MODEL 3
REMARK VINA RESULT: -5.799632845      1.518      2.225
REMARK  1 active torsions:
REMARK  status: ('A' for Active; 'I' for Inactive)
REMARK    1  A    between atoms: C1_2  and  P1_4 
ROOT
HETATM    1  P1  UNL     1      36.470  37.392  16.542  1.00  0.00     0.364 P 
HETATM    2  O3  UNL     1      36.779  37.921  15.031  1.00  0.00    -0.632 OA
HETATM    3  O4  UNL     1      37.634  38.156  17.194  1.00  0.00    -0.632 OA
HETATM    4  O5  UNL     1      35.220  36.578  16.158  1.00  0.00    -0.632 OA
ENDROOT
BRANCH   1   5
HETATM    5  C1  UNL     1      37.232  35.875  17.036  1.00  0.00     0.307 C 
HETATM    6  O1  UNL     1      36.606  34.834  16.853  1.00  0.00    -0.637 OA
HETATM    7  O2  UNL     1      38.461  35.942  17.589  1.00  0.00    -0.637 OA
ENDBRANCH   1   5
TORSDOF 1
ENDMDL
