MODEL 10
REMARK VINA RESULT: -5.542627013      1.763      2.593
REMARK  1 active torsions:
REMARK  status: ('A' for Active; 'I' for Inactive)
REMARK    1  A    between atoms: C1_2  and  P1_4 
ROOT
HETATM    1  P1  UNL     1      36.309  37.075  16.535  1.00  0.00     0.364 P 
HETATM    2  O3  UNL     1      34.752  36.750  16.176  1.00  0.00    -0.632 OA
HETATM    3  O4  UNL     1      36.826  36.859  15.104  1.00  0.00    -0.632 OA
HETATM    4  O5  UNL     1      36.051  37.399  18.019  1.00  0.00    -0.632 OA
ENDROOT
BRANCH   1   5
HETATM    5  C1  UNL     1      37.313  35.720  17.068  1.00  0.00     0.307 C 
HETATM    6  O1  UNL     1      38.444  35.972  17.476  1.00  0.00    -0.637 OA
HETATM    7  O2  UNL     1      36.784  34.481  16.996  1.00  0.00    -0.637 OA
ENDBRANCH   1   5
TORSDOF 1
ENDMDL
