MODEL 8
REMARK VINA RESULT: -5.555841278      1.779      2.605
REMARK  1 active torsions:
REMARK  status: ('A' for Active; 'I' for Inactive)
REMARK    1  A    between atoms: C1_2  and  P1_4 
ROOT
HETATM    1  P1  UNL     1      36.298  37.061  16.555  1.00  0.00     0.364 P 
HETATM    2  O3  UNL     1      34.736  36.760  16.200  1.00  0.00    -0.632 OA
HETATM    3  O4  UNL     1      36.809  36.826  15.124  1.00  0.00    -0.632 OA
HETATM    4  O5  UNL     1      36.049  37.400  18.036  1.00  0.00    -0.632 OA
ENDROOT
BRANCH   1   5
HETATM    5  C1  UNL     1      37.280  35.694  17.095  1.00  0.00     0.307 C 
HETATM    6  O1  UNL     1      36.813  34.566  16.963  1.00  0.00    -0.637 OA
HETATM    7  O2  UNL     1      38.492  35.963  17.625  1.00  0.00    -0.637 OA
ENDBRANCH   1   5
TORSDOF 1
ENDMDL
