MODEL 11
REMARK VINA RESULT: -5.525251614      1.448      2.497
REMARK  1 active torsions:
REMARK  status: ('A' for Active; 'I' for Inactive)
REMARK    1  A    between atoms: C1_2  and  P1_4 
ROOT
HETATM    1  P1  UNL     1      36.256  37.369  16.746  1.00  0.00     0.364 P 
HETATM    2  O3  UNL     1      35.715  37.725  18.243  1.00  0.00    -0.632 OA
HETATM    3  O4  UNL     1      34.992  36.602  16.325  1.00  0.00    -0.632 OA
HETATM    4  O5  UNL     1      37.592  38.121  16.892  1.00  0.00    -0.632 OA
ENDROOT
BRANCH   1   5
HETATM    5  C1  UNL     1      37.185  35.876  16.559  1.00  0.00     0.307 C 
HETATM    6  O1  UNL     1      38.310  35.959  16.075  1.00  0.00    -0.637 OA
HETATM    7  O2  UNL     1      36.606  34.723  16.959  1.00  0.00    -0.637 OA
ENDBRANCH   1   5
TORSDOF 1
ENDMDL
