MODEL 12
REMARK VINA RESULT: -5.517508186      1.458      2.426
REMARK  1 active torsions:
REMARK  status: ('A' for Active; 'I' for Inactive)
REMARK    1  A    between atoms: C1_2  and  P1_4 
ROOT
HETATM    1  P1  UNL     1      36.250  37.351  16.751  1.00  0.00     0.364 P 
HETATM    2  O3  UNL     1      35.711  37.721  18.245  1.00  0.00    -0.632 OA
HETATM    3  O4  UNL     1      34.974  36.606  16.327  1.00  0.00    -0.632 OA
HETATM    4  O5  UNL     1      37.599  38.080  16.899  1.00  0.00    -0.632 OA
ENDROOT
BRANCH   1   5
HETATM    5  C1  UNL     1      37.153  35.842  16.570  1.00  0.00     0.307 C 
HETATM    6  O1  UNL     1      36.613  34.804  16.944  1.00  0.00    -0.637 OA
HETATM    7  O2  UNL     1      38.388  35.911  16.030  1.00  0.00    -0.637 OA
ENDBRANCH   1   5
TORSDOF 1
ENDMDL
