MODEL 4
REMARK VINA RESULT: -7.349078759      1.053      1.831
REMARK  14 active torsions:
REMARK  status: ('A' for Active; 'I' for Inactive)
REMARK    1  A    between atoms: C2_2  and  C3_3 
REMARK    2  A    between atoms: C3_3  and  C4_4 
REMARK    3  A    between atoms: C4_4  and  C5_5 
REMARK    4  A    between atoms: C5_5  and  N1_6 
REMARK       I    between atoms: N1_6  and  C6_8 
REMARK    5  A    between atoms: C6_8  and  C7_10 
REMARK    6  A    between atoms: C7_10  and  C8_11 
REMARK    7  A    between atoms: C7_10  and  N3_38 
REMARK    8  A    between atoms: C8_11  and  C9_12 
REMARK    9  A    between atoms: C12_15  and  N2_16 
REMARK   10  A    between atoms: N2_16  and  C13_17 
REMARK   11  A    between atoms: N2_16  and  C15_23 
REMARK   12  A    between atoms: C13_17  and  O2_18 
REMARK   13  A    between atoms: C13_17  and  C14_20 
REMARK   14  A    between atoms: C20_28  and  C21_29 
REMARK       I    between atoms: N3_38  and  C28_40 
ROOT
HETATM    1  C9  UNL     1      34.060  25.895  20.935  1.00  0.00    -0.026 A 
HETATM    2  C10 UNL     1      34.096  24.790  21.850  1.00  0.00     0.014 A 
HETATM    3  C11 UNL     1      34.912  23.734  21.751  1.00  0.00     0.032 A 
HETATM    4  C12 UNL     1      35.846  23.628  20.693  1.00  0.00     0.053 A 
HETATM    5  C22 UNL     1      35.851  24.644  19.796  1.00  0.00     0.002 A 
HETATM    6  C23 UNL     1      36.690  24.605  18.701  1.00  0.00     0.014 A 
HETATM    7  C24 UNL     1      36.656  25.605  17.738  1.00  0.00     0.001 A 
HETATM    8  C25 UNL     1      35.777  26.627  17.887  1.00  0.00     0.001 A 
HETATM    9  C26 UNL     1      34.938  26.704  18.962  1.00  0.00     0.013 A 
HETATM   10  C27 UNL     1      34.959  25.748  19.930  1.00  0.00    -0.014 A 
ENDROOT
BRANCH   1  11
HETATM   11  C8  UNL     1      33.135  26.908  21.321  1.00  0.00     0.020 C 
BRANCH  11  12
HETATM   12  C7  UNL     1      33.572  28.158  22.057  1.00  0.00     0.200 C 
BRANCH  12  13
HETATM   13  C6  UNL     1      34.643  28.134  22.999  1.00  0.00     0.244 C 
HETATM   14  N1  UNL     1      35.967  28.632  22.526  1.00  0.00    -0.359 N 
ATOM     15  H1  UNL     1      36.112  29.036  21.601  1.00  0.00     0.162 HD
HETATM   16  O1  UNL     1      34.733  27.739  24.149  1.00  0.00    -0.271 OA
BRANCH  14  17
HETATM   17  C5  UNL     1      37.015  28.492  23.492  1.00  0.00     0.122 C 
BRANCH  17  18
HETATM   18  C4  UNL     1      38.210  27.692  23.198  1.00  0.00     0.020 C 
BRANCH  18  19
HETATM   19  C3  UNL     1      37.859  26.747  22.040  1.00  0.00     0.001 C 
BRANCH  19  20
HETATM   20  C2  UNL     1      38.689  26.850  20.836  1.00  0.00    -0.004 C 
HETATM   21  C1  UNL     1      38.580  28.035  19.962  1.00  0.00     0.005 C 
ENDBRANCH  19  20
ENDBRANCH  18  19
ENDBRANCH  17  18
ENDBRANCH  14  17
ENDBRANCH  12  13
BRANCH  12  22
HETATM   22  N3  UNL     1      33.797  29.186  21.031  1.00  0.00    -0.345 N 
HETATM   23  C28 UNL     1      32.907  30.061  20.444  1.00  0.00     0.214 C 
HETATM   24  C29 UNL     1      33.394  31.067  19.398  1.00  0.00     0.117 C 
HETATM   25  O7  UNL     1      31.699  30.078  20.716  1.00  0.00    -0.274 OA
ATOM     26  H3  UNL     1      34.760  29.263  20.702  1.00  0.00     0.163 HD
ENDBRANCH  12  22
ENDBRANCH  11  12
ENDBRANCH   1  11
BRANCH   4  27
HETATM   27  N2  UNL     1      36.590  22.427  20.592  1.00  0.00    -0.285 N 
BRANCH  27  28
HETATM   28  C13 UNL     1      37.904  22.281  21.040  1.00  0.00     0.226 C 
BRANCH  28  29
HETATM   29  O2  UNL     1      38.570  21.404  20.217  1.00  0.00    -0.341 OA
ATOM     30  H2  UNL     1      39.077  21.893  19.580  1.00  0.00     0.219 HD
ENDBRANCH  28  29
BRANCH  28  31
HETATM   31  C14 UNL     1      38.768  22.738  22.042  1.00  0.00     0.252 C 
HETATM   32  O3  UNL     1      40.058  22.568  22.036  1.00  0.00    -0.641 OA
HETATM   33  O4  UNL     1      38.382  23.429  23.187  1.00  0.00    -0.641 OA
ENDBRANCH  28  31
ENDBRANCH  27  28
BRANCH  27  34
HETATM   34  C15 UNL     1      36.045  21.196  20.030  1.00  0.00     0.059 A 
HETATM   35  C16 UNL     1      35.959  20.997  18.692  1.00  0.00     0.031 A 
HETATM   36  C17 UNL     1      35.349  19.886  18.185  1.00  0.00     0.002 A 
HETATM   37  C18 UNL     1      34.814  18.972  19.085  1.00  0.00     0.001 A 
HETATM   38  C19 UNL     1      34.891  19.154  20.436  1.00  0.00     0.021 A 
HETATM   39  C20 UNL     1      35.529  20.297  20.952  1.00  0.00     0.068 A 
BRANCH  39  40
HETATM   40  C21 UNL     1      35.705  20.293  22.382  1.00  0.00     0.211 C 
HETATM   41  O5  UNL     1      36.066  21.191  23.160  1.00  0.00    -0.644 OA
HETATM   42  O6  UNL     1      35.427  19.080  23.119  1.00  0.00    -0.644 OA
ENDBRANCH  39  40
ENDBRANCH  27  34
ENDBRANCH   4  27
TORSDOF 14
ENDMDL
