MODEL 1
REMARK VINA RESULT: -7.591127850      0.000      0.000
REMARK  14 active torsions:
REMARK  status: ('A' for Active; 'I' for Inactive)
REMARK    1  A    between atoms: C2_2  and  C3_3 
REMARK    2  A    between atoms: C3_3  and  C4_4 
REMARK    3  A    between atoms: C4_4  and  C5_5 
REMARK    4  A    between atoms: C5_5  and  N1_6 
REMARK       I    between atoms: N1_6  and  C6_8 
REMARK    5  A    between atoms: C6_8  and  C7_10 
REMARK    6  A    between atoms: C7_10  and  C8_11 
REMARK    7  A    between atoms: C7_10  and  N3_38 
REMARK    8  A    between atoms: C8_11  and  C9_12 
REMARK    9  A    between atoms: C12_15  and  N2_16 
REMARK   10  A    between atoms: N2_16  and  C13_17 
REMARK   11  A    between atoms: N2_16  and  C15_23 
REMARK   12  A    between atoms: C13_17  and  O2_18 
REMARK   13  A    between atoms: C13_17  and  C14_20 
REMARK   14  A    between atoms: C20_28  and  C21_29 
REMARK       I    between atoms: N3_38  and  C28_40 
ROOT
HETATM    1  C9  UNL     1      34.031  25.839  20.952  1.00  0.00    -0.026 A 
HETATM    2  C10 UNL     1      33.851  24.721  21.833  1.00  0.00     0.014 A 
HETATM    3  C11 UNL     1      34.631  23.634  21.869  1.00  0.00     0.032 A 
HETATM    4  C12 UNL     1      35.747  23.506  21.006  1.00  0.00     0.053 A 
HETATM    5  C22 UNL     1      35.961  24.534  20.149  1.00  0.00     0.002 A 
HETATM    6  C23 UNL     1      36.992  24.476  19.234  1.00  0.00     0.014 A 
HETATM    7  C24 UNL     1      37.180  25.490  18.303  1.00  0.00     0.001 A 
HETATM    8  C25 UNL     1      36.327  26.544  18.304  1.00  0.00     0.001 A 
HETATM    9  C26 UNL     1      35.301  26.640  19.200  1.00  0.00     0.013 A 
HETATM   10  C27 UNL     1      35.101  25.670  20.134  1.00  0.00    -0.014 A 
ENDROOT
BRANCH   1  11
HETATM   11  C8  UNL     1      33.088  26.883  21.175  1.00  0.00     0.020 C 
BRANCH  11  12
HETATM   12  C7  UNL     1      33.439  28.131  21.959  1.00  0.00     0.200 C 
BRANCH  12  13
HETATM   13  C6  UNL     1      34.476  28.130  22.937  1.00  0.00     0.244 C 
HETATM   14  N1  UNL     1      35.823  28.590  22.491  1.00  0.00    -0.359 N 
ATOM     15  H1  UNL     1      36.006  28.953  21.555  1.00  0.00     0.162 HD
HETATM   16  O1  UNL     1      34.521  27.782  24.106  1.00  0.00    -0.271 OA
BRANCH  14  17
HETATM   17  C5  UNL     1      36.835  28.475  23.498  1.00  0.00     0.122 C 
BRANCH  17  18
HETATM   18  C4  UNL     1      37.864  27.429  23.418  1.00  0.00     0.020 C 
BRANCH  18  19
HETATM   19  C3  UNL     1      37.898  26.926  21.968  1.00  0.00     0.001 C 
BRANCH  19  20
HETATM   20  C2  UNL     1      38.965  27.457  21.115  1.00  0.00    -0.004 C 
HETATM   21  C1  UNL     1      38.679  28.556  20.172  1.00  0.00     0.005 C 
ENDBRANCH  19  20
ENDBRANCH  18  19
ENDBRANCH  17  18
ENDBRANCH  14  17
ENDBRANCH  12  13
BRANCH  12  22
HETATM   22  N3  UNL     1      33.650  29.196  20.969  1.00  0.00    -0.345 N 
HETATM   23  C28 UNL     1      32.755  30.100  20.437  1.00  0.00     0.214 C 
HETATM   24  C29 UNL     1      33.227  31.144  19.421  1.00  0.00     0.117 C 
HETATM   25  O7  UNL     1      31.553  30.117  20.738  1.00  0.00    -0.274 OA
ATOM     26  H3  UNL     1      34.605  29.279  20.621  1.00  0.00     0.163 HD
ENDBRANCH  12  22
ENDBRANCH  11  12
ENDBRANCH   1  11
BRANCH   4  27
HETATM   27  N2  UNL     1      36.452  22.278  21.024  1.00  0.00    -0.285 N 
BRANCH  27  28
HETATM   28  C13 UNL     1      37.835  22.172  21.185  1.00  0.00     0.226 C 
BRANCH  28  29
HETATM   29  O2  UNL     1      38.354  21.415  20.161  1.00  0.00    -0.341 OA
ATOM     30  H2  UNL     1      39.106  21.862  19.790  1.00  0.00     0.219 HD
ENDBRANCH  28  29
BRANCH  28  31
HETATM   31  C14 UNL     1      38.865  22.587  22.035  1.00  0.00     0.252 C 
HETATM   32  O3  UNL     1      38.682  23.175  23.182  1.00  0.00    -0.641 OA
HETATM   33  O4  UNL     1      40.226  22.443  21.784  1.00  0.00    -0.641 OA
ENDBRANCH  28  31
ENDBRANCH  27  28
BRANCH  27  34
HETATM   34  C15 UNL     1      35.797  20.980  20.905  1.00  0.00     0.059 A 
HETATM   35  C16 UNL     1      35.663  20.145  21.964  1.00  0.00     0.031 A 
HETATM   36  C17 UNL     1      35.144  18.892  21.810  1.00  0.00     0.002 A 
HETATM   37  C18 UNL     1      34.765  18.500  20.532  1.00  0.00     0.001 A 
HETATM   38  C19 UNL     1      34.891  19.326  19.452  1.00  0.00     0.021 A 
HETATM   39  C20 UNL     1      35.418  20.619  19.620  1.00  0.00     0.068 A 
BRANCH  39  40
HETATM   40  C21 UNL     1      35.338  21.458  18.450  1.00  0.00     0.211 C 
HETATM   41  O5  UNL     1      34.404  22.146  18.006  1.00  0.00    -0.644 OA
HETATM   42  O6  UNL     1      36.499  21.583  17.597  1.00  0.00    -0.644 OA
ENDBRANCH  39  40
ENDBRANCH  27  34
ENDBRANCH   4  27
TORSDOF 14
ENDMDL
