MODEL 2
REMARK VINA RESULT: -7.417631437      2.039      3.913
REMARK  14 active torsions:
REMARK  status: ('A' for Active; 'I' for Inactive)
REMARK    1  A    between atoms: C2_2  and  C3_3 
REMARK    2  A    between atoms: C3_3  and  C4_4 
REMARK    3  A    between atoms: C4_4  and  C5_5 
REMARK    4  A    between atoms: C5_5  and  N1_6 
REMARK       I    between atoms: N1_6  and  C6_8 
REMARK    5  A    between atoms: C6_8  and  C7_10 
REMARK    6  A    between atoms: C7_10  and  C8_11 
REMARK    7  A    between atoms: C7_10  and  N3_38 
REMARK    8  A    between atoms: C8_11  and  C9_12 
REMARK    9  A    between atoms: C12_15  and  N2_16 
REMARK   10  A    between atoms: N2_16  and  C13_17 
REMARK   11  A    between atoms: N2_16  and  C15_23 
REMARK   12  A    between atoms: C13_17  and  O2_18 
REMARK   13  A    between atoms: C13_17  and  C14_20 
REMARK   14  A    between atoms: C20_28  and  C21_29 
REMARK       I    between atoms: N3_38  and  C28_40 
ROOT
HETATM    1  C9  UNL     1      33.650  27.552  21.638  1.00  0.00    -0.026 A 
HETATM    2  C10 UNL     1      33.396  26.474  20.726  1.00  0.00     0.014 A 
HETATM    3  C11 UNL     1      34.286  25.540  20.369  1.00  0.00     0.032 A 
HETATM    4  C12 UNL     1      35.600  25.544  20.896  1.00  0.00     0.053 A 
HETATM    5  C22 UNL     1      35.895  26.545  21.761  1.00  0.00     0.002 A 
HETATM    6  C23 UNL     1      37.166  26.663  22.286  1.00  0.00     0.014 A 
HETATM    7  C24 UNL     1      37.501  27.723  23.117  1.00  0.00     0.001 A 
HETATM    8  C25 UNL     1      36.556  28.652  23.405  1.00  0.00     0.001 A 
HETATM    9  C26 UNL     1      35.285  28.564  22.912  1.00  0.00     0.013 A 
HETATM   10  C27 UNL     1      34.922  27.527  22.108  1.00  0.00    -0.014 A 
ENDROOT
BRANCH   1  11
HETATM   11  C8  UNL     1      32.501  28.360  21.880  1.00  0.00     0.020 C 
BRANCH  11  12
HETATM   12  C7  UNL     1      32.053  29.434  20.910  1.00  0.00     0.200 C 
BRANCH  12  13
HETATM   13  C6  UNL     1      32.970  30.058  20.014  1.00  0.00     0.244 C 
HETATM   14  N1  UNL     1      33.136  29.427  18.673  1.00  0.00    -0.359 N 
ATOM     15  H1  UNL     1      32.588  28.626  18.362  1.00  0.00     0.162 HD
HETATM   16  O1  UNL     1      33.716  31.018  20.118  1.00  0.00    -0.271 OA
BRANCH  14  17
HETATM   17  C5  UNL     1      34.138  30.052  17.862  1.00  0.00     0.122 C 
BRANCH  17  18
HETATM   18  C4  UNL     1      35.309  29.297  17.394  1.00  0.00     0.020 C 
BRANCH  18  19
HETATM   19  C3  UNL     1      35.922  28.596  18.614  1.00  0.00     0.001 C 
BRANCH  19  20
HETATM   20  C2  UNL     1      36.755  29.419  19.494  1.00  0.00    -0.004 C 
HETATM   21  C1  UNL     1      38.165  29.052  19.733  1.00  0.00     0.005 C 
ENDBRANCH  19  20
ENDBRANCH  18  19
ENDBRANCH  17  18
ENDBRANCH  14  17
ENDBRANCH  12  13
BRANCH  12  22
HETATM   22  N3  UNL     1      30.901  28.882  20.184  1.00  0.00    -0.345 N 
HETATM   23  C28 UNL     1      29.670  29.445  19.918  1.00  0.00     0.214 C 
HETATM   24  C29 UNL     1      28.626  28.668  19.112  1.00  0.00     0.117 C 
HETATM   25  O7  UNL     1      29.346  30.575  20.309  1.00  0.00    -0.274 OA
ATOM     26  H3  UNL     1      31.031  27.938  19.821  1.00  0.00     0.163 HD
ENDBRANCH  12  22
ENDBRANCH  11  12
ENDBRANCH   1  11
BRANCH   4  27
HETATM   27  N2  UNL     1      36.516  24.593  20.381  1.00  0.00    -0.285 N 
BRANCH  27  28
HETATM   28  C13 UNL     1      37.692  24.926  19.708  1.00  0.00     0.226 C 
BRANCH  28  29
HETATM   29  O2  UNL     1      37.380  25.406  18.458  1.00  0.00    -0.341 OA
ATOM     30  H2  UNL     1      36.994  26.270  18.541  1.00  0.00     0.219 HD
ENDBRANCH  28  29
BRANCH  28  31
HETATM   31  C14 UNL     1      39.080  24.939  19.886  1.00  0.00     0.252 C 
HETATM   32  O3  UNL     1      39.869  23.944  19.604  1.00  0.00    -0.641 OA
HETATM   33  O4  UNL     1      39.817  26.005  20.395  1.00  0.00    -0.641 OA
ENDBRANCH  28  31
ENDBRANCH  27  28
BRANCH  27  34
HETATM   34  C15 UNL     1      36.336  23.153  20.528  1.00  0.00     0.059 A 
HETATM   35  C16 UNL     1      35.720  22.408  19.578  1.00  0.00     0.031 A 
HETATM   36  C17 UNL     1      35.466  21.082  19.780  1.00  0.00     0.002 A 
HETATM   37  C18 UNL     1      35.854  20.525  20.993  1.00  0.00     0.001 A 
HETATM   38  C19 UNL     1      36.476  21.258  21.962  1.00  0.00     0.021 A 
HETATM   39  C20 UNL     1      36.743  22.622  21.743  1.00  0.00     0.068 A 
BRANCH  39  40
HETATM   40  C21 UNL     1      37.557  23.245  22.756  1.00  0.00     0.211 C 
HETATM   41  O5  UNL     1      37.245  23.943  23.735  1.00  0.00    -0.644 OA
HETATM   42  O6  UNL     1      38.992  23.071  22.706  1.00  0.00    -0.644 OA
ENDBRANCH  39  40
ENDBRANCH  27  34
ENDBRANCH   4  27
TORSDOF 14
ENDMDL
