MODEL 1
REMARK VINA RESULT: -4.794704355      0.000      0.000
REMARK  0 active torsions:
REMARK  status: ('A' for Active; 'I' for Inactive)
ROOT
HETATM    1  N1  UNL     1       0.648  30.526  -0.047  1.00  0.00    -0.080 NA
HETATM    2  C1  UNL     1       2.039  30.527   0.215  1.00  0.00     0.147 A 
HETATM    3  N2  UNL     1       2.671  29.503   0.802  1.00  0.00    -0.339 N 
ATOM      4  H2  UNL     1       2.119  28.689   1.070  1.00  0.00     0.167 HD
HETATM    5  C2  UNL     1       3.991  29.485   1.059  1.00  0.00     0.183 A 
HETATM    6  N3  UNL     1       4.716  30.562   0.704  1.00  0.00    -0.337 N 
ATOM      7  H3  UNL     1       5.718  30.563   0.892  1.00  0.00     0.168 HD
HETATM    8  C3  UNL     1       4.162  31.648   0.102  1.00  0.00     0.137 A 
HETATM    9  N4  UNL     1       4.612  32.818  -0.348  1.00  0.00    -0.337 N 
ATOM     10  H4  UNL     1       5.583  33.127  -0.306  1.00  0.00     0.168 HD
HETATM   11  C4  UNL     1       3.597  33.531  -0.866  1.00  0.00     0.182 A 
HETATM   12  N5  UNL     1       2.495  32.774  -0.727  1.00  0.00    -0.347 N 
ATOM     13  H5  UNL     1       1.558  33.044  -1.027  1.00  0.00     0.167 HD
HETATM   14  C5  UNL     1       2.805  31.630  -0.146  1.00  0.00     0.119 A 
ENDROOT
TORSDOF 0
ENDMDL
