MODEL 2
REMARK VINA RESULT: -4.748885814      0.939      2.491
REMARK  0 active torsions:
REMARK  status: ('A' for Active; 'I' for Inactive)
ROOT
HETATM    1  N1  UNL     1       6.115  30.334   0.757  1.00  0.00    -0.080 NA
HETATM    2  C1  UNL     1       4.711  30.430   0.603  1.00  0.00     0.147 A 
HETATM    3  N2  UNL     1       3.872  29.441   0.938  1.00  0.00    -0.339 N 
ATOM      4  H2  UNL     1       4.270  28.584   1.321  1.00  0.00     0.167 HD
HETATM    5  C2  UNL     1       2.536  29.512   0.798  1.00  0.00     0.183 A 
HETATM    6  N3  UNL     1       2.016  30.646   0.292  1.00  0.00    -0.337 N 
ATOM      7  H3  UNL     1       1.005  30.715   0.181  1.00  0.00     0.168 HD
HETATM    8  C3  UNL     1       2.788  31.703  -0.076  1.00  0.00     0.137 A 
HETATM    9  N4  UNL     1       2.564  32.911  -0.588  1.00  0.00    -0.337 N 
ATOM     10  H4  UNL     1       1.645  33.287  -0.818  1.00  0.00     0.168 HD
HETATM   11  C4  UNL     1       3.728  33.561  -0.757  1.00  0.00     0.182 A 
HETATM   12  N5  UNL     1       4.692  32.724  -0.336  1.00  0.00    -0.347 N 
ATOM     13  H5  UNL     1       5.691  32.932  -0.339  1.00  0.00     0.167 HD
HETATM   14  C5  UNL     1       4.155  31.593   0.082  1.00  0.00     0.119 A 
ENDROOT
TORSDOF 0
ENDMDL
