MODEL 5
REMARK VINA RESULT: -4.518481054      1.676      3.582
REMARK  0 active torsions:
REMARK  status: ('A' for Active; 'I' for Inactive)
ROOT
HETATM    1  N1  UNL     1       1.359  31.176  -0.118  1.00  0.00    -0.080 NA
HETATM    2  C1  UNL     1       2.590  30.566   0.220  1.00  0.00     0.147 A 
HETATM    3  N2  UNL     1       3.745  31.239   0.279  1.00  0.00    -0.339 N 
ATOM      4  H2  UNL     1       3.730  32.238   0.070  1.00  0.00     0.167 HD
HETATM    5  C2  UNL     1       4.926  30.678   0.598  1.00  0.00     0.183 A 
HETATM    6  N3  UNL     1       4.941  29.361   0.873  1.00  0.00    -0.337 N 
ATOM      7  H3  UNL     1       5.828  28.920   1.117  1.00  0.00     0.168 HD
HETATM    8  C3  UNL     1       3.819  28.594   0.840  1.00  0.00     0.137 A 
HETATM    9  N4  UNL     1       3.536  27.312   1.057  1.00  0.00    -0.337 N 
ATOM     10  H4  UNL     1       4.217  26.599   1.320  1.00  0.00     0.168 HD
HETATM   11  C4  UNL     1       2.222  27.094   0.877  1.00  0.00     0.182 A 
HETATM   12  N5  UNL     1       1.686  28.280   0.539  1.00  0.00    -0.347 N 
ATOM     13  H5  UNL     1       0.700  28.440   0.336  1.00  0.00     0.167 HD
HETATM   14  C5  UNL     1       2.626  29.206   0.509  1.00  0.00     0.119 A 
ENDROOT
TORSDOF 0
ENDMDL
