MODEL 10
REMARK VINA RESULT: -10.302665904      6.336      8.465
REMARK  15 active torsions:
REMARK  status: ('A' for Active; 'I' for Inactive)
REMARK    1  A    between atoms: C1_2  and  C2_4 
REMARK    2  A    between atoms: N2_8  and  C6_9 
REMARK    3  A    between atoms: C7_11  and  C8_12 
REMARK    4  A    between atoms: C8_12  and  O3_13 
REMARK    5  A    between atoms: O3_13  and  P1_14 
REMARK    6  A    between atoms: P1_14  and  O6_17 
REMARK    7  A    between atoms: O6_17  and  P2_18 
REMARK    8  A    between atoms: P2_18  and  O9_21 
REMARK    9  A    between atoms: O9_21  and  C9_22 
REMARK   10  A    between atoms: C9_22  and  C10_23 
REMARK   11  A    between atoms: C11_25  and  N3_26 
REMARK   12  A    between atoms: C17_39  and  O11_40 
REMARK   13  A    between atoms: C18_42  and  O12_43 
REMARK   14  A    between atoms: C19_45  and  O13_46 
REMARK   15  A    between atoms: C20_48  and  O14_49 
ROOT
HETATM    1  P2  UNL     1      -8.144   5.136  26.474  1.00  0.00     0.417 P 
HETATM    2  O7  UNL     1      -8.932   5.181  27.748  1.00  0.00    -0.624 OA
HETATM    3  O8  UNL     1      -7.794   6.806  26.087  1.00  0.00    -0.624 OA
ENDROOT
BRANCH   1   4
HETATM    4  O6  UNL     1      -6.768   4.300  26.573  1.00  0.00    -0.180 OA
BRANCH   4   5
HETATM    5  P1  UNL     1      -6.343   3.343  25.294  1.00  0.00     0.417 P 
HETATM    6  O4  UNL     1      -6.859   1.969  25.352  1.00  0.00    -0.624 OA
HETATM    7  O5  UNL     1      -4.565   3.123  25.396  1.00  0.00    -0.624 OA
BRANCH   5   8
HETATM    8  O3  UNL     1      -6.559   4.127  23.872  1.00  0.00    -0.287 OA
BRANCH   8   9
HETATM    9  C8  UNL     1      -5.499   4.998  23.534  1.00  0.00     0.216 C 
BRANCH   9  10
HETATM   10  C7  UNL     1      -6.208   5.900  22.478  1.00  0.00     0.180 C 
HETATM   11  O2  UNL     1      -5.492   7.062  22.334  1.00  0.00    -0.353 OA
HETATM   12  C6  UNL     1      -5.298   7.365  21.007  1.00  0.00     0.259 C 
HETATM   13  C20 UNL     1      -6.389   6.566  20.286  1.00  0.00     0.198 C 
HETATM   14  C19 UNL     1      -6.362   5.275  21.157  1.00  0.00     0.182 C 
BRANCH  12  15
HETATM   15  N2  UNL     1      -4.016   6.718  20.654  1.00  0.00    -0.336 N 
HETATM   16  C5  UNL     1      -2.923   6.871  21.404  1.00  0.00     0.093 A 
HETATM   17  C4  UNL     1      -1.707   6.342  20.973  1.00  0.00     0.018 A 
HETATM   18  C3  UNL     1      -1.641   5.674  19.785  1.00  0.00     0.019 A 
HETATM   19  C2  UNL     1      -2.782   5.539  19.039  1.00  0.00     0.044 A 
HETATM   20  C21 UNL     1      -3.974   6.068  19.485  1.00  0.00     0.110 A 
BRANCH  19  21
HETATM   21  C1  UNL     1      -2.753   4.879  17.748  1.00  0.00     0.266 C 
HETATM   22  N1  UNL     1      -2.317   5.583  16.602  1.00  0.00    -0.057 NA
HETATM   23  O1  UNL     1      -3.113   3.664  17.580  1.00  0.00    -0.271 OA
ENDBRANCH  19  21
ENDBRANCH  12  15
BRANCH  13  24
HETATM   24  O14 UNL     1      -7.634   7.145  20.528  1.00  0.00    -0.388 OA
ATOM     25  H14 UNL     1      -7.947   7.573  19.739  1.00  0.00     0.210 HD
ENDBRANCH  13  24
BRANCH  14  26
HETATM   26  O13 UNL     1      -7.543   4.546  20.977  1.00  0.00    -0.390 OA
ATOM     27  H13 UNL     1      -7.511   3.645  21.275  1.00  0.00     0.210 HD
ENDBRANCH  14  26
ENDBRANCH   9  10
ENDBRANCH   8   9
ENDBRANCH   5   8
ENDBRANCH   4   5
ENDBRANCH   1   4
BRANCH   1  28
HETATM   28  O9  UNL     1      -9.276   4.712  25.237  1.00  0.00    -0.287 OA
BRANCH  28  29
HETATM   29  C9  UNL     1     -10.486   4.522  25.983  1.00  0.00     0.216 C 
BRANCH  29  30
HETATM   30  C10 UNL     1     -11.521   5.416  25.445  1.00  0.00     0.180 C 
HETATM   31  O10 UNL     1     -12.153   6.092  26.526  1.00  0.00    -0.353 OA
HETATM   32  C11 UNL     1     -13.028   6.922  25.793  1.00  0.00     0.262 C 
HETATM   33  C17 UNL     1     -11.921   7.685  25.016  1.00  0.00     0.198 C 
HETATM   34  C18 UNL     1     -11.087   6.470  24.518  1.00  0.00     0.182 C 
BRANCH  32  35
HETATM   35  N3  UNL     1     -13.754   7.742  26.682  1.00  0.00    -0.297 N 
HETATM   36  C12 UNL     1     -13.283   8.722  27.526  1.00  0.00     0.188 A 
HETATM   37  N4  UNL     1     -14.288   9.281  28.202  1.00  0.00    -0.346 N 
HETATM   38  C13 UNL     1     -15.430   8.662  27.783  1.00  0.00     0.119 A 
ATOM     39  H4  UNL     1     -14.216  10.025  28.895  1.00  0.00     0.167 HD
HETATM   40  C14 UNL     1     -16.733   8.834  28.152  1.00  0.00     0.148 A 
HETATM   41  C16 UNL     1     -15.074   7.707  26.843  1.00  0.00     0.142 A 
HETATM   42  N5  UNL     1     -17.104   9.839  29.090  1.00  0.00    -0.080 NA
HETATM   43  N6  UNL     1     -17.688   8.063  27.609  1.00  0.00    -0.339 N 
HETATM   44  C15 UNL     1     -17.371   7.128  26.709  1.00  0.00     0.183 A 
ATOM     45  H6  UNL     1     -18.662   8.191  27.886  1.00  0.00     0.167 HD
HETATM   46  N7  UNL     1     -16.065   6.964  26.336  1.00  0.00    -0.336 N 
ATOM     47  H7  UNL     1     -15.839   6.248  25.646  1.00  0.00     0.168 HD
ENDBRANCH  32  35
BRANCH  33  48
HETATM   48  O11 UNL     1     -12.386   8.491  24.035  1.00  0.00    -0.388 OA
ATOM     49  H11 UNL     1     -11.934   8.395  23.205  1.00  0.00     0.210 HD
ENDBRANCH  33  48
BRANCH  34  50
HETATM   50  O12 UNL     1     -11.594   6.190  23.211  1.00  0.00    -0.390 OA
ATOM     51  H12 UNL     1     -12.433   6.623  23.099  1.00  0.00     0.210 HD
ENDBRANCH  34  50
ENDBRANCH  29  30
ENDBRANCH  28  29
ENDBRANCH   1  28
TORSDOF 15
ENDMDL
