MODEL 5
REMARK VINA RESULT: -10.607901227      3.325     11.750
REMARK  15 active torsions:
REMARK  status: ('A' for Active; 'I' for Inactive)
REMARK    1  A    between atoms: C1_2  and  C2_4 
REMARK    2  A    between atoms: N2_8  and  C6_9 
REMARK    3  A    between atoms: C7_11  and  C8_12 
REMARK    4  A    between atoms: C8_12  and  O3_13 
REMARK    5  A    between atoms: O3_13  and  P1_14 
REMARK    6  A    between atoms: P1_14  and  O6_17 
REMARK    7  A    between atoms: O6_17  and  P2_18 
REMARK    8  A    between atoms: P2_18  and  O9_21 
REMARK    9  A    between atoms: O9_21  and  C9_22 
REMARK   10  A    between atoms: C9_22  and  C10_23 
REMARK   11  A    between atoms: C11_25  and  N3_26 
REMARK   12  A    between atoms: C17_39  and  O11_40 
REMARK   13  A    between atoms: C18_42  and  O12_43 
REMARK   14  A    between atoms: C19_45  and  O13_46 
REMARK   15  A    between atoms: C20_48  and  O14_49 
ROOT
HETATM    1  P2  UNL     1      -6.757   5.856  22.844  1.00  0.00     0.417 P 
HETATM    2  O7  UNL     1      -7.846   5.750  21.818  1.00  0.00    -0.624 OA
HETATM    3  O8  UNL     1      -5.282   6.080  21.930  1.00  0.00    -0.624 OA
ENDROOT
BRANCH   1   4
HETATM    4  O6  UNL     1      -6.943   7.073  23.886  1.00  0.00    -0.180 OA
BRANCH   4   5
HETATM    5  P1  UNL     1      -7.691   8.449  23.354  1.00  0.00     0.417 P 
HETATM    6  O4  UNL     1      -7.047   9.096  22.204  1.00  0.00    -0.624 OA
HETATM    7  O5  UNL     1      -7.514   9.660  24.666  1.00  0.00    -0.624 OA
BRANCH   5   8
HETATM    8  O3  UNL     1      -9.311   8.233  23.238  1.00  0.00    -0.287 OA
BRANCH   8   9
HETATM    9  C8  UNL     1     -10.003   8.445  24.451  1.00  0.00     0.216 C 
BRANCH   9  10
HETATM   10  C7  UNL     1     -10.320   6.971  24.850  1.00  0.00     0.180 C 
HETATM   11  O2  UNL     1     -10.395   6.888  26.218  1.00  0.00    -0.353 OA
HETATM   12  C6  UNL     1     -11.513   6.191  26.613  1.00  0.00     0.259 C 
HETATM   13  C20 UNL     1     -11.899   5.385  25.368  1.00  0.00     0.198 C 
HETATM   14  C19 UNL     1     -11.566   6.445  24.277  1.00  0.00     0.182 C 
BRANCH  12  15
HETATM   15  N2  UNL     1     -12.562   7.220  26.776  1.00  0.00    -0.336 N 
HETATM   16  C5  UNL     1     -12.306   8.398  27.348  1.00  0.00     0.093 A 
HETATM   17  C4  UNL     1     -13.348   9.293  27.589  1.00  0.00     0.018 A 
HETATM   18  C3  UNL     1     -14.625   8.956  27.242  1.00  0.00     0.019 A 
HETATM   19  C2  UNL     1     -14.851   7.737  26.660  1.00  0.00     0.044 A 
HETATM   20  C21 UNL     1     -13.806   6.869  26.429  1.00  0.00     0.110 A 
BRANCH  19  21
HETATM   21  C1  UNL     1     -16.196   7.314  26.318  1.00  0.00     0.266 C 
HETATM   22  N1  UNL     1     -17.271   8.226  26.412  1.00  0.00    -0.057 NA
HETATM   23  O1  UNL     1     -16.473   6.129  25.927  1.00  0.00    -0.271 OA
ENDBRANCH  19  21
ENDBRANCH  12  15
BRANCH  13  24
HETATM   24  O14 UNL     1     -10.982   4.355  25.171  1.00  0.00    -0.388 OA
ATOM     25  H14 UNL     1     -11.198   3.620  25.733  1.00  0.00     0.210 HD
ENDBRANCH  13  24
BRANCH  14  26
HETATM   26  O13 UNL     1     -11.433   5.827  23.028  1.00  0.00    -0.390 OA
ATOM     27  H13 UNL     1     -11.196   6.407  22.314  1.00  0.00     0.210 HD
ENDBRANCH  14  26
ENDBRANCH   9  10
ENDBRANCH   8   9
ENDBRANCH   5   8
ENDBRANCH   4   5
ENDBRANCH   1   4
BRANCH   1  28
HETATM   28  O9  UNL     1      -6.550   4.259  23.474  1.00  0.00    -0.287 OA
BRANCH  28  29
HETATM   29  C9  UNL     1      -6.050   4.513  24.794  1.00  0.00     0.216 C 
BRANCH  29  30
HETATM   30  C10 UNL     1      -6.374   3.367  25.653  1.00  0.00     0.180 C 
HETATM   31  O10 UNL     1      -5.584   3.439  26.835  1.00  0.00    -0.353 OA
HETATM   32  C11 UNL     1      -6.099   2.319  27.520  1.00  0.00     0.262 C 
HETATM   33  C17 UNL     1      -7.563   2.832  27.601  1.00  0.00     0.198 C 
HETATM   34  C18 UNL     1      -7.763   3.239  26.113  1.00  0.00     0.182 C 
BRANCH  32  35
HETATM   35  N3  UNL     1      -5.474   2.210  28.780  1.00  0.00    -0.297 N 
HETATM   36  C12 UNL     1      -4.425   2.943  29.286  1.00  0.00     0.188 A 
HETATM   37  N4  UNL     1      -4.127   2.545  30.523  1.00  0.00    -0.346 N 
HETATM   38  C13 UNL     1      -5.003   1.543  30.830  1.00  0.00     0.119 A 
ATOM     39  H4  UNL     1      -3.389   2.915  31.122  1.00  0.00     0.167 HD
HETATM   40  C14 UNL     1      -5.137   0.780  31.954  1.00  0.00     0.148 A 
HETATM   41  C16 UNL     1      -5.827   1.350  29.732  1.00  0.00     0.142 A 
HETATM   42  N5  UNL     1      -4.316   1.002  33.095  1.00  0.00    -0.080 NA
HETATM   43  N6  UNL     1      -6.072  -0.182  31.999  1.00  0.00    -0.339 N 
HETATM   44  C15 UNL     1      -6.872  -0.397  30.951  1.00  0.00     0.183 A 
ATOM     45  H6  UNL     1      -6.172  -0.753  32.839  1.00  0.00     0.167 HD
HETATM   46  N7  UNL     1      -6.739   0.375  29.830  1.00  0.00    -0.336 N 
ATOM     47  H7  UNL     1      -7.359   0.202  29.038  1.00  0.00     0.168 HD
ENDBRANCH  32  35
BRANCH  33  48
HETATM   48  O11 UNL     1      -8.446   1.919  28.060  1.00  0.00    -0.388 OA
ATOM     49  H11 UNL     1      -9.127   2.279  28.617  1.00  0.00     0.210 HD
ENDBRANCH  33  48
BRANCH  34  50
HETATM   50  O12 UNL     1      -8.362   2.095  25.499  1.00  0.00    -0.390 OA
ATOM     51  H12 UNL     1      -9.254   2.304  25.247  1.00  0.00     0.210 HD
ENDBRANCH  34  50
ENDBRANCH  29  30
ENDBRANCH  28  29
ENDBRANCH   1  28
TORSDOF 15
ENDMDL
