MODEL 3
REMARK VINA RESULT: -10.825322407      4.834      6.694
REMARK  15 active torsions:
REMARK  status: ('A' for Active; 'I' for Inactive)
REMARK    1  A    between atoms: C1_2  and  C2_4 
REMARK    2  A    between atoms: N2_8  and  C6_9 
REMARK    3  A    between atoms: C7_11  and  C8_12 
REMARK    4  A    between atoms: C8_12  and  O3_13 
REMARK    5  A    between atoms: O3_13  and  P1_14 
REMARK    6  A    between atoms: P1_14  and  O6_17 
REMARK    7  A    between atoms: O6_17  and  P2_18 
REMARK    8  A    between atoms: P2_18  and  O9_21 
REMARK    9  A    between atoms: O9_21  and  C9_22 
REMARK   10  A    between atoms: C9_22  and  C10_23 
REMARK   11  A    between atoms: C11_25  and  N3_26 
REMARK   12  A    between atoms: C17_39  and  O11_40 
REMARK   13  A    between atoms: C18_42  and  O12_43 
REMARK   14  A    between atoms: C19_45  and  O13_46 
REMARK   15  A    between atoms: C20_48  and  O14_49 
ROOT
HETATM    1  P2  UNL     1     -12.131   6.559  25.948  1.00  0.00     0.417 P 
HETATM    2  O7  UNL     1     -11.711   5.364  26.750  1.00  0.00    -0.624 OA
HETATM    3  O8  UNL     1     -11.660   7.947  26.903  1.00  0.00    -0.624 OA
ENDROOT
BRANCH   1   4
HETATM    4  O6  UNL     1     -11.455   6.648  24.486  1.00  0.00    -0.180 OA
BRANCH   4   5
HETATM    5  P1  UNL     1      -9.970   7.364  24.356  1.00  0.00     0.417 P 
HETATM    6  O4  UNL     1     -10.001   8.801  24.055  1.00  0.00    -0.624 OA
HETATM    7  O5  UNL     1      -9.192   6.652  22.904  1.00  0.00    -0.624 OA
BRANCH   5   8
HETATM    8  O3  UNL     1      -8.987   6.913  25.586  1.00  0.00    -0.287 OA
BRANCH   8   9
HETATM    9  C8  UNL     1      -7.900   6.106  25.182  1.00  0.00     0.216 C 
BRANCH   9  10
HETATM   10  C7  UNL     1      -8.389   4.712  25.682  1.00  0.00     0.180 C 
HETATM   11  O2  UNL     1      -7.729   3.733  24.981  1.00  0.00    -0.353 OA
HETATM   12  C6  UNL     1      -7.243   2.761  25.824  1.00  0.00     0.259 C 
HETATM   13  C20 UNL     1      -8.083   2.927  27.096  1.00  0.00     0.198 C 
HETATM   14  C19 UNL     1      -8.187   4.481  27.118  1.00  0.00     0.182 C 
BRANCH  12  15
HETATM   15  N2  UNL     1      -5.879   3.210  26.174  1.00  0.00    -0.336 N 
HETATM   16  C5  UNL     1      -5.452   3.240  27.438  1.00  0.00     0.093 A 
HETATM   17  C4  UNL     1      -4.202   3.781  27.735  1.00  0.00     0.018 A 
HETATM   18  C3  UNL     1      -3.422   4.280  26.731  1.00  0.00     0.019 A 
HETATM   19  C2  UNL     1      -3.894   4.234  25.446  1.00  0.00     0.044 A 
HETATM   20  C21 UNL     1      -5.132   3.694  25.174  1.00  0.00     0.110 A 
BRANCH  19  21
HETATM   21  C1  UNL     1      -3.123   4.794  24.352  1.00  0.00     0.266 C 
HETATM   22  N1  UNL     1      -3.738   5.667  23.426  1.00  0.00    -0.057 NA
HETATM   23  O1  UNL     1      -1.886   4.532  24.169  1.00  0.00    -0.271 OA
ENDBRANCH  19  21
ENDBRANCH  12  15
BRANCH  13  24
HETATM   24  O14 UNL     1      -9.381   2.476  26.865  1.00  0.00    -0.388 OA
ATOM     25  H14 UNL     1      -9.997   2.998  27.367  1.00  0.00     0.210 HD
ENDBRANCH  13  24
BRANCH  14  26
HETATM   26  O13 UNL     1      -9.248   4.882  27.940  1.00  0.00    -0.390 OA
ATOM     27  H13 UNL     1      -9.461   4.282  28.645  1.00  0.00     0.210 HD
ENDBRANCH  14  26
ENDBRANCH   9  10
ENDBRANCH   8   9
ENDBRANCH   5   8
ENDBRANCH   4   5
ENDBRANCH   1   4
BRANCH   1  28
HETATM   28  O9  UNL     1     -13.856   6.616  26.060  1.00  0.00    -0.287 OA
BRANCH  28  29
HETATM   29  C9  UNL     1     -14.100   8.008  26.304  1.00  0.00     0.216 C 
BRANCH  29  30
HETATM   30  C10 UNL     1     -15.154   8.135  27.319  1.00  0.00     0.180 C 
HETATM   31  O10 UNL     1     -15.104   9.443  27.876  1.00  0.00    -0.353 OA
HETATM   32  C11 UNL     1     -16.214   9.363  28.743  1.00  0.00     0.262 C 
HETATM   33  C17 UNL     1     -17.270   9.093  27.636  1.00  0.00     0.198 C 
HETATM   34  C18 UNL     1     -16.543   7.945  26.878  1.00  0.00     0.182 C 
BRANCH  32  35
HETATM   35  N3  UNL     1     -16.392  10.602  29.395  1.00  0.00    -0.297 N 
HETATM   36  C12 UNL     1     -15.622  11.739  29.304  1.00  0.00     0.188 A 
HETATM   37  N4  UNL     1     -16.125  12.708  30.070  1.00  0.00    -0.346 N 
HETATM   38  C13 UNL     1     -17.246  12.195  30.660  1.00  0.00     0.119 A 
ATOM     39  H4  UNL     1     -15.748  13.647  30.192  1.00  0.00     0.167 HD
HETATM   40  C14 UNL     1     -18.131  12.747  31.540  1.00  0.00     0.148 A 
HETATM   41  C16 UNL     1     -17.389  10.885  30.229  1.00  0.00     0.142 A 
HETATM   42  N5  UNL     1     -18.005  14.103  31.955  1.00  0.00    -0.080 NA
HETATM   43  N6  UNL     1     -19.151  12.013  32.010  1.00  0.00    -0.339 N 
HETATM   44  C15 UNL     1     -19.307  10.744  31.619  1.00  0.00     0.183 A 
ATOM     45  H6  UNL     1     -19.812  12.425  32.668  1.00  0.00     0.167 HD
HETATM   46  N7  UNL     1     -18.422  10.197  30.731  1.00  0.00    -0.336 N 
ATOM     47  H7  UNL     1     -18.555   9.229  30.440  1.00  0.00     0.168 HD
ENDBRANCH  32  35
BRANCH  33  48
HETATM   48  O11 UNL     1     -18.496   8.772  28.104  1.00  0.00    -0.388 OA
ATOM     49  H11 UNL     1     -18.921   8.064  27.634  1.00  0.00     0.210 HD
ENDBRANCH  33  48
BRANCH  34  50
HETATM   50  O12 UNL     1     -17.063   6.744  27.450  1.00  0.00    -0.390 OA
ATOM     51  H12 UNL     1     -16.360   6.113  27.551  1.00  0.00     0.210 HD
ENDBRANCH  34  50
ENDBRANCH  29  30
ENDBRANCH  28  29
ENDBRANCH   1  28
TORSDOF 15
ENDMDL
