MODEL 2
REMARK VINA RESULT: -10.698582694      1.631      2.147
REMARK  3 active torsions:
REMARK  status: ('A' for Active; 'I' for Inactive)
REMARK    1  A    between atoms: C6_11  and  O2_12 
REMARK    2  A    between atoms: C7_16  and  C8_17 
REMARK    3  A    between atoms: C8_17  and  C9_18 
ROOT
HETATM    1  O1  UNL     1      18.615 -15.558  24.236  1.00  0.00    -0.272 OA
HETATM    2  C1  UNL     1      18.101 -16.343  23.399  1.00  0.00     0.236 C 
HETATM    3  C2  UNL     1      18.249 -15.971  21.969  1.00  0.00     0.235 C 
HETATM    4  N1  UNL     1      17.770 -14.653  21.584  1.00  0.00    -0.305 N 
HETATM    5  C3  UNL     1      18.830 -13.878  21.150  1.00  0.00     0.123 A 
HETATM    6 CL1  UNL     1      20.491 -14.531  21.167  1.00  0.00    -0.063 Cl
HETATM    7  C4  UNL     1      18.709 -12.593  20.685  1.00  0.00     0.132 A 
HETATM    8  N2  UNL     1      17.480 -12.146  20.686  1.00  0.00    -0.346 N 
ATOM      9  H2  UNL     1      17.329 -11.195  20.350  1.00  0.00     0.167 HD
HETATM   10  C5  UNL     1      16.354 -12.861  21.107  1.00  0.00     0.153 A 
HETATM   11  C6  UNL     1      16.525 -14.138  21.563  1.00  0.00     0.189 A 
HETATM   12  N3  UNL     1      15.244 -11.986  20.922  1.00  0.00    -0.366 N 
ATOM     13  H3  UNL     1      15.358 -11.070  21.354  1.00  0.00     0.161 HD
HETATM   14  C7  UNL     1      13.990 -12.162  20.236  1.00  0.00     0.113 C 
HETATM   15  C15 UNL     1      14.083 -12.439  18.781  1.00  0.00     0.257 C 
HETATM   16  N4  UNL     1      14.650 -13.734  18.475  1.00  0.00    -0.073 N 
ATOM     17  H41 UNL     1      15.575 -13.831  18.894  1.00  0.00     0.277 HD
ATOM     18  H42 UNL     1      14.902 -13.794  17.488  1.00  0.00     0.277 HD
HETATM   19  C16 UNL     1      13.795 -14.842  18.855  1.00  0.00     0.234 C 
HETATM   20  C17 UNL     1      14.257 -16.116  18.207  1.00  0.00     0.055 C 
HETATM   21  C18 UNL     1      14.956 -17.060  19.165  1.00  0.00     0.233 C 
HETATM   22  N5  UNL     1      14.042 -17.779  20.025  1.00  0.00    -0.075 N 
ATOM     23  H51 UNL     1      13.088 -17.725  19.667  1.00  0.00     0.277 HD
ATOM     24  H52 UNL     1      13.916 -17.289  20.910  1.00  0.00     0.277 HD
HETATM   25  C19 UNL     1      14.433 -19.157  20.248  1.00  0.00     0.237 C 
HETATM   26  C20 UNL     1      15.929 -19.288  20.377  1.00  0.00     0.066 C 
HETATM   27  C21 UNL     1      16.268 -20.051  21.605  1.00  0.00    -0.049 A 
HETATM   28  C22 UNL     1      16.437 -21.414  21.475  1.00  0.00     0.007 A 
HETATM   29  C23 UNL     1      16.756 -22.240  22.526  1.00  0.00     0.001 A 
HETATM   30  C24 UNL     1      16.912 -21.652  23.779  1.00  0.00     0.001 A 
HETATM   31  C25 UNL     1      16.746 -20.299  23.920  1.00  0.00     0.009 A 
HETATM   32  C26 UNL     1      16.427 -19.487  22.854  1.00  0.00    -0.034 A 
HETATM   33  C27 UNL     1      16.262 -18.043  23.113  1.00  0.00     0.161 C 
HETATM   34  N6  UNL     1      17.416 -17.526  23.802  1.00  0.00    -0.355 N 
ATOM     35  H6  UNL     1      17.759 -18.031  24.619  1.00  0.00     0.162 HD
ENDROOT
BRANCH  14  36
HETATM   36  C8  UNL     1      12.959 -11.111  20.510  1.00  0.00     0.065 C 
BRANCH  36  37
HETATM   37  C9  UNL     1      12.353 -11.160  21.854  1.00  0.00    -0.056 A 
HETATM   38  C10 UNL     1      12.333 -10.112  22.744  1.00  0.00     0.007 A 
HETATM   39  C11 UNL     1      11.732 -10.208  24.004  1.00  0.00     0.001 A 
HETATM   40  C12 UNL     1      11.129 -11.381  24.403  1.00  0.00     0.000 A 
HETATM   41  C13 UNL     1      11.141 -12.443  23.524  1.00  0.00     0.001 A 
HETATM   42  C14 UNL     1      11.734 -12.342  22.284  1.00  0.00     0.007 A 
ENDBRANCH  36  37
ENDBRANCH  14  36
BRANCH  11  43
HETATM   43  O2  UNL     1      15.469 -14.853  21.980  1.00  0.00    -0.343 OA
ATOM     44  H2  UNL     1      15.003 -15.433  21.390  1.00  0.00     0.219 HD
ENDBRANCH  11  43
TORSDOF 3
ENDMDL
