MODEL 3
REMARK VINA RESULT: -9.302971049      2.290      3.573
REMARK  3 active torsions:
REMARK  status: ('A' for Active; 'I' for Inactive)
REMARK    1  A    between atoms: C6_11  and  O2_12 
REMARK    2  A    between atoms: C7_16  and  C8_17 
REMARK    3  A    between atoms: C8_17  and  C9_18 
ROOT
HETATM    1  O1  UNL     1      17.412 -17.678  24.397  1.00  0.00    -0.272 OA
HETATM    2  C1  UNL     1      16.847 -18.141  23.374  1.00  0.00     0.236 C 
HETATM    3  C2  UNL     1      17.359 -17.666  22.064  1.00  0.00     0.235 C 
HETATM    4  N1  UNL     1      17.383 -16.227  21.855  1.00  0.00    -0.305 N 
HETATM    5  C3  UNL     1      18.690 -15.796  21.710  1.00  0.00     0.123 A 
HETATM    6 CL1  UNL     1      20.041 -16.955  21.836  1.00  0.00    -0.063 Cl
HETATM    7  C4  UNL     1      19.053 -14.496  21.465  1.00  0.00     0.132 A 
HETATM    8  N2  UNL     1      18.040 -13.673  21.379  1.00  0.00    -0.346 N 
ATOM      9  H2  UNL     1      18.249 -12.692  21.198  1.00  0.00     0.167 HD
HETATM   10  C5  UNL     1      16.693 -14.025  21.513  1.00  0.00     0.153 A 
HETATM   11  C6  UNL     1      16.380 -15.333  21.758  1.00  0.00     0.189 A 
HETATM   12  N3  UNL     1      15.954 -12.818  21.336  1.00  0.00    -0.366 N 
ATOM     13  H3  UNL     1      16.261 -12.050  21.934  1.00  0.00     0.161 HD
HETATM   14  C7  UNL     1      14.855 -12.486  20.469  1.00  0.00     0.113 C 
HETATM   15  C15 UNL     1      15.124 -12.598  19.014  1.00  0.00     0.257 C 
HETATM   16  N4  UNL     1      15.316 -13.959  18.564  1.00  0.00    -0.073 N 
ATOM     17  H41 UNL     1      16.075 -14.405  19.080  1.00  0.00     0.277 HD
ATOM     18  H42 UNL     1      15.715 -13.977  17.626  1.00  0.00     0.277 HD
HETATM   19  C16 UNL     1      14.111 -14.762  18.626  1.00  0.00     0.234 C 
HETATM   20  C17 UNL     1      14.274 -16.027  17.833  1.00  0.00     0.055 C 
HETATM   21  C18 UNL     1      14.465 -17.258  18.696  1.00  0.00     0.233 C 
HETATM   22  N5  UNL     1      13.234 -17.737  19.286  1.00  0.00    -0.075 N 
ATOM     23  H51 UNL     1      12.424 -17.329  18.818  1.00  0.00     0.277 HD
ATOM     24  H52 UNL     1      13.103 -17.346  20.219  1.00  0.00     0.277 HD
HETATM   25  C19 UNL     1      13.139 -19.184  19.315  1.00  0.00     0.237 C 
HETATM   26  C20 UNL     1      14.475 -19.814  19.619  1.00  0.00     0.066 C 
HETATM   27  C21 UNL     1      14.335 -20.790  20.728  1.00  0.00    -0.049 A 
HETATM   28  C22 UNL     1      14.102 -22.106  20.386  1.00  0.00     0.007 A 
HETATM   29  C23 UNL     1      13.957 -23.114  21.309  1.00  0.00     0.001 A 
HETATM   30  C24 UNL     1      14.051 -22.768  22.655  1.00  0.00     0.001 A 
HETATM   31  C25 UNL     1      14.281 -21.464  23.007  1.00  0.00     0.009 A 
HETATM   32  C26 UNL     1      14.425 -20.468  22.067  1.00  0.00    -0.034 A 
HETATM   33  C27 UNL     1      14.663 -19.093  22.550  1.00  0.00     0.161 C 
HETATM   34  N6  UNL     1      15.772 -19.073  23.468  1.00  0.00    -0.355 N 
ATOM     35  H6  UNL     1      15.790 -19.760  24.222  1.00  0.00     0.162 HD
ENDROOT
BRANCH  14  36
HETATM   36  C8  UNL     1      14.160 -11.197  20.781  1.00  0.00     0.065 C 
BRANCH  36  37
HETATM   37  C9  UNL     1      13.152 -11.270  21.856  1.00  0.00    -0.056 A 
HETATM   38  C10 UNL     1      12.810 -10.226  22.683  1.00  0.00     0.007 A 
HETATM   39  C11 UNL     1      11.836 -10.346  23.680  1.00  0.00     0.001 A 
HETATM   40  C12 UNL     1      11.174 -11.540  23.871  1.00  0.00     0.000 A 
HETATM   41  C13 UNL     1      11.504 -12.597  23.050  1.00  0.00     0.001 A 
HETATM   42  C14 UNL     1      12.465 -12.473  22.070  1.00  0.00     0.007 A 
ENDBRANCH  36  37
ENDBRANCH  14  36
BRANCH  11  43
HETATM   43  O2  UNL     1      15.099 -15.706  21.897  1.00  0.00    -0.343 OA
ATOM     44  H2  UNL     1      14.602 -15.480  22.674  1.00  0.00     0.219 HD
ENDBRANCH  11  43
TORSDOF 3
ENDMDL
