MODEL 1
REMARK VINA RESULT: -10.758463988      0.000      0.000
REMARK  3 active torsions:
REMARK  status: ('A' for Active; 'I' for Inactive)
REMARK    1  A    between atoms: C6_11  and  O2_12 
REMARK    2  A    between atoms: C7_16  and  C8_17 
REMARK    3  A    between atoms: C8_17  and  C9_18 
ROOT
HETATM    1  O1  UNL     1      19.936 -13.823  24.238  1.00  0.00    -0.272 OA
HETATM    2  C1  UNL     1      19.346 -14.903  23.980  1.00  0.00     0.236 C 
HETATM    3  C2  UNL     1      19.103 -15.196  22.546  1.00  0.00     0.235 C 
HETATM    4  N1  UNL     1      18.380 -14.189  21.786  1.00  0.00    -0.305 N 
HETATM    5  C3  UNL     1      19.198 -13.669  20.799  1.00  0.00     0.123 A 
HETATM    6 CL1  UNL     1      20.886 -14.225  20.643  1.00  0.00    -0.063 Cl
HETATM    7  C4  UNL     1      18.805 -12.721  19.889  1.00  0.00     0.132 A 
HETATM    8  N2  UNL     1      17.563 -12.336  20.031  1.00  0.00    -0.346 N 
ATOM      9  H2  UNL     1      17.215 -11.632  19.381  1.00  0.00     0.167 HD
HETATM   10  C5  UNL     1      16.671 -12.809  20.999  1.00  0.00     0.153 A 
HETATM   11  C6  UNL     1      17.109 -13.752  21.886  1.00  0.00     0.189 A 
HETATM   12  N3  UNL     1      15.444 -12.120  20.769  1.00  0.00    -0.366 N 
ATOM     13  H3  UNL     1      15.537 -11.105  20.728  1.00  0.00     0.161 HD
HETATM   14  C7  UNL     1      14.099 -12.596  20.586  1.00  0.00     0.113 C 
HETATM   15  C15 UNL     1      13.881 -13.484  19.417  1.00  0.00     0.257 C 
HETATM   16  N4  UNL     1      14.523 -14.773  19.544  1.00  0.00    -0.073 N 
ATOM     17  H41 UNL     1      15.525 -14.664  19.699  1.00  0.00     0.277 HD
ATOM     18  H42 UNL     1      14.542 -15.257  18.646  1.00  0.00     0.277 HD
HETATM   19  C16 UNL     1      13.933 -15.612  20.567  1.00  0.00     0.234 C 
HETATM   20  C17 UNL     1      14.391 -17.035  20.418  1.00  0.00     0.055 C 
HETATM   21  C18 UNL     1      15.413 -17.452  21.457  1.00  0.00     0.233 C 
HETATM   22  N5  UNL     1      14.828 -17.732  22.750  1.00  0.00    -0.075 N 
ATOM     23  H51 UNL     1      13.818 -17.854  22.674  1.00  0.00     0.277 HD
ATOM     24  H52 UNL     1      14.852 -16.904  23.346  1.00  0.00     0.277 HD
HETATM   25  C19 UNL     1      15.436 -18.866  23.418  1.00  0.00     0.237 C 
HETATM   26  C20 UNL     1      16.925 -18.907  23.183  1.00  0.00     0.066 C 
HETATM   27  C21 UNL     1      17.640 -19.047  24.477  1.00  0.00    -0.049 A 
HETATM   28  C22 UNL     1      17.949 -20.325  24.892  1.00  0.00     0.007 A 
HETATM   29  C23 UNL     1      18.612 -20.600  26.064  1.00  0.00     0.001 A 
HETATM   30  C24 UNL     1      18.980 -19.520  26.861  1.00  0.00     0.001 A 
HETATM   31  C25 UNL     1      18.677 -18.245  26.459  1.00  0.00     0.009 A 
HETATM   32  C26 UNL     1      18.013 -17.989  25.280  1.00  0.00    -0.034 A 
HETATM   33  C27 UNL     1      17.728 -16.580  24.941  1.00  0.00     0.161 C 
HETATM   34  N6  UNL     1      18.934 -15.797  25.011  1.00  0.00    -0.355 N 
ATOM     35  H6  UNL     1      19.523 -15.887  25.840  1.00  0.00     0.162 HD
ENDROOT
BRANCH  14  36
HETATM   36  C8  UNL     1      13.033 -11.546  20.658  1.00  0.00     0.065 C 
BRANCH  36  37
HETATM   37  C9  UNL     1      12.393 -11.389  21.979  1.00  0.00    -0.056 A 
HETATM   38  C10 UNL     1      12.390 -10.228  22.715  1.00  0.00     0.007 A 
HETATM   39  C11 UNL     1      11.756 -10.130  23.959  1.00  0.00     0.001 A 
HETATM   40  C12 UNL     1      11.102 -11.217  24.498  1.00  0.00     0.000 A 
HETATM   41  C13 UNL     1      11.096 -12.389  23.773  1.00  0.00     0.001 A 
HETATM   42  C14 UNL     1      11.722 -12.480  22.549  1.00  0.00     0.007 A 
ENDBRANCH  36  37
ENDBRANCH  14  36
BRANCH  11  43
HETATM   43  O2  UNL     1      16.283 -14.225  22.831  1.00  0.00    -0.343 OA
ATOM     44  H2  UNL     1      15.373 -13.954  22.870  1.00  0.00     0.219 HD
ENDBRANCH  11  43
TORSDOF 3
ENDMDL
