MODEL 1
REMARK VINA RESULT: -11.568355461      0.000      0.000
REMARK  15 active torsions:
REMARK  status: ('A' for Active; 'I' for Inactive)
REMARK    1  A    between atoms: C1_2  and  C2_4 
REMARK    2  A    between atoms: N2_8  and  C6_9 
REMARK    3  A    between atoms: C7_11  and  C8_12 
REMARK    4  A    between atoms: C8_12  and  O3_13 
REMARK    5  A    between atoms: O3_13  and  P1_14 
REMARK    6  A    between atoms: P1_14  and  O6_17 
REMARK    7  A    between atoms: O6_17  and  P2_18 
REMARK    8  A    between atoms: P2_18  and  O9_21 
REMARK    9  A    between atoms: O9_21  and  C9_22 
REMARK   10  A    between atoms: C9_22  and  C10_23 
REMARK   11  A    between atoms: C11_25  and  N3_26 
REMARK   12  A    between atoms: C17_39  and  O11_40 
REMARK   13  A    between atoms: C18_42  and  O12_43 
REMARK   14  A    between atoms: C19_45  and  O13_46 
REMARK   15  A    between atoms: C20_48  and  O14_49 
ROOT
HETATM    1  P2  UNL     1      51.469  89.695  40.899  1.00  0.00     0.417 P 
HETATM    2  O7  UNL     1      51.915  91.121  40.785  1.00  0.00    -0.624 OA
HETATM    3  O8  UNL     1      50.988  89.492  42.569  1.00  0.00    -0.624 OA
ENDROOT
BRANCH   1   4
HETATM    4  O6  UNL     1      50.243  89.303  39.927  1.00  0.00    -0.180 OA
BRANCH   4   5
HETATM    5  P1  UNL     1      48.765  89.985  40.221  1.00  0.00     0.417 P 
HETATM    6  O4  UNL     1      48.812  91.326  40.818  1.00  0.00    -0.624 OA
HETATM    7  O5  UNL     1      47.993  88.988  41.497  1.00  0.00    -0.624 OA
BRANCH   5   8
HETATM    8  O3  UNL     1      47.769  89.811  38.932  1.00  0.00    -0.287 OA
BRANCH   8   9
HETATM    9  C8  UNL     1      47.397  91.032  38.329  1.00  0.00     0.216 C 
BRANCH   9  10
HETATM   10  C7  UNL     1      48.561  91.202  37.306  1.00  0.00     0.180 C 
HETATM   11  O2  UNL     1      48.032  91.278  36.041  1.00  0.00    -0.353 OA
HETATM   12  C6  UNL     1      48.581  92.324  35.336  1.00  0.00     0.259 C 
HETATM   13  C20 UNL     1      49.889  92.618  36.077  1.00  0.00     0.198 C 
HETATM   14  C19 UNL     1      49.400  92.385  37.538  1.00  0.00     0.182 C 
BRANCH  12  15
HETATM   15  N2  UNL     1      47.690  93.472  35.606  1.00  0.00    -0.336 N 
HETATM   16  C5  UNL     1      46.364  93.374  35.492  1.00  0.00     0.093 A 
HETATM   17  C4  UNL     1      45.570  94.510  35.640  1.00  0.00     0.018 A 
HETATM   18  C3  UNL     1      46.153  95.717  35.898  1.00  0.00     0.019 A 
HETATM   19  C2  UNL     1      47.517  95.781  36.006  1.00  0.00     0.044 A 
HETATM   20  C21 UNL     1      48.283  94.646  35.857  1.00  0.00     0.110 A 
BRANCH  19  21
HETATM   21  C1  UNL     1      48.186  97.048  36.232  1.00  0.00     0.266 C 
HETATM   22  N1  UNL     1      48.146  98.057  35.243  1.00  0.00    -0.057 NA
HETATM   23  O1  UNL     1      48.832  97.311  37.303  1.00  0.00    -0.271 OA
ENDBRANCH  19  21
ENDBRANCH  12  15
BRANCH  13  24
HETATM   24  O14 UNL     1      50.809  91.600  35.832  1.00  0.00    -0.388 OA
ATOM     25  H14 UNL     1      51.652  91.976  35.606  1.00  0.00     0.210 HD
ENDBRANCH  13  24
BRANCH  14  26
HETATM   26  O13 UNL     1      50.495  92.181  38.387  1.00  0.00    -0.390 OA
ATOM     27  H13 UNL     1      50.286  92.149  39.313  1.00  0.00     0.210 HD
ENDBRANCH  14  26
ENDBRANCH   9  10
ENDBRANCH   8   9
ENDBRANCH   5   8
ENDBRANCH   4   5
ENDBRANCH   1   4
BRANCH   1  28
HETATM   28  O9  UNL     1      52.912  88.745  40.825  1.00  0.00    -0.287 OA
BRANCH  28  29
HETATM   29  C9  UNL     1      52.805  88.126  39.536  1.00  0.00     0.216 C 
BRANCH  29  30
HETATM   30  C10 UNL     1      52.173  86.809  39.691  1.00  0.00     0.180 C 
HETATM   31  O10 UNL     1      52.607  85.961  38.634  1.00  0.00    -0.353 OA
HETATM   32  C11 UNL     1      51.954  84.771  39.016  1.00  0.00     0.262 C 
HETATM   33  C17 UNL     1      52.663  84.626  40.391  1.00  0.00     0.198 C 
HETATM   34  C18 UNL     1      52.448  86.070  40.930  1.00  0.00     0.182 C 
BRANCH  32  35
HETATM   35  N3  UNL     1      52.282  83.742  38.107  1.00  0.00    -0.297 N 
HETATM   36  C12 UNL     1      53.153  83.781  37.043  1.00  0.00     0.188 A 
HETATM   37  N4  UNL     1      53.196  82.598  36.429  1.00  0.00    -0.346 N 
HETATM   38  C13 UNL     1      52.347  81.774  37.112  1.00  0.00     0.119 A 
ATOM     39  H4  UNL     1      53.754  82.356  35.610  1.00  0.00     0.167 HD
HETATM   40  C14 UNL     1      52.005  80.469  36.909  1.00  0.00     0.148 A 
HETATM   41  C16 UNL     1      51.788  82.508  38.147  1.00  0.00     0.142 A 
HETATM   42  N5  UNL     1      52.607  79.705  35.868  1.00  0.00    -0.080 NA
HETATM   43  N6  UNL     1      51.104  79.882  37.713  1.00  0.00    -0.339 N 
HETATM   44  C15 UNL     1      50.541  80.569  38.711  1.00  0.00     0.183 A 
ATOM     45  H6  UNL     1      50.848  78.907  37.560  1.00  0.00     0.167 HD
HETATM   46  N7  UNL     1      50.894  81.875  38.916  1.00  0.00    -0.336 N 
ATOM     47  H7  UNL     1      50.458  82.385  39.684  1.00  0.00     0.168 HD
ENDBRANCH  32  35
BRANCH  33  48
HETATM   48  O11 UNL     1      52.158  83.649  41.176  1.00  0.00    -0.388 OA
ATOM     49  H11 UNL     1      52.514  82.786  41.002  1.00  0.00     0.210 HD
ENDBRANCH  33  48
BRANCH  34  50
HETATM   50  O12 UNL     1      51.255  85.993  41.712  1.00  0.00    -0.390 OA
ATOM     51  H12 UNL     1      51.325  85.270  42.325  1.00  0.00     0.210 HD
ENDBRANCH  34  50
ENDBRANCH  29  30
ENDBRANCH  28  29
ENDBRANCH   1  28
TORSDOF 15
ENDMDL
