MODEL 11
REMARK VINA RESULT: -11.068723397      3.178      5.143
REMARK  15 active torsions:
REMARK  status: ('A' for Active; 'I' for Inactive)
REMARK    1  A    between atoms: C1_2  and  C2_4 
REMARK    2  A    between atoms: N2_8  and  C6_9 
REMARK    3  A    between atoms: C7_11  and  C8_12 
REMARK    4  A    between atoms: C8_12  and  O3_13 
REMARK    5  A    between atoms: O3_13  and  P1_14 
REMARK    6  A    between atoms: P1_14  and  O6_17 
REMARK    7  A    between atoms: O6_17  and  P2_18 
REMARK    8  A    between atoms: P2_18  and  O9_21 
REMARK    9  A    between atoms: O9_21  and  C9_22 
REMARK   10  A    between atoms: C9_22  and  C10_23 
REMARK   11  A    between atoms: C11_25  and  N3_26 
REMARK   12  A    between atoms: C17_39  and  O11_40 
REMARK   13  A    between atoms: C18_42  and  O12_43 
REMARK   14  A    between atoms: C19_45  and  O13_46 
REMARK   15  A    between atoms: C20_48  and  O14_49 
ROOT
HETATM    1  P2  UNL     1      48.076  90.421  38.252  1.00  0.00     0.417 P 
HETATM    2  O7  UNL     1      46.731  90.043  38.794  1.00  0.00    -0.624 OA
HETATM    3  O8  UNL     1      48.398  89.273  36.972  1.00  0.00    -0.624 OA
ENDROOT
BRANCH   1   4
HETATM    4  O6  UNL     1      48.161  91.923  37.672  1.00  0.00    -0.180 OA
BRANCH   4   5
HETATM    5  P1  UNL     1      49.332  92.925  38.270  1.00  0.00     0.417 P 
HETATM    6  O4  UNL     1      50.645  92.296  38.462  1.00  0.00    -0.624 OA
HETATM    7  O5  UNL     1      48.829  93.353  39.938  1.00  0.00    -0.624 OA
BRANCH   5   8
HETATM    8  O3  UNL     1      49.337  94.362  37.483  1.00  0.00    -0.287 OA
BRANCH   8   9
HETATM    9  C8  UNL     1      50.466  94.557  36.658  1.00  0.00     0.216 C 
BRANCH   9  10
HETATM   10  C7  UNL     1      50.101  95.927  36.007  1.00  0.00     0.180 C 
HETATM   11  O2  UNL     1      49.727  95.712  34.703  1.00  0.00    -0.353 OA
HETATM   12  C6  UNL     1      48.565  96.383  34.404  1.00  0.00     0.259 C 
HETATM   13  C20 UNL     1      48.480  97.468  35.483  1.00  0.00     0.198 C 
HETATM   14  C19 UNL     1      49.023  96.652  36.693  1.00  0.00     0.182 C 
BRANCH  12  15
HETATM   15  N2  UNL     1      47.484  95.421  34.705  1.00  0.00    -0.336 N 
HETATM   16  C5  UNL     1      46.338  95.806  35.270  1.00  0.00     0.093 A 
HETATM   17  C4  UNL     1      45.394  94.851  35.646  1.00  0.00     0.018 A 
HETATM   18  C3  UNL     1      45.648  93.527  35.435  1.00  0.00     0.019 A 
HETATM   19  C2  UNL     1      46.836  93.167  34.855  1.00  0.00     0.044 A 
HETATM   20  C21 UNL     1      47.754  94.128  34.490  1.00  0.00     0.110 A 
BRANCH  19  21
HETATM   21  C1  UNL     1      47.173  91.771  34.654  1.00  0.00     0.266 C 
HETATM   22  N1  UNL     1      48.470  91.408  34.229  1.00  0.00    -0.057 NA
HETATM   23  O1  UNL     1      46.338  90.821  34.841  1.00  0.00    -0.271 OA
ENDBRANCH  19  21
ENDBRANCH  12  15
BRANCH  13  24
HETATM   24  O14 UNL     1      49.440  98.449  35.242  1.00  0.00    -0.388 OA
ATOM     25  H14 UNL     1      49.019  99.297  35.162  1.00  0.00     0.210 HD
ENDBRANCH  13  24
BRANCH  14  26
HETATM   26  O13 UNL     1      49.442  97.517  37.710  1.00  0.00    -0.390 OA
ATOM     27  H13 UNL     1      48.743  97.972  38.166  1.00  0.00     0.210 HD
ENDBRANCH  14  26
ENDBRANCH   9  10
ENDBRANCH   8   9
ENDBRANCH   5   8
ENDBRANCH   4   5
ENDBRANCH   1   4
BRANCH   1  28
HETATM   28  O9  UNL     1      49.219  89.940  39.458  1.00  0.00    -0.287 OA
BRANCH  28  29
HETATM   29  C9  UNL     1      48.371  89.590  40.561  1.00  0.00     0.216 C 
BRANCH  29  30
HETATM   30  C10 UNL     1      49.059  88.593  41.392  1.00  0.00     0.180 C 
HETATM   31  O10 UNL     1      50.437  88.569  41.038  1.00  0.00    -0.353 OA
HETATM   32  C11 UNL     1      50.897  87.627  41.982  1.00  0.00     0.262 C 
HETATM   33  C17 UNL     1      50.491  88.442  43.241  1.00  0.00     0.198 C 
HETATM   34  C18 UNL     1      49.027  88.790  42.847  1.00  0.00     0.182 C 
BRANCH  32  35
HETATM   35  N3  UNL     1      52.292  87.467  41.846  1.00  0.00    -0.297 N 
HETATM   36  C12 UNL     1      53.282  88.414  41.972  1.00  0.00     0.188 A 
HETATM   37  N4  UNL     1      54.483  87.866  41.778  1.00  0.00    -0.346 N 
HETATM   38  C13 UNL     1      54.269  86.539  41.533  1.00  0.00     0.119 A 
ATOM     39  H4  UNL     1      55.383  88.343  41.808  1.00  0.00     0.167 HD
HETATM   40  C14 UNL     1      55.140  85.525  41.260  1.00  0.00     0.148 A 
HETATM   41  C16 UNL     1      52.901  86.316  41.576  1.00  0.00     0.142 A 
HETATM   42  N5  UNL     1      56.547  85.746  41.252  1.00  0.00    -0.080 NA
HETATM   43  N6  UNL     1      54.672  84.290  41.016  1.00  0.00    -0.339 N 
HETATM   44  C15 UNL     1      53.358  84.049  41.040  1.00  0.00     0.183 A 
ATOM     45  H6  UNL     1      55.323  83.532  40.811  1.00  0.00     0.167 HD
HETATM   46  N7  UNL     1      52.489  85.068  41.322  1.00  0.00    -0.336 N 
ATOM     47  H7  UNL     1      51.489  84.868  41.340  1.00  0.00     0.168 HD
ENDBRANCH  32  35
BRANCH  33  48
HETATM   48  O11 UNL     1      50.618  87.766  44.404  1.00  0.00    -0.388 OA
ATOM     49  H11 UNL     1      50.162  88.162  45.138  1.00  0.00     0.210 HD
ENDBRANCH  33  48
BRANCH  34  50
HETATM   50  O12 UNL     1      48.234  87.763  43.448  1.00  0.00    -0.390 OA
ATOM     51  H12 UNL     1      48.763  86.983  43.562  1.00  0.00     0.210 HD
ENDBRANCH  34  50
ENDBRANCH  29  30
ENDBRANCH  28  29
ENDBRANCH   1  28
TORSDOF 15
ENDMDL
