MODEL 6
REMARK VINA RESULT: -11.180361254      1.613      2.355
REMARK  15 active torsions:
REMARK  status: ('A' for Active; 'I' for Inactive)
REMARK    1  A    between atoms: C1_2  and  C2_4 
REMARK    2  A    between atoms: N2_8  and  C6_9 
REMARK    3  A    between atoms: C7_11  and  C8_12 
REMARK    4  A    between atoms: C8_12  and  O3_13 
REMARK    5  A    between atoms: O3_13  and  P1_14 
REMARK    6  A    between atoms: P1_14  and  O6_17 
REMARK    7  A    between atoms: O6_17  and  P2_18 
REMARK    8  A    between atoms: P2_18  and  O9_21 
REMARK    9  A    between atoms: O9_21  and  C9_22 
REMARK   10  A    between atoms: C9_22  and  C10_23 
REMARK   11  A    between atoms: C11_25  and  N3_26 
REMARK   12  A    between atoms: C17_39  and  O11_40 
REMARK   13  A    between atoms: C18_42  and  O12_43 
REMARK   14  A    between atoms: C19_45  and  O13_46 
REMARK   15  A    between atoms: C20_48  and  O14_49 
ROOT
HETATM    1  P2  UNL     1      49.573  88.868  41.292  1.00  0.00     0.417 P 
HETATM    2  O7  UNL     1      50.256  88.118  42.397  1.00  0.00    -0.624 OA
HETATM    3  O8  UNL     1      47.888  88.941  41.755  1.00  0.00    -0.624 OA
ENDROOT
BRANCH   1   4
HETATM    4  O6  UNL     1      50.138  90.360  41.054  1.00  0.00    -0.180 OA
BRANCH   4   5
HETATM    5  P1  UNL     1      49.498  91.248  39.815  1.00  0.00     0.417 P 
HETATM    6  O4  UNL     1      50.472  92.047  39.060  1.00  0.00    -0.624 OA
HETATM    7  O5  UNL     1      48.443  92.486  40.572  1.00  0.00    -0.624 OA
BRANCH   5   8
HETATM    8  O3  UNL     1      48.464  90.350  38.917  1.00  0.00    -0.287 OA
BRANCH   8   9
HETATM    9  C8  UNL     1      47.155  90.876  38.857  1.00  0.00     0.216 C 
BRANCH   9  10
HETATM   10  C7  UNL     1      46.775  90.508  37.390  1.00  0.00     0.180 C 
HETATM   11  O2  UNL     1      46.244  91.616  36.777  1.00  0.00    -0.353 OA
HETATM   12  C6  UNL     1      46.802  91.811  35.535  1.00  0.00     0.259 C 
HETATM   13  C20 UNL     1      47.382  90.439  35.175  1.00  0.00     0.198 C 
HETATM   14  C19 UNL     1      47.899  90.015  36.582  1.00  0.00     0.182 C 
BRANCH  12  15
HETATM   15  N2  UNL     1      47.962  92.696  35.775  1.00  0.00    -0.336 N 
HETATM   16  C5  UNL     1      49.134  92.494  35.171  1.00  0.00     0.093 A 
HETATM   17  C4  UNL     1      50.235  93.278  35.514  1.00  0.00     0.018 A 
HETATM   18  C3  UNL     1      50.108  94.245  36.470  1.00  0.00     0.019 A 
HETATM   19  C2  UNL     1      48.890  94.422  37.071  1.00  0.00     0.044 A 
HETATM   20  C21 UNL     1      47.815  93.637  36.715  1.00  0.00     0.110 A 
BRANCH  19  21
HETATM   21  C1  UNL     1      48.716  95.404  38.125  1.00  0.00     0.266 C 
HETATM   22  N1  UNL     1      48.095  96.642  37.845  1.00  0.00    -0.057 NA
HETATM   23  O1  UNL     1      49.108  95.210  39.326  1.00  0.00    -0.271 OA
ENDBRANCH  19  21
ENDBRANCH  12  15
BRANCH  13  24
HETATM   24  O14 UNL     1      46.347  89.553  34.882  1.00  0.00    -0.388 OA
ATOM     25  H14 UNL     1      45.989  89.199  35.688  1.00  0.00     0.210 HD
ENDBRANCH  13  24
BRANCH  14  26
HETATM   26  O13 UNL     1      48.101  88.631  36.625  1.00  0.00    -0.390 OA
ATOM     27  H13 UNL     1      48.845  88.347  37.143  1.00  0.00     0.210 HD
ENDBRANCH  14  26
ENDBRANCH   9  10
ENDBRANCH   8   9
ENDBRANCH   5   8
ENDBRANCH   4   5
ENDBRANCH   1   4
BRANCH   1  28
HETATM   28  O9  UNL     1      49.528  87.782  39.947  1.00  0.00    -0.287 OA
BRANCH  28  29
HETATM   29  C9  UNL     1      50.898  87.761  39.524  1.00  0.00     0.216 C 
BRANCH  29  30
HETATM   30  C10 UNL     1      51.492  86.472  39.900  1.00  0.00     0.180 C 
HETATM   31  O10 UNL     1      51.615  85.663  38.735  1.00  0.00    -0.353 OA
HETATM   32  C11 UNL     1      52.255  84.542  39.304  1.00  0.00     0.262 C 
HETATM   33  C17 UNL     1      53.520  85.302  39.789  1.00  0.00     0.198 C 
HETATM   34  C18 UNL     1      52.829  86.496  40.508  1.00  0.00     0.182 C 
BRANCH  32  35
HETATM   35  N3  UNL     1      52.525  83.593  38.296  1.00  0.00    -0.297 N 
HETATM   36  C12 UNL     1      53.419  83.677  37.253  1.00  0.00     0.188 A 
HETATM   37  N4  UNL     1      53.389  82.565  36.518  1.00  0.00    -0.346 N 
HETATM   38  C13 UNL     1      52.467  81.741  37.098  1.00  0.00     0.119 A 
ATOM     39  H4  UNL     1      53.944  82.369  35.686  1.00  0.00     0.167 HD
HETATM   40  C14 UNL     1      52.034  80.494  36.753  1.00  0.00     0.148 A 
HETATM   41  C16 UNL     1      51.941  82.402  38.198  1.00  0.00     0.142 A 
HETATM   42  N5  UNL     1      52.599  79.800  35.645  1.00  0.00    -0.080 NA
HETATM   43  N6  UNL     1      51.075  79.896  37.477  1.00  0.00    -0.339 N 
HETATM   44  C15 UNL     1      50.543  80.514  38.535  1.00  0.00     0.183 A 
ATOM     45  H6  UNL     1      50.751  78.964  37.219  1.00  0.00     0.167 HD
HETATM   46  N7  UNL     1      50.986  81.761  38.883  1.00  0.00    -0.336 N 
ATOM     47  H7  UNL     1      50.573  82.220  39.695  1.00  0.00     0.168 HD
ENDBRANCH  32  35
BRANCH  33  48
HETATM   48  O11 UNL     1      54.341  84.569  40.574  1.00  0.00    -0.388 OA
ATOM     49  H11 UNL     1      55.057  85.061  40.957  1.00  0.00     0.210 HD
ENDBRANCH  33  48
BRANCH  34  50
HETATM   50  O12 UNL     1      52.736  86.094  41.876  1.00  0.00    -0.390 OA
ATOM     51  H12 UNL     1      52.703  86.865  42.430  1.00  0.00     0.210 HD
ENDBRANCH  34  50
ENDBRANCH  29  30
ENDBRANCH  28  29
ENDBRANCH   1  28
TORSDOF 15
ENDMDL
