MODEL 17
REMARK VINA RESULT: -10.898473589      1.741     11.384
REMARK  15 active torsions:
REMARK  status: ('A' for Active; 'I' for Inactive)
REMARK    1  A    between atoms: C1_2  and  C2_4 
REMARK    2  A    between atoms: N2_8  and  C6_9 
REMARK    3  A    between atoms: C7_11  and  C8_12 
REMARK    4  A    between atoms: C8_12  and  O3_13 
REMARK    5  A    between atoms: O3_13  and  P1_14 
REMARK    6  A    between atoms: P1_14  and  O6_17 
REMARK    7  A    between atoms: O6_17  and  P2_18 
REMARK    8  A    between atoms: P2_18  and  O9_21 
REMARK    9  A    between atoms: O9_21  and  C9_22 
REMARK   10  A    between atoms: C9_22  and  C10_23 
REMARK   11  A    between atoms: C11_25  and  N3_26 
REMARK   12  A    between atoms: C17_39  and  O11_40 
REMARK   13  A    between atoms: C18_42  and  O12_43 
REMARK   14  A    between atoms: C19_45  and  O13_46 
REMARK   15  A    between atoms: C20_48  and  O14_49 
ROOT
HETATM    1  P2  UNL     1      49.336  91.259  39.792  1.00  0.00     0.417 P 
HETATM    2  O7  UNL     1      48.578  92.378  40.441  1.00  0.00    -0.624 OA
HETATM    3  O8  UNL     1      50.493  92.036  38.735  1.00  0.00    -0.624 OA
ENDROOT
BRANCH   1   4
HETATM    4  O6  UNL     1      50.106  90.290  40.826  1.00  0.00    -0.180 OA
BRANCH   4   5
HETATM    5  P1  UNL     1      49.640  88.706  40.906  1.00  0.00     0.417 P 
HETATM    6  O4  UNL     1      48.226  88.494  41.243  1.00  0.00    -0.624 OA
HETATM    7  O5  UNL     1      50.510  87.993  42.304  1.00  0.00    -0.624 OA
BRANCH   5   8
HETATM    8  O3  UNL     1      50.203  87.859  39.622  1.00  0.00    -0.287 OA
BRANCH   8   9
HETATM    9  C8  UNL     1      50.733  86.594  39.960  1.00  0.00     0.216 C 
BRANCH   9  10
HETATM   10  C7  UNL     1      52.165  86.724  39.357  1.00  0.00     0.180 C 
HETATM   11  O2  UNL     1      52.982  85.794  39.951  1.00  0.00    -0.353 OA
HETATM   12  C6  UNL     1      53.723  85.113  39.013  1.00  0.00     0.259 C 
HETATM   13  C20 UNL     1      53.692  86.030  37.786  1.00  0.00     0.198 C 
HETATM   14  C19 UNL     1      52.225  86.542  37.900  1.00  0.00     0.182 C 
BRANCH  12  15
HETATM   15  N2  UNL     1      52.901  83.935  38.664  1.00  0.00    -0.336 N 
HETATM   16  C5  UNL     1      52.003  83.430  39.512  1.00  0.00     0.093 A 
HETATM   17  C4  UNL     1      51.334  82.249  39.192  1.00  0.00     0.018 A 
HETATM   18  C3  UNL     1      51.605  81.614  38.014  1.00  0.00     0.019 A 
HETATM   19  C2  UNL     1      52.535  82.160  37.169  1.00  0.00     0.044 A 
HETATM   20  C21 UNL     1      53.183  83.328  37.505  1.00  0.00     0.110 A 
BRANCH  19  21
HETATM   21  C1  UNL     1      52.892  81.497  35.929  1.00  0.00     0.266 C 
HETATM   22  N1  UNL     1      52.513  80.154  35.708  1.00  0.00    -0.057 NA
HETATM   23  O1  UNL     1      53.551  82.075  34.998  1.00  0.00    -0.271 OA
ENDBRANCH  19  21
ENDBRANCH  12  15
BRANCH  13  24
HETATM   24  O14 UNL     1      54.489  87.150  38.015  1.00  0.00    -0.388 OA
ATOM     25  H14 UNL     1      55.406  86.913  37.938  1.00  0.00     0.210 HD
ENDBRANCH  13  24
BRANCH  14  26
HETATM   26  O13 UNL     1      52.061  87.710  37.148  1.00  0.00    -0.390 OA
ATOM     27  H13 UNL     1      52.330  88.512  37.582  1.00  0.00     0.210 HD
ENDBRANCH  14  26
ENDBRANCH   9  10
ENDBRANCH   8   9
ENDBRANCH   5   8
ENDBRANCH   4   5
ENDBRANCH   1   4
BRANCH   1  28
HETATM   28  O9  UNL     1      48.240  90.546  38.659  1.00  0.00    -0.287 OA
BRANCH  28  29
HETATM   29  C9  UNL     1      48.776  90.978  37.401  1.00  0.00     0.216 C 
BRANCH  29  30
HETATM   30  C10 UNL     1      47.725  91.681  36.653  1.00  0.00     0.180 C 
HETATM   31  O10 UNL     1      48.024  93.072  36.634  1.00  0.00    -0.353 OA
HETATM   32  C11 UNL     1      46.958  93.521  35.826  1.00  0.00     0.262 C 
HETATM   33  C17 UNL     1      47.336  92.687  34.572  1.00  0.00     0.198 C 
HETATM   34  C18 UNL     1      47.526  91.299  35.249  1.00  0.00     0.182 C 
BRANCH  32  35
HETATM   35  N3  UNL     1      47.073  94.913  35.627  1.00  0.00    -0.297 N 
HETATM   36  C12 UNL     1      46.072  95.852  35.523  1.00  0.00     0.188 A 
HETATM   37  N4  UNL     1      46.587  97.069  35.346  1.00  0.00    -0.346 N 
HETATM   38  C13 UNL     1      47.945  96.921  35.347  1.00  0.00     0.119 A 
ATOM     39  H4  UNL     1      46.069  97.940  35.234  1.00  0.00     0.167 HD
HETATM   40  C14 UNL     1      48.948  97.833  35.195  1.00  0.00     0.148 A 
HETATM   41  C16 UNL     1      48.223  95.573  35.519  1.00  0.00     0.142 A 
HETATM   42  N5  UNL     1      48.665  99.221  35.055  1.00  0.00    -0.080 NA
HETATM   43  N6  UNL     1      50.227  97.425  35.198  1.00  0.00    -0.339 N 
HETATM   44  C15 UNL     1      50.523  96.131  35.350  1.00  0.00     0.183 A 
ATOM     45  H6  UNL     1      50.978  98.106  35.083  1.00  0.00     0.167 HD
HETATM   46  N7  UNL     1      49.515  95.221  35.511  1.00  0.00    -0.336 N 
ATOM     47  H7  UNL     1      49.756  94.237  35.629  1.00  0.00     0.168 HD
ENDBRANCH  32  35
BRANCH  33  48
HETATM   48  O11 UNL     1      46.410  92.713  33.588  1.00  0.00    -0.388 OA
ATOM     49  H11 UNL     1      45.800  93.439  33.645  1.00  0.00     0.210 HD
ENDBRANCH  33  48
BRANCH  34  50
HETATM   50  O12 UNL     1      46.262  90.648  35.108  1.00  0.00    -0.390 OA
ATOM     51  H12 UNL     1      45.931  90.788  34.229  1.00  0.00     0.210 HD
ENDBRANCH  34  50
ENDBRANCH  29  30
ENDBRANCH  28  29
ENDBRANCH   1  28
TORSDOF 15
ENDMDL
