MODEL 2
REMARK VINA RESULT: -7.903894230      2.033      6.103
REMARK  4 active torsions:
REMARK  status: ('A' for Active; 'I' for Inactive)
REMARK    1  A    between atoms: C1_2  and  C2_4 
REMARK       I    between atoms: C2_4  and  N1_6 
REMARK    2  A    between atoms: N1_6  and  C3_7 
REMARK    3  A    between atoms: N1_6  and  C10_16 
REMARK    4  A    between atoms: C8_12  and  C9_13 
ROOT
HETATM    1  C2  UNL     1      37.736  25.989  19.836  1.00  0.00     0.329 C 
HETATM    2  O3  UNL     1      38.509  25.077  19.461  1.00  0.00    -0.260 OA
HETATM    3  N1  UNL     1      36.418  25.704  20.409  1.00  0.00    -0.272 N 
ENDROOT
BRANCH   3   4
HETATM    4  C3  UNL     1      35.599  26.827  20.645  1.00  0.00     0.060 A 
HETATM    5  C4  UNL     1      34.891  27.367  19.524  1.00  0.00     0.031 A 
HETATM    6  C5  UNL     1      34.085  28.441  19.725  1.00  0.00     0.002 A 
HETATM    7  C6  UNL     1      33.919  29.033  20.958  1.00  0.00     0.001 A 
HETATM    8  C7  UNL     1      34.594  28.523  22.033  1.00  0.00     0.021 A 
HETATM    9  C8  UNL     1      35.451  27.399  21.868  1.00  0.00     0.068 A 
BRANCH   9  10
HETATM   10  C9  UNL     1      36.183  26.991  23.053  1.00  0.00     0.211 C 
HETATM   11  O4  UNL     1      35.675  26.149  23.848  1.00  0.00    -0.644 OA
HETATM   12  O5  UNL     1      37.416  27.507  23.335  1.00  0.00    -0.644 OA
ENDBRANCH   9  10
ENDBRANCH   3   4
BRANCH   3  13
HETATM   13  C10 UNL     1      36.188  24.332  20.634  1.00  0.00     0.054 A 
HETATM   14  C11 UNL     1      36.714  23.750  21.801  1.00  0.00     0.031 A 
HETATM   15  C12 UNL     1      36.586  22.430  22.107  1.00  0.00     0.003 A 
HETATM   16  C13 UNL     1      35.919  21.588  21.268  1.00  0.00     0.012 A 
HETATM   17  C14 UNL     1      35.381  22.096  20.112  1.00  0.00    -0.024 A 
HETATM   18  C15 UNL     1      34.711  21.261  19.264  1.00  0.00     0.012 A 
HETATM   19  C19 UNL     1      35.523  23.448  19.816  1.00  0.00     0.001 A 
HETATM   20  C16 UNL     1      34.149  21.720  18.088  1.00  0.00     0.001 A 
HETATM   21  C17 UNL     1      34.286  23.053  17.792  1.00  0.00     0.001 A 
HETATM   22  C18 UNL     1      34.960  23.878  18.648  1.00  0.00     0.014 A 
ENDBRANCH   3  13
BRANCH   1  23
HETATM   23  C1  UNL     1      38.187  27.342  19.689  1.00  0.00     0.270 C 
HETATM   24  O1  UNL     1      37.988  28.075  18.691  1.00  0.00    -0.640 OA
HETATM   25  O2  UNL     1      38.925  27.962  20.721  1.00  0.00    -0.640 OA
ENDBRANCH   1  23
TORSDOF 4
ENDMDL
