MODEL 3
REMARK VINA RESULT: -7.602973949      2.285      6.537
REMARK  4 active torsions:
REMARK  status: ('A' for Active; 'I' for Inactive)
REMARK    1  A    between atoms: C1_2  and  C2_4 
REMARK       I    between atoms: C2_4  and  N1_6 
REMARK    2  A    between atoms: N1_6  and  C3_7 
REMARK    3  A    between atoms: N1_6  and  C10_16 
REMARK    4  A    between atoms: C8_12  and  C9_13 
ROOT
HETATM    1  C2  UNL     1      37.250  25.059  19.612  1.00  0.00     0.329 C 
HETATM    2  O3  UNL     1      38.005  24.106  19.305  1.00  0.00    -0.260 OA
HETATM    3  N1  UNL     1      35.945  24.843  20.242  1.00  0.00    -0.272 N 
ENDROOT
BRANCH   3   4
HETATM    4  C3  UNL     1      35.143  25.993  20.393  1.00  0.00     0.060 A 
HETATM    5  C4  UNL     1      34.331  26.374  19.277  1.00  0.00     0.031 A 
HETATM    6  C5  UNL     1      33.539  27.470  19.398  1.00  0.00     0.002 A 
HETATM    7  C6  UNL     1      33.483  28.230  20.546  1.00  0.00     0.001 A 
HETATM    8  C7  UNL     1      34.257  27.873  21.615  1.00  0.00     0.021 A 
HETATM    9  C8  UNL     1      35.104  26.732  21.531  1.00  0.00     0.068 A 
BRANCH   9  10
HETATM   10  C9  UNL     1      35.945  26.490  22.689  1.00  0.00     0.211 C 
HETATM   11  O4  UNL     1      35.489  25.841  23.675  1.00  0.00    -0.644 OA
HETATM   12  O5  UNL     1      37.227  26.958  22.742  1.00  0.00    -0.644 OA
ENDBRANCH   9  10
ENDBRANCH   3   4
BRANCH   3  13
HETATM   13  C10 UNL     1      35.708  23.501  20.599  1.00  0.00     0.054 A 
HETATM   14  C11 UNL     1      36.158  23.055  21.854  1.00  0.00     0.031 A 
HETATM   15  C12 UNL     1      36.017  21.774  22.292  1.00  0.00     0.003 A 
HETATM   16  C13 UNL     1      35.412  20.838  21.508  1.00  0.00     0.012 A 
HETATM   17  C14 UNL     1      34.949  21.211  20.271  1.00  0.00    -0.024 A 
HETATM   18  C15 UNL     1      34.342  20.281  19.476  1.00  0.00     0.012 A 
HETATM   19  C19 UNL     1      35.104  22.525  19.840  1.00  0.00     0.001 A 
HETATM   20  C16 UNL     1      33.858  20.603  18.223  1.00  0.00     0.001 A 
HETATM   21  C17 UNL     1      34.007  21.898  17.794  1.00  0.00     0.001 A 
HETATM   22  C18 UNL     1      34.618  22.820  18.598  1.00  0.00     0.014 A 
ENDBRANCH   3  13
BRANCH   1  23
HETATM   23  C1  UNL     1      37.710  26.386  19.329  1.00  0.00     0.270 C 
HETATM   24  O1  UNL     1      37.363  27.087  18.350  1.00  0.00    -0.640 OA
HETATM   25  O2  UNL     1      38.636  27.018  20.189  1.00  0.00    -0.640 OA
ENDBRANCH   1  23
TORSDOF 4
ENDMDL
