MODEL 5
REMARK VINA RESULT: -7.562081795      1.918      5.287
REMARK  4 active torsions:
REMARK  status: ('A' for Active; 'I' for Inactive)
REMARK    1  A    between atoms: C1_2  and  C2_4 
REMARK       I    between atoms: C2_4  and  N1_6 
REMARK    2  A    between atoms: N1_6  and  C3_7 
REMARK    3  A    between atoms: N1_6  and  C10_16 
REMARK    4  A    between atoms: C8_12  and  C9_13 
ROOT
HETATM    1  C2  UNL     1      35.320  26.995  22.884  1.00  0.00     0.329 C 
HETATM    2  O3  UNL     1      35.301  26.106  23.767  1.00  0.00    -0.260 OA
HETATM    3  N1  UNL     1      35.750  26.716  21.512  1.00  0.00    -0.272 N 
ENDROOT
BRANCH   3   4
HETATM    4  C3  UNL     1      35.864  27.840  20.668  1.00  0.00     0.060 A 
HETATM    5  C4  UNL     1      34.660  28.329  20.065  1.00  0.00     0.031 A 
HETATM    6  C5  UNL     1      34.738  29.418  19.257  1.00  0.00     0.002 A 
HETATM    7  C6  UNL     1      35.922  30.071  18.993  1.00  0.00     0.001 A 
HETATM    8  C7  UNL     1      37.075  29.609  19.565  1.00  0.00     0.021 A 
HETATM    9  C8  UNL     1      37.040  28.470  20.416  1.00  0.00     0.068 A 
BRANCH   9  10
HETATM   10  C9  UNL     1      38.329  28.012  20.902  1.00  0.00     0.211 C 
HETATM   11  O4  UNL     1      39.156  27.491  20.100  1.00  0.00    -0.644 OA
HETATM   12  O5  UNL     1      38.670  28.127  22.220  1.00  0.00    -0.644 OA
ENDBRANCH   9  10
ENDBRANCH   3   4
BRANCH   3  13
HETATM   13  C10 UNL     1      35.979  25.349  21.261  1.00  0.00     0.054 A 
HETATM   14  C11 UNL     1      37.035  24.715  21.938  1.00  0.00     0.031 A 
HETATM   15  C12 UNL     1      37.373  23.409  21.750  1.00  0.00     0.003 A 
HETATM   16  C13 UNL     1      36.677  22.635  20.870  1.00  0.00     0.012 A 
HETATM   17  C14 UNL     1      35.633  23.196  20.178  1.00  0.00    -0.024 A 
HETATM   18  C15 UNL     1      34.929  22.430  19.294  1.00  0.00     0.012 A 
HETATM   19  C19 UNL     1      35.304  24.533  20.383  1.00  0.00     0.001 A 
HETATM   20  C16 UNL     1      33.869  22.944  18.572  1.00  0.00     0.001 A 
HETATM   21  C17 UNL     1      33.541  24.262  18.770  1.00  0.00     0.001 A 
HETATM   22  C18 UNL     1      34.253  25.019  19.658  1.00  0.00     0.014 A 
ENDBRANCH   3  13
BRANCH   1  23
HETATM   23  C1  UNL     1      34.899  28.312  23.260  1.00  0.00     0.270 C 
HETATM   24  O1  UNL     1      33.713  28.678  23.439  1.00  0.00    -0.640 OA
HETATM   25  O2  UNL     1      35.852  29.334  23.464  1.00  0.00    -0.640 OA
ENDBRANCH   1  23
TORSDOF 4
ENDMDL
