MODEL 1
REMARK VINA RESULT: -8.094780528      0.000      0.000
REMARK  4 active torsions:
REMARK  status: ('A' for Active; 'I' for Inactive)
REMARK    1  A    between atoms: C1_2  and  C2_4 
REMARK       I    between atoms: C2_4  and  N1_6 
REMARK    2  A    between atoms: N1_6  and  C3_7 
REMARK    3  A    between atoms: N1_6  and  C10_16 
REMARK    4  A    between atoms: C8_12  and  C9_13 
ROOT
HETATM    1  C2  UNL     1      35.974  28.674  22.046  1.00  0.00     0.329 C 
HETATM    2  O3  UNL     1      36.004  29.916  22.211  1.00  0.00    -0.260 OA
HETATM    3  N1  UNL     1      35.361  28.063  20.864  1.00  0.00    -0.272 N 
ENDROOT
BRANCH   3   4
HETATM    4  C3  UNL     1      35.266  26.656  20.885  1.00  0.00     0.060 A 
HETATM    5  C4  UNL     1      34.149  26.087  21.575  1.00  0.00     0.031 A 
HETATM    6  C5  UNL     1      34.026  24.734  21.600  1.00  0.00     0.002 A 
HETATM    7  C6  UNL     1      34.928  23.889  20.992  1.00  0.00     0.001 A 
HETATM    8  C7  UNL     1      35.999  24.427  20.332  1.00  0.00     0.021 A 
HETATM    9  C8  UNL     1      36.167  25.838  20.282  1.00  0.00     0.068 A 
BRANCH   9  10
HETATM   10  C9  UNL     1      37.379  26.301  19.631  1.00  0.00     0.211 C 
HETATM   11  O4  UNL     1      37.414  26.415  18.372  1.00  0.00    -0.644 OA
HETATM   12  O5  UNL     1      38.496  26.612  20.354  1.00  0.00    -0.644 OA
ENDBRANCH   9  10
ENDBRANCH   3   4
BRANCH   3  13
HETATM   13  C10 UNL     1      34.964  28.999  19.889  1.00  0.00     0.054 A 
HETATM   14  C11 UNL     1      35.856  29.290  18.842  1.00  0.00     0.031 A 
HETATM   15  C12 UNL     1      35.596  30.201  17.864  1.00  0.00     0.003 A 
HETATM   16  C13 UNL     1      34.421  30.891  17.857  1.00  0.00     0.012 A 
HETATM   17  C14 UNL     1      33.507  30.651  18.852  1.00  0.00    -0.024 A 
HETATM   18  C15 UNL     1      32.327  31.337  18.855  1.00  0.00     0.012 A 
HETATM   19  C19 UNL     1      33.791  29.717  19.844  1.00  0.00     0.001 A 
HETATM   20  C16 UNL     1      31.372  31.134  19.832  1.00  0.00     0.001 A 
HETATM   21  C17 UNL     1      31.647  30.213  20.812  1.00  0.00     0.001 A 
HETATM   22  C18 UNL     1      32.832  29.534  20.799  1.00  0.00     0.014 A 
ENDBRANCH   3  13
BRANCH   1  23
HETATM   23  C1  UNL     1      36.570  27.857  23.061  1.00  0.00     0.270 C 
HETATM   24  O1  UNL     1      37.783  27.549  23.133  1.00  0.00    -0.640 OA
HETATM   25  O2  UNL     1      35.778  27.319  24.099  1.00  0.00    -0.640 OA
ENDBRANCH   1  23
TORSDOF 4
ENDMDL
