MODEL 10
REMARK VINA RESULT: -6.555776893      5.435      7.922
REMARK  10 active torsions:
REMARK  status: ('A' for Active; 'I' for Inactive)
REMARK    1  A    between atoms: N4_17  and  C9_18 
REMARK    2  A    between atoms: C9_18  and  C10_19 
REMARK    3  A    between atoms: C10_19  and  O3_20 
REMARK    4  A    between atoms: C10_19  and  C11_22 
REMARK    5  A    between atoms: C11_22  and  O4_23 
REMARK    6  A    between atoms: C11_22  and  C12_25 
REMARK    7  A    between atoms: C12_25  and  O5_26 
REMARK    8  A    between atoms: C12_25  and  C13_28 
REMARK    9  A    between atoms: C13_28  and  O6_29 
REMARK   10  A    between atoms: O6_29  and  P1_30 
ROOT
HETATM    1  C1  UNL     1       8.016  33.047  44.194  1.00  0.00     0.049 C 
HETATM    2  C2  UNL     1       9.172  32.292  43.655  1.00  0.00    -0.054 A 
HETATM    3  C3  UNL     1      10.462  32.627  44.007  1.00  0.00     0.039 A 
HETATM    4  C4  UNL     1      11.562  31.937  43.518  1.00  0.00     0.060 A 
HETATM    5  N1  UNL     1      12.797  32.306  43.900  1.00  0.00    -0.347 N 
ATOM      6  H1  UNL     1      12.913  33.091  44.541  1.00  0.00     0.166 HD
HETATM    7  C5  UNL     1      13.876  31.655  43.448  1.00  0.00     0.146 A 
HETATM    8  C6  UNL     1      15.183  31.998  43.816  1.00  0.00     0.280 A 
HETATM    9  O1  UNL     1      15.332  32.955  44.597  1.00  0.00    -0.265 OA
HETATM   10  N2  UNL     1      16.229  31.294  43.318  1.00  0.00    -0.273 N 
ATOM     11  H2  UNL     1      17.183  31.541  43.582  1.00  0.00     0.173 HD
HETATM   12  C7  UNL     1      16.010  30.268  42.475  1.00  0.00     0.328 A 
HETATM   13  O2  UNL     1      17.024  29.656  42.051  1.00  0.00    -0.247 OA
HETATM   14  N3  UNL     1      14.753  29.899  42.091  1.00  0.00    -0.292 N 
ATOM     15  H3  UNL     1      14.636  29.114  41.450  1.00  0.00     0.172 HD
HETATM   16  C8  UNL     1      13.667  30.547  42.540  1.00  0.00     0.145 A 
HETATM   17  N4  UNL     1      12.391  30.208  42.178  1.00  0.00    -0.327 N 
HETATM   18  C14 UNL     1      11.320  30.872  42.642  1.00  0.00     0.063 A 
HETATM   19  C15 UNL     1      10.031  30.529  42.285  1.00  0.00     0.039 A 
HETATM   20  C16 UNL     1       8.956  31.236  42.790  1.00  0.00    -0.054 A 
HETATM   21  C17 UNL     1       7.564  30.882  42.418  1.00  0.00     0.049 C 
ENDROOT
BRANCH  17  22
HETATM   22  C9  UNL     1      12.239  29.092  41.270  1.00  0.00     0.165 C 
BRANCH  22  23
HETATM   23  C10 UNL     1      12.928  29.466  39.950  1.00  0.00     0.167 C 
BRANCH  23  24
HETATM   24  O3  UNL     1      12.253  30.400  39.215  1.00  0.00    -0.391 OA
ATOM     25  H3  UNL     1      12.753  30.758  38.490  1.00  0.00     0.210 HD
ENDBRANCH  23  24
BRANCH  23  26
HETATM   26  C11 UNL     1      13.359  28.318  39.157  1.00  0.00     0.179 C 
BRANCH  26  27
HETATM   27  O4  UNL     1      12.482  27.245  39.336  1.00  0.00    -0.390 OA
ATOM     28  H4  UNL     1      12.716  26.526  38.759  1.00  0.00     0.210 HD
ENDBRANCH  26  27
BRANCH  26  29
HETATM   29  C12 UNL     1      14.744  27.843  39.136  1.00  0.00     0.173 C 
BRANCH  29  30
HETATM   30  O5  UNL     1      15.535  29.038  39.317  1.00  0.00    -0.391 OA
ATOM     31  H5  UNL     1      15.920  29.197  38.463  1.00  0.00     0.210 HD
ENDBRANCH  29  30
BRANCH  29  32
HETATM   32  C13 UNL     1      15.259  27.334  37.793  1.00  0.00     0.217 C 
BRANCH  32  33
HETATM   33  O6  UNL     1      14.194  26.660  37.125  1.00  0.00    -0.280 OA
BRANCH  33  34
HETATM   34  P1  UNL     1      14.004  27.284  35.574  1.00  0.00     0.422 P 
HETATM   35  O7  UNL     1      13.153  28.507  35.652  1.00  0.00    -0.617 OA
HETATM   36  O8  UNL     1      13.275  26.175  34.531  1.00  0.00    -0.617 OA
HETATM   37  O9  UNL     1      15.498  27.728  34.896  1.00  0.00    -0.617 OA
ENDBRANCH  33  34
ENDBRANCH  32  33
ENDBRANCH  29  32
ENDBRANCH  26  29
ENDBRANCH  23  26
ENDBRANCH  22  23
ENDBRANCH  17  22
TORSDOF 10
ENDMDL
