MODEL 4
REMARK VINA RESULT: -6.880388868      3.088      4.353
REMARK  10 active torsions:
REMARK  status: ('A' for Active; 'I' for Inactive)
REMARK    1  A    between atoms: N4_17  and  C9_18 
REMARK    2  A    between atoms: C9_18  and  C10_19 
REMARK    3  A    between atoms: C10_19  and  O3_20 
REMARK    4  A    between atoms: C10_19  and  C11_22 
REMARK    5  A    between atoms: C11_22  and  O4_23 
REMARK    6  A    between atoms: C11_22  and  C12_25 
REMARK    7  A    between atoms: C12_25  and  O5_26 
REMARK    8  A    between atoms: C12_25  and  C13_28 
REMARK    9  A    between atoms: C13_28  and  O6_29 
REMARK   10  A    between atoms: O6_29  and  P1_30 
ROOT
HETATM    1  C1  UNL     1       8.426  33.006  44.372  1.00  0.00     0.049 C 
HETATM    2  C2  UNL     1       8.867  32.016  43.360  1.00  0.00    -0.054 A 
HETATM    3  C3  UNL     1       7.990  31.532  42.414  1.00  0.00     0.039 A 
HETATM    4  C4  UNL     1       8.376  30.606  41.456  1.00  0.00     0.060 A 
HETATM    5  N1  UNL     1       7.477  30.174  40.554  1.00  0.00    -0.347 N 
ATOM      6  H1  UNL     1       6.521  30.527  40.585  1.00  0.00     0.166 HD
HETATM    7  C5  UNL     1       7.824  29.285  39.615  1.00  0.00     0.146 A 
HETATM    8  C6  UNL     1       6.927  28.804  38.653  1.00  0.00     0.280 A 
HETATM    9  O1  UNL     1       5.759  29.231  38.686  1.00  0.00    -0.265 OA
HETATM   10  N2  UNL     1       7.349  27.903  37.732  1.00  0.00    -0.273 N 
ATOM     11  H2  UNL     1       6.698  27.549  37.029  1.00  0.00     0.173 HD
HETATM   12  C7  UNL     1       8.623  27.474  37.743  1.00  0.00     0.328 A 
HETATM   13  O2  UNL     1       8.950  26.639  36.860  1.00  0.00    -0.247 OA
HETATM   14  N3  UNL     1       9.531  27.917  38.662  1.00  0.00    -0.292 N 
ATOM     15  H3  UNL     1      10.487  27.564  38.631  1.00  0.00     0.172 HD
HETATM   16  C8  UNL     1       9.191  28.808  39.605  1.00  0.00     0.145 A 
HETATM   17  N4  UNL     1      10.071  29.276  40.544  1.00  0.00    -0.327 N 
HETATM   18  C14 UNL     1       9.706  30.169  41.478  1.00  0.00     0.063 A 
HETATM   19  C15 UNL     1      10.592  30.649  42.423  1.00  0.00     0.039 A 
HETATM   20  C16 UNL     1      10.175  31.572  43.364  1.00  0.00    -0.054 A 
HETATM   21  C17 UNL     1      11.113  32.098  44.386  1.00  0.00     0.049 C 
ENDROOT
BRANCH  17  22
HETATM   22  C9  UNL     1      11.424  28.769  40.489  1.00  0.00     0.165 C 
BRANCH  22  23
HETATM   23  C10 UNL     1      12.270  29.776  39.698  1.00  0.00     0.167 C 
BRANCH  23  24
HETATM   24  O3  UNL     1      12.071  29.731  38.347  1.00  0.00    -0.391 OA
ATOM     25  H3  UNL     1      11.864  28.865  38.015  1.00  0.00     0.210 HD
ENDBRANCH  23  24
BRANCH  23  26
HETATM   26  C11 UNL     1      13.684  29.788  40.068  1.00  0.00     0.179 C 
BRANCH  26  27
HETATM   27  O4  UNL     1      14.376  30.739  39.314  1.00  0.00    -0.390 OA
ATOM     28  H4  UNL     1      15.189  30.372  38.984  1.00  0.00     0.210 HD
ENDBRANCH  26  27
BRANCH  26  29
HETATM   29  C12 UNL     1      14.480  28.566  40.199  1.00  0.00     0.173 C 
BRANCH  29  30
HETATM   30  O5  UNL     1      15.849  29.028  40.174  1.00  0.00    -0.391 OA
ATOM     31  H5  UNL     1      16.365  28.230  40.159  1.00  0.00     0.210 HD
ENDBRANCH  29  30
BRANCH  29  32
HETATM   32  C13 UNL     1      14.455  27.617  39.004  1.00  0.00     0.217 C 
BRANCH  32  33
HETATM   33  O6  UNL     1      14.861  28.339  37.843  1.00  0.00    -0.280 OA
BRANCH  33  34
HETATM   34  P1  UNL     1      14.259  27.590  36.462  1.00  0.00     0.422 P 
HETATM   35  O7  UNL     1      13.261  28.497  35.823  1.00  0.00    -0.617 OA
HETATM   36  O8  UNL     1      13.513  26.118  36.816  1.00  0.00    -0.617 OA
HETATM   37  O9  UNL     1      15.491  27.288  35.331  1.00  0.00    -0.617 OA
ENDBRANCH  33  34
ENDBRANCH  32  33
ENDBRANCH  29  32
ENDBRANCH  26  29
ENDBRANCH  23  26
ENDBRANCH  22  23
ENDBRANCH  17  22
TORSDOF 10
ENDMDL
