MODEL 18
REMARK VINA RESULT: -6.288391971      5.341      8.058
REMARK  10 active torsions:
REMARK  status: ('A' for Active; 'I' for Inactive)
REMARK    1  A    between atoms: N4_17  and  C9_18 
REMARK    2  A    between atoms: C9_18  and  C10_19 
REMARK    3  A    between atoms: C10_19  and  O3_20 
REMARK    4  A    between atoms: C10_19  and  C11_22 
REMARK    5  A    between atoms: C11_22  and  O4_23 
REMARK    6  A    between atoms: C11_22  and  C12_25 
REMARK    7  A    between atoms: C12_25  and  O5_26 
REMARK    8  A    between atoms: C12_25  and  C13_28 
REMARK    9  A    between atoms: C13_28  and  O6_29 
REMARK   10  A    between atoms: O6_29  and  P1_30 
ROOT
HETATM    1  C1  UNL     1       7.474  30.917  44.466  1.00  0.00     0.049 C 
HETATM    2  C2  UNL     1       8.795  30.951  43.795  1.00  0.00    -0.054 A 
HETATM    3  C3  UNL     1       9.895  31.495  44.423  1.00  0.00     0.039 A 
HETATM    4  C4  UNL     1      11.142  31.540  43.818  1.00  0.00     0.060 A 
HETATM    5  N1  UNL     1      12.180  32.079  44.482  1.00  0.00    -0.347 N 
ATOM      6  H1  UNL     1      12.039  32.452  45.421  1.00  0.00     0.166 HD
HETATM    7  C5  UNL     1      13.396  32.130  43.925  1.00  0.00     0.146 A 
HETATM    8  C6  UNL     1      14.509  32.679  44.573  1.00  0.00     0.280 A 
HETATM    9  O1  UNL     1      14.344  33.137  45.719  1.00  0.00    -0.265 OA
HETATM   10  N2  UNL     1      15.711  32.698  43.947  1.00  0.00    -0.273 N 
ATOM     11  H2  UNL     1      16.525  33.098  44.416  1.00  0.00     0.173 HD
HETATM   12  C7  UNL     1      15.833  32.190  42.708  1.00  0.00     0.328 A 
HETATM   13  O2  UNL     1      16.976  32.238  42.184  1.00  0.00    -0.247 OA
HETATM   14  N3  UNL     1      14.774  31.645  42.039  1.00  0.00    -0.292 N 
ATOM     15  H3  UNL     1      14.915  31.271  41.100  1.00  0.00     0.172 HD
HETATM   16  C8  UNL     1      13.553  31.589  42.591  1.00  0.00     0.145 A 
HETATM   17  N4  UNL     1      12.468  31.052  41.954  1.00  0.00    -0.327 N 
HETATM   18  C14 UNL     1      11.255  31.008  42.528  1.00  0.00     0.063 A 
HETATM   19  C15 UNL     1      10.159  30.460  41.891  1.00  0.00     0.039 A 
HETATM   20  C16 UNL     1       8.929  30.430  42.522  1.00  0.00    -0.054 A 
HETATM   21  C17 UNL     1       7.740  29.846  41.853  1.00  0.00     0.049 C 
ENDROOT
BRANCH  17  22
HETATM   22  C9  UNL     1      12.680  30.524  40.623  1.00  0.00     0.165 C 
BRANCH  22  23
HETATM   23  C10 UNL     1      13.185  29.082  40.766  1.00  0.00     0.167 C 
BRANCH  23  24
HETATM   24  O3  UNL     1      14.504  28.920  40.448  1.00  0.00    -0.391 OA
ATOM     25  H3  UNL     1      14.986  28.377  41.061  1.00  0.00     0.210 HD
ENDBRANCH  23  24
BRANCH  23  26
HETATM   26  C11 UNL     1      12.319  28.083  40.144  1.00  0.00     0.179 C 
BRANCH  26  27
HETATM   27  O4  UNL     1      13.055  26.944  39.805  1.00  0.00    -0.390 OA
ATOM     28  H4  UNL     1      13.837  26.884  40.342  1.00  0.00     0.210 HD
ENDBRANCH  26  27
BRANCH  26  29
HETATM   29  C12 UNL     1      11.370  28.409  39.077  1.00  0.00     0.173 C 
BRANCH  29  30
HETATM   30  O5  UNL     1      10.178  27.668  39.421  1.00  0.00    -0.391 OA
ATOM     31  H5  UNL     1      10.084  27.035  38.719  1.00  0.00     0.210 HD
ENDBRANCH  29  30
BRANCH  29  32
HETATM   32  C13 UNL     1      11.693  27.846  37.697  1.00  0.00     0.217 C 
BRANCH  32  33
HETATM   33  O6  UNL     1      12.754  28.614  37.131  1.00  0.00    -0.280 OA
BRANCH  33  34
HETATM   34  P1  UNL     1      14.064  27.616  36.789  1.00  0.00     0.422 P 
HETATM   35  O7  UNL     1      15.172  27.941  37.734  1.00  0.00    -0.617 OA
HETATM   36  O8  UNL     1      14.618  27.820  35.207  1.00  0.00    -0.617 OA
HETATM   37  O9  UNL     1      13.667  25.977  36.991  1.00  0.00    -0.617 OA
ENDBRANCH  33  34
ENDBRANCH  32  33
ENDBRANCH  29  32
ENDBRANCH  26  29
ENDBRANCH  23  26
ENDBRANCH  22  23
ENDBRANCH  17  22
TORSDOF 10
ENDMDL
