MODEL 1
REMARK VINA RESULT: -7.166413759      0.000      0.000
REMARK  10 active torsions:
REMARK  status: ('A' for Active; 'I' for Inactive)
REMARK    1  A    between atoms: N4_17  and  C9_18 
REMARK    2  A    between atoms: C9_18  and  C10_19 
REMARK    3  A    between atoms: C10_19  and  O3_20 
REMARK    4  A    between atoms: C10_19  and  C11_22 
REMARK    5  A    between atoms: C11_22  and  O4_23 
REMARK    6  A    between atoms: C11_22  and  C12_25 
REMARK    7  A    between atoms: C12_25  and  O5_26 
REMARK    8  A    between atoms: C12_25  and  C13_28 
REMARK    9  A    between atoms: C13_28  and  O6_29 
REMARK   10  A    between atoms: O6_29  and  P1_30 
ROOT
HETATM    1  C1  UNL     1       4.034  30.553  41.274  1.00  0.00     0.049 C 
HETATM    2  C2  UNL     1       4.847  29.852  40.251  1.00  0.00    -0.054 A 
HETATM    3  C3  UNL     1       4.568  29.990  38.908  1.00  0.00     0.039 A 
HETATM    4  C4  UNL     1       5.313  29.345  37.931  1.00  0.00     0.060 A 
HETATM    5  N1  UNL     1       4.997  29.522  36.636  1.00  0.00    -0.347 N 
ATOM      6  H1  UNL     1       4.212  30.123  36.385  1.00  0.00     0.166 HD
HETATM    7  C5  UNL     1       5.702  28.917  35.672  1.00  0.00     0.146 A 
HETATM    8  C6  UNL     1       5.415  29.068  34.310  1.00  0.00     0.280 A 
HETATM    9  O1  UNL     1       4.459  29.800  33.997  1.00  0.00    -0.265 OA
HETATM   10  N2  UNL     1       6.172  28.424  33.387  1.00  0.00    -0.273 N 
ATOM     11  H2  UNL     1       5.966  28.530  32.394  1.00  0.00     0.173 HD
HETATM   12  C7  UNL     1       7.195  27.644  33.781  1.00  0.00     0.328 A 
HETATM   13  O2  UNL     1       7.858  27.076  32.875  1.00  0.00    -0.247 OA
HETATM   14  N3  UNL     1       7.510  27.469  35.099  1.00  0.00    -0.292 N 
ATOM     15  H3  UNL     1       8.295  26.868  35.349  1.00  0.00     0.172 HD
HETATM   16  C8  UNL     1       6.808  28.073  36.070  1.00  0.00     0.145 A 
HETATM   17  N4  UNL     1       7.092  27.922  37.400  1.00  0.00    -0.327 N 
HETATM   18  C14 UNL     1       6.375  28.537  38.355  1.00  0.00     0.063 A 
HETATM   19  C15 UNL     1       6.662  28.394  39.698  1.00  0.00     0.039 A 
HETATM   20  C16 UNL     1       5.900  29.050  40.647  1.00  0.00    -0.054 A 
HETATM   21  C17 UNL     1       6.194  28.908  42.095  1.00  0.00     0.049 C 
ENDROOT
BRANCH  17  22
HETATM   22  C9  UNL     1       8.208  27.068  37.744  1.00  0.00     0.165 C 
BRANCH  22  23
HETATM   23  C10 UNL     1       9.499  27.857  37.482  1.00  0.00     0.167 C 
BRANCH  23  24
HETATM   24  O3  UNL     1      10.060  27.617  36.259  1.00  0.00    -0.391 OA
ATOM     25  H3  UNL     1      10.077  28.374  35.686  1.00  0.00     0.210 HD
ENDBRANCH  23  24
BRANCH  23  26
HETATM   26  C11 UNL     1      10.466  27.798  38.576  1.00  0.00     0.179 C 
BRANCH  26  27
HETATM   27  O4  UNL     1       9.812  27.592  39.794  1.00  0.00    -0.390 OA
ATOM     28  H4  UNL     1      10.138  28.196  40.451  1.00  0.00     0.210 HD
ENDBRANCH  26  27
BRANCH  26  29
HETATM   29  C12 UNL     1      11.542  28.778  38.738  1.00  0.00     0.173 C 
BRANCH  29  30
HETATM   30  O5  UNL     1      11.157  29.877  37.883  1.00  0.00    -0.391 OA
ATOM     31  H5  UNL     1      11.973  30.328  37.698  1.00  0.00     0.210 HD
ENDBRANCH  29  30
BRANCH  29  32
HETATM   32  C13 UNL     1      12.895  28.391  38.150  1.00  0.00     0.217 C 
BRANCH  32  33
HETATM   33  O6  UNL     1      12.909  28.749  36.769  1.00  0.00    -0.280 OA
BRANCH  33  34
HETATM   34  P1  UNL     1      13.485  27.464  35.849  1.00  0.00     0.422 P 
HETATM   35  O7  UNL     1      12.549  27.234  34.710  1.00  0.00    -0.617 OA
HETATM   36  O8  UNL     1      13.605  26.043  36.753  1.00  0.00    -0.617 OA
HETATM   37  O9  UNL     1      15.021  27.800  35.205  1.00  0.00    -0.617 OA
ENDBRANCH  33  34
ENDBRANCH  32  33
ENDBRANCH  29  32
ENDBRANCH  26  29
ENDBRANCH  23  26
ENDBRANCH  22  23
ENDBRANCH  17  22
TORSDOF 10
ENDMDL
