MODEL 2
REMARK VINA RESULT: -7.039929443      3.155      4.483
REMARK  10 active torsions:
REMARK  status: ('A' for Active; 'I' for Inactive)
REMARK    1  A    between atoms: N4_17  and  C9_18 
REMARK    2  A    between atoms: C9_18  and  C10_19 
REMARK    3  A    between atoms: C10_19  and  O3_20 
REMARK    4  A    between atoms: C10_19  and  C11_22 
REMARK    5  A    between atoms: C11_22  and  O4_23 
REMARK    6  A    between atoms: C11_22  and  C12_25 
REMARK    7  A    between atoms: C12_25  and  O5_26 
REMARK    8  A    between atoms: C12_25  and  C13_28 
REMARK    9  A    between atoms: C13_28  and  O6_29 
REMARK   10  A    between atoms: O6_29  and  P1_30 
ROOT
HETATM    1  C1  UNL     1       8.430  33.162  44.424  1.00  0.00     0.049 C 
HETATM    2  C2  UNL     1       8.857  32.177  43.402  1.00  0.00    -0.054 A 
HETATM    3  C3  UNL     1       7.960  31.677  42.482  1.00  0.00     0.039 A 
HETATM    4  C4  UNL     1       8.333  30.755  41.516  1.00  0.00     0.060 A 
HETATM    5  N1  UNL     1       7.415  30.306  40.641  1.00  0.00    -0.347 N 
ATOM      6  H1  UNL     1       6.455  30.645  40.699  1.00  0.00     0.166 HD
HETATM    7  C5  UNL     1       7.748  29.421  39.694  1.00  0.00     0.146 A 
HETATM    8  C6  UNL     1       6.831  28.923  38.760  1.00  0.00     0.280 A 
HETATM    9  O1  UNL     1       5.658  29.332  38.825  1.00  0.00    -0.265 OA
HETATM   10  N2  UNL     1       7.239  28.026  37.828  1.00  0.00    -0.273 N 
ATOM     11  H2  UNL     1       6.574  27.661  37.146  1.00  0.00     0.173 HD
HETATM   12  C7  UNL     1       8.520  27.618  37.803  1.00  0.00     0.328 A 
HETATM   13  O2  UNL     1       8.834  26.785  36.913  1.00  0.00    -0.247 OA
HETATM   14  N3  UNL     1       9.448  28.077  38.695  1.00  0.00    -0.292 N 
ATOM     15  H3  UNL     1      10.408  27.738  38.636  1.00  0.00     0.172 HD
HETATM   16  C8  UNL     1       9.121  28.965  39.646  1.00  0.00     0.145 A 
HETATM   17  N4  UNL     1      10.020  29.449  40.557  1.00  0.00    -0.327 N 
HETATM   18  C14 UNL     1       9.669  30.338  41.500  1.00  0.00     0.063 A 
HETATM   19  C15 UNL     1      10.575  30.834  42.417  1.00  0.00     0.039 A 
HETATM   20  C16 UNL     1      10.171  31.753  43.368  1.00  0.00    -0.054 A 
HETATM   21  C17 UNL     1      11.131  32.296  44.362  1.00  0.00     0.049 C 
ENDROOT
BRANCH  17  22
HETATM   22  C9  UNL     1      11.380  28.962  40.464  1.00  0.00     0.165 C 
BRANCH  22  23
HETATM   23  C10 UNL     1      12.185  29.978  39.643  1.00  0.00     0.167 C 
BRANCH  23  24
HETATM   24  O3  UNL     1      11.872  29.992  38.312  1.00  0.00    -0.391 OA
ATOM     25  H3  UNL     1      12.031  29.167  37.869  1.00  0.00     0.210 HD
ENDBRANCH  23  24
BRANCH  23  26
HETATM   26  C11 UNL     1      13.625  29.938  39.891  1.00  0.00     0.179 C 
BRANCH  26  27
HETATM   27  O4  UNL     1      14.241  31.080  39.372  1.00  0.00    -0.390 OA
ATOM     28  H4  UNL     1      14.254  31.046  38.422  1.00  0.00     0.210 HD
ENDBRANCH  26  27
BRANCH  26  29
HETATM   29  C12 UNL     1      14.444  28.754  39.623  1.00  0.00     0.173 C 
BRANCH  29  30
HETATM   30  O5  UNL     1      15.637  28.959  40.411  1.00  0.00    -0.391 OA
ATOM     31  H5  UNL     1      15.606  28.273  41.068  1.00  0.00     0.210 HD
ENDBRANCH  29  30
BRANCH  29  32
HETATM   32  C13 UNL     1      15.021  28.642  38.216  1.00  0.00     0.217 C 
BRANCH  32  33
HETATM   33  O6  UNL     1      14.797  27.316  37.738  1.00  0.00    -0.280 OA
BRANCH  33  34
HETATM   34  P1  UNL     1      13.411  27.275  36.786  1.00  0.00     0.422 P 
HETATM   35  O7  UNL     1      13.532  26.150  35.813  1.00  0.00    -0.617 OA
HETATM   36  O8  UNL     1      13.188  28.715  35.933  1.00  0.00    -0.617 OA
HETATM   37  O9  UNL     1      12.020  27.008  37.725  1.00  0.00    -0.617 OA
ENDBRANCH  33  34
ENDBRANCH  32  33
ENDBRANCH  29  32
ENDBRANCH  26  29
ENDBRANCH  23  26
ENDBRANCH  22  23
ENDBRANCH  17  22
TORSDOF 10
ENDMDL
