MODEL 12
REMARK VINA RESULT: -6.500738319      5.529      8.364
REMARK  10 active torsions:
REMARK  status: ('A' for Active; 'I' for Inactive)
REMARK    1  A    between atoms: N4_17  and  C9_18 
REMARK    2  A    between atoms: C9_18  and  C10_19 
REMARK    3  A    between atoms: C10_19  and  O3_20 
REMARK    4  A    between atoms: C10_19  and  C11_22 
REMARK    5  A    between atoms: C11_22  and  O4_23 
REMARK    6  A    between atoms: C11_22  and  C12_25 
REMARK    7  A    between atoms: C12_25  and  O5_26 
REMARK    8  A    between atoms: C12_25  and  C13_28 
REMARK    9  A    between atoms: C13_28  and  O6_29 
REMARK   10  A    between atoms: O6_29  and  P1_30 
ROOT
HETATM    1  C1  UNL     1       7.762  32.281  43.543  1.00  0.00     0.049 C 
HETATM    2  C2  UNL     1       9.121  31.772  43.241  1.00  0.00    -0.054 A 
HETATM    3  C3  UNL     1      10.234  32.329  43.833  1.00  0.00     0.039 A 
HETATM    4  C4  UNL     1      11.516  31.871  43.568  1.00  0.00     0.060 A 
HETATM    5  N1  UNL     1      12.564  32.451  44.180  1.00  0.00    -0.347 N 
ATOM      6  H1  UNL     1      12.407  33.222  44.828  1.00  0.00     0.166 HD
HETATM    7  C5  UNL     1      13.812  32.026  43.947  1.00  0.00     0.146 A 
HETATM    8  C6  UNL     1      14.937  32.594  44.558  1.00  0.00     0.280 A 
HETATM    9  O1  UNL     1      14.752  33.536  45.350  1.00  0.00    -0.265 OA
HETATM   10  N2  UNL     1      16.172  32.112  44.275  1.00  0.00    -0.273 N 
ATOM     11  H2  UNL     1      16.995  32.524  44.717  1.00  0.00     0.173 HD
HETATM   12  C7  UNL     1      16.315  31.092  43.410  1.00  0.00     0.328 A 
HETATM   13  O2  UNL     1      17.488  30.692  43.192  1.00  0.00    -0.247 OA
HETATM   14  N3  UNL     1      15.246  30.508  42.792  1.00  0.00    -0.292 N 
ATOM     15  H3  UNL     1      15.404  29.736  42.144  1.00  0.00     0.172 HD
HETATM   16  C8  UNL     1      13.993  30.928  43.021  1.00  0.00     0.145 A 
HETATM   17  N4  UNL     1      12.896  30.370  42.421  1.00  0.00    -0.327 N 
HETATM   18  C14 UNL     1      11.651  30.808  42.667  1.00  0.00     0.063 A 
HETATM   19  C15 UNL     1      10.541  30.243  42.069  1.00  0.00     0.039 A 
HETATM   20  C16 UNL     1       9.276  30.723  42.355  1.00  0.00    -0.054 A 
HETATM   21  C17 UNL     1       8.072  30.128  41.723  1.00  0.00     0.049 C 
ENDROOT
BRANCH  17  22
HETATM   22  C9  UNL     1      13.132  29.275  41.505  1.00  0.00     0.165 C 
BRANCH  22  23
HETATM   23  C10 UNL     1      13.803  29.851  40.251  1.00  0.00     0.167 C 
BRANCH  23  24
HETATM   24  O3  UNL     1      12.937  30.459  39.386  1.00  0.00    -0.391 OA
ATOM     25  H3  UNL     1      12.347  29.860  38.944  1.00  0.00     0.210 HD
ENDBRANCH  23  24
BRANCH  23  26
HETATM   26  C11 UNL     1      14.719  28.927  39.587  1.00  0.00     0.179 C 
BRANCH  26  27
HETATM   27  O4  UNL     1      15.121  29.442  38.352  1.00  0.00    -0.390 OA
ATOM     28  H4  UNL     1      15.894  28.986  38.038  1.00  0.00     0.210 HD
ENDBRANCH  26  27
BRANCH  26  29
HETATM   29  C12 UNL     1      14.456  27.490  39.477  1.00  0.00     0.173 C 
BRANCH  29  30
HETATM   30  O5  UNL     1      15.748  26.911  39.187  1.00  0.00    -0.391 OA
ATOM     31  H5  UNL     1      16.133  27.502  38.551  1.00  0.00     0.210 HD
ENDBRANCH  29  30
BRANCH  29  32
HETATM   32  C13 UNL     1      13.643  27.049  38.264  1.00  0.00     0.217 C 
BRANCH  32  33
HETATM   33  O6  UNL     1      14.544  26.582  37.260  1.00  0.00    -0.280 OA
BRANCH  33  34
HETATM   34  P1  UNL     1      14.141  27.255  35.772  1.00  0.00     0.422 P 
HETATM   35  O7  UNL     1      13.283  26.288  35.026  1.00  0.00    -0.617 OA
HETATM   36  O8  UNL     1      15.508  27.602  34.844  1.00  0.00    -0.617 OA
HETATM   37  O9  UNL     1      13.262  28.698  35.959  1.00  0.00    -0.617 OA
ENDBRANCH  33  34
ENDBRANCH  32  33
ENDBRANCH  29  32
ENDBRANCH  26  29
ENDBRANCH  23  26
ENDBRANCH  22  23
ENDBRANCH  17  22
TORSDOF 10
ENDMDL
