MODEL 16
REMARK VINA RESULT: -6.305896912      5.692      8.562
REMARK  10 active torsions:
REMARK  status: ('A' for Active; 'I' for Inactive)
REMARK    1  A    between atoms: N4_17  and  C9_18 
REMARK    2  A    between atoms: C9_18  and  C10_19 
REMARK    3  A    between atoms: C10_19  and  O3_20 
REMARK    4  A    between atoms: C10_19  and  C11_22 
REMARK    5  A    between atoms: C11_22  and  O4_23 
REMARK    6  A    between atoms: C11_22  and  C12_25 
REMARK    7  A    between atoms: C12_25  and  O5_26 
REMARK    8  A    between atoms: C12_25  and  C13_28 
REMARK    9  A    between atoms: C13_28  and  O6_29 
REMARK   10  A    between atoms: O6_29  and  P1_30 
ROOT
HETATM    1  C1  UNL     1       8.455  30.377  44.061  1.00  0.00     0.049 C 
HETATM    2  C2  UNL     1       9.770  30.631  43.425  1.00  0.00    -0.054 A 
HETATM    3  C3  UNL     1      10.763  31.311  44.097  1.00  0.00     0.039 A 
HETATM    4  C4  UNL     1      12.001  31.561  43.525  1.00  0.00     0.060 A 
HETATM    5  N1  UNL     1      12.934  32.225  44.232  1.00  0.00    -0.347 N 
ATOM      6  H1  UNL     1      12.719  32.541  45.177  1.00  0.00     0.166 HD
HETATM    7  C5  UNL     1      14.139  32.475  43.707  1.00  0.00     0.146 A 
HETATM    8  C6  UNL     1      15.144  33.162  44.400  1.00  0.00     0.280 A 
HETATM    9  O1  UNL     1      14.889  33.550  45.555  1.00  0.00    -0.265 OA
HETATM   10  N2  UNL     1      16.343  33.380  43.805  1.00  0.00    -0.273 N 
ATOM     11  H2  UNL     1      17.078  33.881  44.306  1.00  0.00     0.173 HD
HETATM   12  C7  UNL     1      16.565  32.938  42.555  1.00  0.00     0.328 A 
HETATM   13  O2  UNL     1      17.699  33.173  42.061  1.00  0.00    -0.247 OA
HETATM   14  N3  UNL     1      15.613  32.265  41.843  1.00  0.00    -0.292 N 
ATOM     15  H3  UNL     1      15.828  31.949  40.897  1.00  0.00     0.172 HD
HETATM   16  C8  UNL     1      14.403  32.010  42.362  1.00  0.00     0.145 A 
HETATM   17  N4  UNL     1      13.424  31.339  41.681  1.00  0.00    -0.327 N 
HETATM   18  C14 UNL     1      12.220  31.095  42.223  1.00  0.00     0.063 A 
HETATM   19  C15 UNL     1      11.230  30.413  41.542  1.00  0.00     0.039 A 
HETATM   20  C16 UNL     1      10.007  30.179  42.140  1.00  0.00    -0.054 A 
HETATM   21  C17 UNL     1       8.932  29.447  41.424  1.00  0.00     0.049 C 
ENDROOT
BRANCH  17  22
HETATM   22  C9  UNL     1      13.739  30.894  40.341  1.00  0.00     0.165 C 
BRANCH  22  23
HETATM   23  C10 UNL     1      14.234  29.444  40.433  1.00  0.00     0.167 C 
BRANCH  23  24
HETATM   24  O3  UNL     1      15.517  29.321  40.887  1.00  0.00    -0.391 OA
ATOM     25  H3  UNL     1      16.077  28.796  40.327  1.00  0.00     0.210 HD
ENDBRANCH  23  24
BRANCH  23  26
HETATM   26  C11 UNL     1      13.972  28.648  39.236  1.00  0.00     0.179 C 
BRANCH  26  27
HETATM   27  O4  UNL     1      12.859  29.146  38.554  1.00  0.00    -0.390 OA
ATOM     28  H4  UNL     1      12.806  28.763  37.685  1.00  0.00     0.210 HD
ENDBRANCH  26  27
BRANCH  26  29
HETATM   29  C12 UNL     1      13.948  27.184  39.246  1.00  0.00     0.173 C 
BRANCH  29  30
HETATM   30  O5  UNL     1      15.340  26.803  39.326  1.00  0.00    -0.391 OA
ATOM     31  H5  UNL     1      15.704  27.381  39.987  1.00  0.00     0.210 HD
ENDBRANCH  29  30
BRANCH  29  32
HETATM   32  C13 UNL     1      13.520  26.511  37.946  1.00  0.00     0.217 C 
BRANCH  32  33
HETATM   33  O6  UNL     1      14.628  26.513  37.048  1.00  0.00    -0.280 OA
BRANCH  33  34
HETATM   34  P1  UNL     1      14.180  27.217  35.587  1.00  0.00     0.422 P 
HETATM   35  O7  UNL     1      15.416  27.597  34.841  1.00  0.00    -0.617 OA
HETATM   36  O8  UNL     1      13.233  28.595  35.813  1.00  0.00    -0.617 OA
HETATM   37  O9  UNL     1      13.297  26.134  34.620  1.00  0.00    -0.617 OA
ENDBRANCH  33  34
ENDBRANCH  32  33
ENDBRANCH  29  32
ENDBRANCH  26  29
ENDBRANCH  23  26
ENDBRANCH  22  23
ENDBRANCH  17  22
TORSDOF 10
ENDMDL
