MODEL 11
REMARK VINA RESULT: -4.867188898      1.924      2.545
REMARK  4 active torsions:
REMARK  status: ('A' for Active; 'I' for Inactive)
REMARK    1  A    between atoms: C5_8  and  C6_9 
REMARK    2  A    between atoms: C6_9  and  O2_10 
REMARK    3  A    between atoms: C7_12  and  O3_13 
REMARK    4  A    between atoms: C8_15  and  O4_16 
ROOT
HETATM    1  C1  UNL     1       6.599  17.239  35.353  1.00  0.00     0.076 C 
HETATM    2  C2  UNL     1       6.577  18.713  35.649  1.00  0.00     0.041 C 
HETATM    3  N1  UNL     1       7.241  19.375  36.453  1.00  0.00    -0.378 N 
ATOM      4  H1  UNL     1       7.926  18.886  37.029  1.00  0.00     0.160 HD
HETATM    5  C3  UNL     1       7.109  20.726  36.614  1.00  0.00     0.152 C 
HETATM    6  C4  UNL     1       6.197  21.360  35.628  1.00  0.00     0.214 C 
HETATM    7  O1  UNL     1       5.223  22.170  36.133  1.00  0.00    -0.363 OA
HETATM    8  C5  UNL     1       5.797  23.114  36.968  1.00  0.00     0.178 C 
HETATM    9  C7  UNL     1       6.495  22.487  38.162  1.00  0.00     0.180 C 
HETATM   10  C8  UNL     1       6.467  20.980  37.993  1.00  0.00     0.175 C 
HETATM   11  S1  UNL     1       5.495  19.872  34.823  1.00  0.00    -0.083 SA
ENDROOT
BRANCH   8  12
HETATM   12  C6  UNL     1       6.725  23.996  36.167  1.00  0.00     0.198 C 
BRANCH  12  13
HETATM   13  O2  UNL     1       7.247  25.033  36.975  1.00  0.00    -0.398 OA
ATOM     14  H2  UNL     1       7.029  24.887  37.888  1.00  0.00     0.209 HD
ENDBRANCH  12  13
ENDBRANCH   8  12
BRANCH   9  15
HETATM   15  O3  UNL     1       5.952  22.890  39.362  1.00  0.00    -0.390 OA
ATOM     16  H3  UNL     1       6.479  22.626  40.107  1.00  0.00     0.210 HD
ENDBRANCH   9  15
BRANCH  10  17
HETATM   17  O4  UNL     1       7.124  20.317  38.995  1.00  0.00    -0.391 OA
ATOM     18  H4  UNL     1       6.821  19.421  39.088  1.00  0.00     0.210 HD
ENDBRANCH  10  17
TORSDOF 4
ENDMDL
