MODEL 4
REMARK VINA RESULT: -5.457144227      1.840      2.538
REMARK  4 active torsions:
REMARK  status: ('A' for Active; 'I' for Inactive)
REMARK    1  A    between atoms: C5_8  and  C6_9 
REMARK    2  A    between atoms: C6_9  and  O2_10 
REMARK    3  A    between atoms: C7_12  and  O3_13 
REMARK    4  A    between atoms: C8_15  and  O4_16 
ROOT
HETATM    1  C1  UNL     1       6.234  16.344  36.378  1.00  0.00     0.076 C 
HETATM    2  C2  UNL     1       6.148  17.840  36.261  1.00  0.00     0.041 C 
HETATM    3  N1  UNL     1       6.903  18.641  35.700  1.00  0.00    -0.378 N 
ATOM      4  H1  UNL     1       7.729  18.274  35.228  1.00  0.00     0.160 HD
HETATM    5  C3  UNL     1       6.692  19.991  35.676  1.00  0.00     0.152 C 
HETATM    6  C4  UNL     1       5.390  20.404  36.260  1.00  0.00     0.214 C 
HETATM    7  O1  UNL     1       5.430  21.392  37.199  1.00  0.00    -0.363 OA
HETATM    8  C5  UNL     1       6.124  22.479  36.693  1.00  0.00     0.178 C 
HETATM    9  C7  UNL     1       7.567  22.146  36.360  1.00  0.00     0.180 C 
HETATM   10  C8  UNL     1       7.770  20.655  36.558  1.00  0.00     0.175 C 
HETATM   11  S1  UNL     1       4.827  18.813  36.970  1.00  0.00    -0.083 SA
ENDROOT
BRANCH   8  12
HETATM   12  C6  UNL     1       5.382  23.039  35.502  1.00  0.00     0.198 C 
BRANCH  12  13
HETATM   13  O2  UNL     1       4.631  24.179  35.875  1.00  0.00    -0.398 OA
ATOM     14  H2  UNL     1       4.594  24.803  35.160  1.00  0.00     0.209 HD
ENDBRANCH  12  13
ENDBRANCH   8  12
BRANCH   9  15
HETATM   15  O3  UNL     1       8.464  22.897  37.088  1.00  0.00    -0.390 OA
ATOM     16  H3  UNL     1       9.264  22.423  37.280  1.00  0.00     0.210 HD
ENDBRANCH   9  15
BRANCH  10  17
HETATM   17  O4  UNL     1       9.032  20.238  36.229  1.00  0.00    -0.391 OA
ATOM     18  H4  UNL     1       9.636  20.965  36.145  1.00  0.00     0.210 HD
ENDBRANCH  10  17
TORSDOF 4
ENDMDL
