MODEL 6
REMARK VINA RESULT: -5.323314517      2.851      4.220
REMARK  4 active torsions:
REMARK  status: ('A' for Active; 'I' for Inactive)
REMARK    1  A    between atoms: C5_8  and  C6_9 
REMARK    2  A    between atoms: C6_9  and  O2_10 
REMARK    3  A    between atoms: C7_12  and  O3_13 
REMARK    4  A    between atoms: C8_15  and  O4_16 
ROOT
HETATM    1  C1  UNL     1       3.190  17.373  34.084  1.00  0.00     0.076 C 
HETATM    2  C2  UNL     1       4.135  18.374  34.688  1.00  0.00     0.041 C 
HETATM    3  N1  UNL     1       5.203  18.823  34.259  1.00  0.00    -0.378 N 
ATOM      4  H1  UNL     1       5.536  18.489  33.355  1.00  0.00     0.160 HD
HETATM    5  C3  UNL     1       5.962  19.740  34.929  1.00  0.00     0.152 C 
HETATM    6  C4  UNL     1       5.317  20.270  36.158  1.00  0.00     0.214 C 
HETATM    7  O1  UNL     1       6.064  20.239  37.298  1.00  0.00    -0.363 OA
HETATM    8  C5  UNL     1       7.284  20.853  37.065  1.00  0.00     0.178 C 
HETATM    9  C7  UNL     1       8.099  20.142  36.001  1.00  0.00     0.180 C 
HETATM   10  C8  UNL     1       7.248  19.035  35.408  1.00  0.00     0.175 C 
HETATM   11  S1  UNL     1       3.862  19.164  36.269  1.00  0.00    -0.083 SA
ENDROOT
BRANCH   8  12
HETATM   12  C6  UNL     1       7.058  22.308  36.730  1.00  0.00     0.198 C 
BRANCH  12  13
HETATM   13  O2  UNL     1       8.170  23.088  37.127  1.00  0.00    -0.398 OA
ATOM     14  H2  UNL     1       8.888  22.531  37.402  1.00  0.00     0.209 HD
ENDBRANCH  12  13
ENDBRANCH   8  12
BRANCH   9  15
HETATM   15  O3  UNL     1       9.303  19.676  36.481  1.00  0.00    -0.390 OA
ATOM     16  H3  UNL     1      10.046  20.145  36.118  1.00  0.00     0.210 HD
ENDBRANCH   9  15
BRANCH  10  17
HETATM   17  O4  UNL     1       7.874  18.363  34.392  1.00  0.00    -0.391 OA
ATOM     18  H4  UNL     1       7.412  17.568  34.154  1.00  0.00     0.210 HD
ENDBRANCH  10  17
TORSDOF 4
ENDMDL
