MODEL 5
REMARK VINA RESULT: -9.049292471      3.550      6.198
REMARK  6 active torsions:
REMARK  status: ('A' for Active; 'I' for Inactive)
REMARK    1  A    between atoms: C2_2  and  C3_3 
REMARK    2  A    between atoms: C4_4  and  C5_5 
REMARK    3  A    between atoms: C6_6  and  C8_8 
REMARK    4  A    between atoms: C10_10  and  C11_11 
REMARK    5  A    between atoms: C16_16  and  C17_17 
REMARK    6  A    between atoms: C22_22  and  C23_23 
ROOT
HETATM    1  C8  UNL     1      25.396  30.274   6.394  1.00  0.00    -0.029 A 
HETATM    2  C9  UNL     1      26.313  29.448   7.065  1.00  0.00     0.020 A 
HETATM    3  C10 UNL     1      25.926  28.453   7.935  1.00  0.00    -0.049 A 
HETATM    4  C15 UNL     1      24.588  28.239   8.171  1.00  0.00     0.015 A 
HETATM    5  C16 UNL     1      23.681  29.049   7.512  1.00  0.00    -0.049 A 
HETATM    6  C21 UNL     1      24.066  30.046   6.640  1.00  0.00     0.020 A 
ENDROOT
BRANCH   1   7
HETATM    7  C6  UNL     1      25.913  31.381   5.576  1.00  0.00    -0.052 C 
HETATM    8  C5  UNL     1      26.388  32.437   6.266  1.00  0.00     0.007 C 
HETATM    9  C7  UNL     1      26.159  31.196   4.165  1.00  0.00     0.049 C 
BRANCH   8  10
HETATM   10  C4  UNL     1      26.144  32.660   7.635  1.00  0.00     0.001 C 
HETATM   11  C3  UNL     1      25.251  33.328   8.271  1.00  0.00     0.007 C 
BRANCH  11  12
HETATM   12  C2  UNL     1      24.117  34.124   7.799  1.00  0.00    -0.056 C 
HETATM   13  C1  UNL     1      24.080  35.574   7.867  1.00  0.00     0.048 C 
HETATM   14  C22 UNL     1      23.152  33.395   7.250  1.00  0.00     0.091 C 
BRANCH  14  15
HETATM   15  C23 UNL     1      21.970  33.921   6.649  1.00  0.00     0.199 C 
HETATM   16  O1  UNL     1      20.872  33.909   7.371  1.00  0.00    -0.644 OA
HETATM   17  O2  UNL     1      21.785  34.460   5.390  1.00  0.00    -0.644 OA
ENDBRANCH  14  15
ENDBRANCH  11  12
ENDBRANCH   8  10
ENDBRANCH   1   7
BRANCH   3  18
HETATM   18  C11 UNL     1      26.993  27.664   8.558  1.00  0.00    -0.024 C 
HETATM   19  C12 UNL     1      27.893  27.114   7.435  1.00  0.00     0.019 C 
HETATM   20  C13 UNL     1      26.503  26.519   9.416  1.00  0.00     0.019 C 
HETATM   21  C14 UNL     1      27.866  28.593   9.372  1.00  0.00     0.019 C 
ENDBRANCH   3  18
BRANCH   5  22
HETATM   22  C17 UNL     1      22.245  28.854   7.780  1.00  0.00    -0.024 C 
HETATM   23  C18 UNL     1      21.968  28.031   9.008  1.00  0.00     0.019 C 
HETATM   24  C19 UNL     1      21.655  30.232   7.995  1.00  0.00     0.019 C 
HETATM   25  C20 UNL     1      21.593  28.227   6.577  1.00  0.00     0.019 C 
ENDBRANCH   5  22
TORSDOF 6
ENDMDL
