MODEL 8
REMARK VINA RESULT: -8.929097569      4.263      6.923
REMARK  6 active torsions:
REMARK  status: ('A' for Active; 'I' for Inactive)
REMARK    1  A    between atoms: C2_2  and  C3_3 
REMARK    2  A    between atoms: C4_4  and  C5_5 
REMARK    3  A    between atoms: C6_6  and  C8_8 
REMARK    4  A    between atoms: C10_10  and  C11_11 
REMARK    5  A    between atoms: C16_16  and  C17_17 
REMARK    6  A    between atoms: C22_22  and  C23_23 
ROOT
HETATM    1  C8  UNL     1      24.735  31.497   7.641  1.00  0.00    -0.029 A 
HETATM    2  C9  UNL     1      23.429  30.983   7.583  1.00  0.00     0.020 A 
HETATM    3  C10 UNL     1      23.157  29.636   7.498  1.00  0.00    -0.049 A 
HETATM    4  C15 UNL     1      24.197  28.735   7.469  1.00  0.00     0.015 A 
HETATM    5  C16 UNL     1      25.484  29.234   7.528  1.00  0.00    -0.049 A 
HETATM    6  C21 UNL     1      25.758  30.583   7.613  1.00  0.00     0.020 A 
ENDROOT
BRANCH   1   7
HETATM    7  C6  UNL     1      24.919  32.955   7.615  1.00  0.00    -0.052 C 
HETATM    8  C5  UNL     1      24.998  33.506   6.387  1.00  0.00     0.007 C 
HETATM    9  C7  UNL     1      24.725  33.740   8.811  1.00  0.00     0.049 C 
BRANCH   8  10
HETATM   10  C4  UNL     1      25.212  32.772   5.205  1.00  0.00     0.001 C 
HETATM   11  C3  UNL     1      24.445  32.425   4.235  1.00  0.00     0.007 C 
BRANCH  11  12
HETATM   12  C2  UNL     1      23.025  32.675   3.984  1.00  0.00    -0.056 C 
HETATM   13  C1  UNL     1      22.000  32.520   5.000  1.00  0.00     0.048 C 
HETATM   14  C22 UNL     1      22.775  33.114   2.756  1.00  0.00     0.091 C 
BRANCH  14  15
HETATM   15  C23 UNL     1      21.490  33.500   2.271  1.00  0.00     0.199 C 
HETATM   16  O1  UNL     1      20.649  32.538   1.963  1.00  0.00    -0.644 OA
HETATM   17  O2  UNL     1      20.968  34.762   2.066  1.00  0.00    -0.644 OA
ENDBRANCH  14  15
ENDBRANCH  11  12
ENDBRANCH   8  10
ENDBRANCH   1   7
BRANCH   3  18
HETATM   18  C11 UNL     1      21.745  29.244   7.452  1.00  0.00    -0.024 C 
HETATM   19  C12 UNL     1      21.576  27.980   8.315  1.00  0.00     0.019 C 
HETATM   20  C13 UNL     1      21.217  28.978   6.060  1.00  0.00     0.019 C 
HETATM   21  C14 UNL     1      20.925  30.321   8.127  1.00  0.00     0.019 C 
ENDBRANCH   3  18
BRANCH   5  22
HETATM   22  C17 UNL     1      26.608  28.283   7.465  1.00  0.00    -0.024 C 
HETATM   23  C18 UNL     1      26.798  27.493   8.730  1.00  0.00     0.019 C 
HETATM   24  C19 UNL     1      26.290  27.312   6.347  1.00  0.00     0.019 C 
HETATM   25  C20 UNL     1      27.872  29.025   7.122  1.00  0.00     0.019 C 
ENDBRANCH   5  22
TORSDOF 6
ENDMDL
