MODEL 7
REMARK VINA RESULT: -8.938214749      4.271      6.964
REMARK  6 active torsions:
REMARK  status: ('A' for Active; 'I' for Inactive)
REMARK    1  A    between atoms: C2_2  and  C3_3 
REMARK    2  A    between atoms: C4_4  and  C5_5 
REMARK    3  A    between atoms: C6_6  and  C8_8 
REMARK    4  A    between atoms: C10_10  and  C11_11 
REMARK    5  A    between atoms: C16_16  and  C17_17 
REMARK    6  A    between atoms: C22_22  and  C23_23 
ROOT
HETATM    1  C8  UNL     1      24.772  31.461   7.632  1.00  0.00    -0.029 A 
HETATM    2  C9  UNL     1      23.475  30.923   7.603  1.00  0.00     0.020 A 
HETATM    3  C10 UNL     1      23.226  29.572   7.505  1.00  0.00    -0.049 A 
HETATM    4  C15 UNL     1      24.281  28.692   7.433  1.00  0.00     0.015 A 
HETATM    5  C16 UNL     1      25.560  29.215   7.462  1.00  0.00    -0.049 A 
HETATM    6  C21 UNL     1      25.811  30.568   7.561  1.00  0.00     0.020 A 
ENDROOT
BRANCH   1   7
HETATM    7  C6  UNL     1      24.928  32.923   7.623  1.00  0.00    -0.052 C 
HETATM    8  C5  UNL     1      24.986  33.490   6.402  1.00  0.00     0.007 C 
HETATM    9  C7  UNL     1      24.728  33.688   8.831  1.00  0.00     0.049 C 
BRANCH   8  10
HETATM   10  C4  UNL     1      25.206  32.776   5.209  1.00  0.00     0.001 C 
HETATM   11  C3  UNL     1      24.443  32.444   4.230  1.00  0.00     0.007 C 
BRANCH  11  12
HETATM   12  C2  UNL     1      23.024  32.698   3.978  1.00  0.00    -0.056 C 
HETATM   13  C1  UNL     1      22.000  32.572   5.000  1.00  0.00     0.048 C 
HETATM   14  C22 UNL     1      22.773  33.112   2.742  1.00  0.00     0.091 C 
BRANCH  14  15
HETATM   15  C23 UNL     1      21.489  33.495   2.251  1.00  0.00     0.199 C 
HETATM   16  O1  UNL     1      20.652  32.532   1.939  1.00  0.00    -0.644 OA
HETATM   17  O2  UNL     1      20.965  34.757   2.045  1.00  0.00    -0.644 OA
ENDBRANCH  14  15
ENDBRANCH  11  12
ENDBRANCH   8  10
ENDBRANCH   1   7
BRANCH   3  18
HETATM   18  C11 UNL     1      21.821  29.154   7.493  1.00  0.00    -0.024 C 
HETATM   19  C12 UNL     1      20.968  30.347   7.964  1.00  0.00     0.019 C 
HETATM   20  C13 UNL     1      21.522  27.948   8.356  1.00  0.00     0.019 C 
HETATM   21  C14 UNL     1      21.410  28.889   6.062  1.00  0.00     0.019 C 
ENDBRANCH   3  18
BRANCH   5  22
HETATM   22  C17 UNL     1      26.700  28.287   7.352  1.00  0.00    -0.024 C 
HETATM   23  C18 UNL     1      27.991  28.962   6.979  1.00  0.00     0.019 C 
HETATM   24  C19 UNL     1      26.876  27.657   8.718  1.00  0.00     0.019 C 
HETATM   25  C20 UNL     1      26.372  27.208   6.355  1.00  0.00     0.019 C 
ENDBRANCH   5  22
TORSDOF 6
ENDMDL
