MODEL 1
REMARK VINA RESULT: -10.169352951      0.000      0.000
REMARK  1 active torsions:
REMARK  status: ('A' for Active; 'I' for Inactive)
REMARK    1  A    between atoms: C16_24  and  C17_25 
ROOT
HETATM    1  O1  UNL     1      12.325 -13.237  20.939  1.00  0.00    -0.271 OA
HETATM    2  C1  UNL     1      13.436 -13.819  21.029  1.00  0.00     0.241 C 
HETATM    3  C2  UNL     1      13.440 -15.299  21.156  1.00  0.00     0.278 C 
HETATM    4  O2  UNL     1      13.001 -15.929  19.972  1.00  0.00    -0.342 OA
HETATM    5  C3  UNL     1      12.432 -17.186  19.881  1.00  0.00     0.077 A 
HETATM    6  C4  UNL     1      11.340 -17.294  19.006  1.00  0.00     0.039 A 
HETATM    7  C5  UNL     1      10.665 -18.489  18.809  1.00  0.00     0.026 A 
HETATM    8  C6  UNL     1      11.079 -19.591  19.487  1.00  0.00     0.034 A 
HETATM    9 CL1  UNL     1      10.229 -21.111  19.242  1.00  0.00    -0.084 Cl
HETATM   10  C7  UNL     1      12.141 -19.487  20.337  1.00  0.00     0.035 A 
HETATM   11  C8  UNL     1      12.853 -18.304  20.570  1.00  0.00    -0.005 A 
HETATM   12  C9  UNL     1      14.002 -18.319  21.518  1.00  0.00     0.164 C 
HETATM   13  N1  UNL     1      15.268 -18.188  20.821  1.00  0.00    -0.355 N 
ATOM     14  H1  UNL     1      15.273 -18.358  19.815  1.00  0.00     0.162 HD
HETATM   15  C10 UNL     1      16.490 -17.844  21.429  1.00  0.00     0.240 C 
HETATM   16  O3  UNL     1      17.205 -16.989  20.845  1.00  0.00    -0.271 OA
HETATM   17  C11 UNL     1      16.984 -18.391  22.659  1.00  0.00     0.179 C 
HETATM   18  C12 UNL     1      16.130 -18.301  23.891  1.00  0.00     0.037 C 
HETATM   19  C13 UNL     1      17.148 -18.738  24.965  1.00  0.00     0.022 C 
HETATM   20  C14 UNL     1      18.470 -18.915  24.197  1.00  0.00     0.127 C 
HETATM   21  N2  UNL     1      18.237 -17.878  23.170  1.00  0.00    -0.337 N 
HETATM   22  C15 UNL     1      18.975 -16.757  22.791  1.00  0.00     0.243 C 
HETATM   23  O4  UNL     1      20.121 -16.908  22.225  1.00  0.00    -0.271 OA
HETATM   24  C16 UNL     1      18.620 -15.299  22.955  1.00  0.00     0.180 C 
HETATM   25  N3  UNL     1      18.919 -14.570  21.742  1.00  0.00    -0.347 N 
ATOM     26  H3  UNL     1      19.675 -14.950  21.172  1.00  0.00     0.163 HD
HETATM   27  C23 UNL     1      18.315 -13.424  21.254  1.00  0.00     0.219 C 
HETATM   28  O5  UNL     1      18.927 -12.766  20.336  1.00  0.00    -0.274 OA
HETATM   29  C24 UNL     1      17.018 -12.861  21.681  1.00  0.00     0.122 C 
HETATM   30  C25 UNL     1      15.876 -13.776  21.361  1.00  0.00     0.132 C 
HETATM   31  N4  UNL     1      14.650 -13.086  21.009  1.00  0.00    -0.359 N 
ATOM     32  H4  UNL     1      14.661 -12.098  20.754  1.00  0.00     0.162 HD
ENDROOT
BRANCH  24  33
HETATM   33  C17 UNL     1      19.558 -14.719  24.033  1.00  0.00     0.018 C 
HETATM   34  C18 UNL     1      20.931 -14.488  23.496  1.00  0.00     0.007 C 
HETATM   35  C19 UNL     1      21.953 -14.535  24.632  1.00  0.00     0.000 C 
HETATM   36  C20 UNL     1      21.413 -13.851  25.853  1.00  0.00     0.000 C 
HETATM   37  C21 UNL     1      20.238 -14.636  26.359  1.00  0.00     0.000 C 
HETATM   38  C22 UNL     1      19.639 -15.535  25.267  1.00  0.00     0.007 C 
ENDBRANCH  24  33
TORSDOF 1
ENDMDL
