MODEL 3
REMARK VINA RESULT: -9.314722209      1.278      1.586
REMARK  1 active torsions:
REMARK  status: ('A' for Active; 'I' for Inactive)
REMARK    1  A    between atoms: C16_24  and  C17_25 
ROOT
HETATM    1  O1  UNL     1      13.177 -14.183  20.842  1.00  0.00    -0.271 OA
HETATM    2  C1  UNL     1      14.223 -14.822  21.120  1.00  0.00     0.241 C 
HETATM    3  C2  UNL     1      14.093 -16.262  21.461  1.00  0.00     0.278 C 
HETATM    4  O2  UNL     1      13.701 -17.032  20.346  1.00  0.00    -0.342 OA
HETATM    5  C3  UNL     1      13.038 -18.245  20.386  1.00  0.00     0.077 A 
HETATM    6  C4  UNL     1      12.016 -18.408  19.439  1.00  0.00     0.039 A 
HETATM    7  C5  UNL     1      11.262 -19.568  19.355  1.00  0.00     0.026 A 
HETATM    8  C6  UNL     1      11.525 -20.581  20.223  1.00  0.00     0.034 A 
HETATM    9 CL1  UNL     1      10.573 -22.056  20.124  1.00  0.00    -0.084 Cl
HETATM   10  C7  UNL     1      12.518 -20.423  21.144  1.00  0.00     0.035 A 
HETATM   11  C8  UNL     1      13.305 -19.272  21.268  1.00  0.00    -0.005 A 
HETATM   12  C9  UNL     1      14.367 -19.223  22.312  1.00  0.00     0.164 C 
HETATM   13  N1  UNL     1      15.693 -19.290  21.725  1.00  0.00    -0.355 N 
ATOM     14  H1  UNL     1      15.766 -19.612  20.760  1.00  0.00     0.162 HD
HETATM   15  C10 UNL     1      16.885 -18.944  22.388  1.00  0.00     0.240 C 
HETATM   16  O3  UNL     1      17.715 -18.241  21.756  1.00  0.00    -0.271 OA
HETATM   17  C11 UNL     1      17.229 -19.331  23.726  1.00  0.00     0.179 C 
HETATM   18  C12 UNL     1      16.287 -18.993  24.846  1.00  0.00     0.037 C 
HETATM   19  C13 UNL     1      17.173 -19.331  26.063  1.00  0.00     0.022 C 
HETATM   20  C14 UNL     1      18.533 -19.717  25.456  1.00  0.00     0.127 C 
HETATM   21  N2  UNL     1      18.473 -18.835  24.272  1.00  0.00    -0.337 N 
HETATM   22  C15 UNL     1      19.332 -17.840  23.805  1.00  0.00     0.243 C 
HETATM   23  O4  UNL     1      20.504 -18.157  23.376  1.00  0.00    -0.271 OA
HETATM   24  C16 UNL     1      19.088 -16.353  23.720  1.00  0.00     0.180 C 
HETATM   25  N3  UNL     1      19.547 -15.841  22.447  1.00  0.00    -0.347 N 
ATOM     26  H3  UNL     1      20.313 -16.357  22.012  1.00  0.00     0.163 HD
HETATM   27  C23 UNL     1      19.083 -14.743  21.742  1.00  0.00     0.219 C 
HETATM   28  O5  UNL     1      19.822 -14.279  20.800  1.00  0.00    -0.274 OA
HETATM   29  C24 UNL     1      17.808 -14.032  21.958  1.00  0.00     0.122 C 
HETATM   30  C25 UNL     1      16.623 -14.902  21.670  1.00  0.00     0.132 C 
HETATM   31  N4  UNL     1      15.492 -14.188  21.107  1.00  0.00    -0.359 N 
ATOM     32  H4  UNL     1      15.607 -13.254  20.713  1.00  0.00     0.162 HD
ENDROOT
BRANCH  24  33
HETATM   33  C17 UNL     1      19.980 -15.683  24.785  1.00  0.00     0.018 C 
HETATM   34  C18 UNL     1      19.727 -16.248  26.143  1.00  0.00     0.007 C 
HETATM   35  C19 UNL     1      20.094 -15.221  27.215  1.00  0.00     0.000 C 
HETATM   36  C20 UNL     1      21.352 -14.497  26.838  1.00  0.00     0.000 C 
HETATM   37  C21 UNL     1      21.085 -13.686  25.603  1.00  0.00     0.000 C 
HETATM   38  C22 UNL     1      19.863 -14.207  24.832  1.00  0.00     0.007 C 
ENDBRANCH  24  33
TORSDOF 1
ENDMDL
