MODEL 2
REMARK VINA RESULT: -10.042146999      0.689      1.041
REMARK  1 active torsions:
REMARK  status: ('A' for Active; 'I' for Inactive)
REMARK    1  A    between atoms: C16_24  and  C17_25 
ROOT
HETATM    1  O1  UNL     1      13.222 -12.979  21.030  1.00  0.00    -0.271 OA
HETATM    2  C1  UNL     1      14.260 -13.684  21.114  1.00  0.00     0.241 C 
HETATM    3  C2  UNL     1      14.096 -15.154  21.255  1.00  0.00     0.278 C 
HETATM    4  O2  UNL     1      13.574 -15.738  20.081  1.00  0.00    -0.342 OA
HETATM    5  C3  UNL     1      12.864 -16.923  20.007  1.00  0.00     0.077 A 
HETATM    6  C4  UNL     1      11.758 -16.912  19.144  1.00  0.00     0.039 A 
HETATM    7  C5  UNL     1      10.948 -18.022  18.964  1.00  0.00     0.026 A 
HETATM    8  C6  UNL     1      11.240 -19.160  19.648  1.00  0.00     0.034 A 
HETATM    9 CL1  UNL     1      10.219 -20.573  19.425  1.00  0.00    -0.084 Cl
HETATM   10  C7  UNL     1      12.316 -19.171  20.487  1.00  0.00     0.035 A 
HETATM   11  C8  UNL     1      13.161 -18.076  20.702  1.00  0.00    -0.005 A 
HETATM   12  C9  UNL     1      14.311 -18.215  21.640  1.00  0.00     0.164 C 
HETATM   13  N1  UNL     1      15.576 -18.236  20.930  1.00  0.00    -0.355 N 
ATOM     14  H1  UNL     1      15.551 -18.414  19.926  1.00  0.00     0.162 HD
HETATM   15  C10 UNL     1      16.835 -18.030  21.523  1.00  0.00     0.240 C 
HETATM   16  O3  UNL     1      17.638 -17.267  20.925  1.00  0.00    -0.271 OA
HETATM   17  C11 UNL     1      17.276 -18.620  22.754  1.00  0.00     0.179 C 
HETATM   18  C12 UNL     1      16.451 -18.423  23.993  1.00  0.00     0.037 C 
HETATM   19  C13 UNL     1      17.423 -18.964  25.061  1.00  0.00     0.022 C 
HETATM   20  C14 UNL     1      18.707 -19.299  24.282  1.00  0.00     0.127 C 
HETATM   21  N2  UNL     1      18.585 -18.250  23.248  1.00  0.00    -0.337 N 
HETATM   22  C15 UNL     1      19.443 -17.224  22.852  1.00  0.00     0.243 C 
HETATM   23  O4  UNL     1      20.558 -17.510  22.277  1.00  0.00    -0.271 OA
HETATM   24  C16 UNL     1      19.259 -15.733  23.006  1.00  0.00     0.180 C 
HETATM   25  N3  UNL     1      19.628 -15.054  21.784  1.00  0.00    -0.347 N 
ATOM     26  H3  UNL     1      20.329 -15.523  21.210  1.00  0.00     0.163 HD
HETATM   27  C23 UNL     1      19.154 -13.850  21.291  1.00  0.00     0.219 C 
HETATM   28  O5  UNL     1      19.828 -13.275  20.361  1.00  0.00    -0.274 OA
HETATM   29  C24 UNL     1      17.935 -13.139  21.724  1.00  0.00     0.122 C 
HETATM   30  C25 UNL     1      16.692 -13.919  21.424  1.00  0.00     0.132 C 
HETATM   31  N4  UNL     1      15.550 -13.095  21.077  1.00  0.00    -0.359 N 
ATOM     32  H4  UNL     1      15.672 -12.117  20.812  1.00  0.00     0.162 HD
ENDROOT
BRANCH  24  33
HETATM   33  C17 UNL     1      20.268 -15.257  24.070  1.00  0.00     0.018 C 
HETATM   34  C18 UNL     1      19.597 -14.475  25.150  1.00  0.00     0.007 C 
HETATM   35  C19 UNL     1      20.594 -13.517  25.801  1.00  0.00     0.000 C 
HETATM   36  C20 UNL     1      21.929 -14.180  25.964  1.00  0.00     0.000 C 
HETATM   37  C21 UNL     1      22.495 -14.458  24.602  1.00  0.00     0.000 C 
HETATM   38  C22 UNL     1      21.401 -14.475  23.523  1.00  0.00     0.007 C 
ENDBRANCH  24  33
TORSDOF 1
ENDMDL
