MODEL 8
REMARK VINA RESULT: -7.698157260      1.402      2.150
REMARK  5 active torsions:
REMARK  status: ('A' for Active; 'I' for Inactive)
REMARK    1  A    between atoms: C4_9  and  C5_10 
REMARK    2  A    between atoms: C6_14  and  C7_15 
REMARK    3  A    between atoms: C7_15  and  O2_16 
REMARK    4  A    between atoms: C8_18  and  O3_19 
REMARK    5  A    between atoms: C9_21  and  O4_22 
ROOT
HETATM    1  C5  UNL     1       8.152   3.699  92.668  1.00  0.00     0.254 C 
HETATM    2  N3  UNL     1       8.379   2.547  93.438  1.00  0.00    -0.055 N 
ATOM      3  H31 UNL     1       7.722   2.364  94.197  1.00  0.00     0.278 HD
ATOM      4  H32 UNL     1       9.189   2.560  94.057  1.00  0.00     0.278 HD
HETATM    5  C6  UNL     1       8.405   1.550  92.305  1.00  0.00     0.241 C 
HETATM    6  C8  UNL     1       9.582   2.152  91.537  1.00  0.00     0.182 C 
HETATM    7  C9  UNL     1       9.115   3.597  91.478  1.00  0.00     0.184 C 
ENDROOT
BRANCH   1   8
HETATM    8  C4  UNL     1       8.110   5.029  93.208  1.00  0.00     0.019 A 
HETATM    9  C3  UNL     1       9.117   5.858  93.559  1.00  0.00     0.075 A 
HETATM   10  N2  UNL     1      10.443   5.735  93.309  1.00  0.00    -0.350 N 
HETATM   11  C11 UNL     1       8.594   6.980  94.161  1.00  0.00     0.128 A 
HETATM   12  C2  UNL     1      11.282   6.721  93.645  1.00  0.00     0.184 A 
ATOM     13  H2  UNL     1      10.800   4.890  92.864  1.00  0.00     0.166 HD
HETATM   14  N1  UNL     1      10.784   7.843  94.249  1.00  0.00    -0.318 N 
HETATM   15  C1  UNL     1       9.472   7.984  94.506  1.00  0.00     0.275 A 
ATOM     16  H1  UNL     1      11.424   8.593  94.510  1.00  0.00     0.169 HD
HETATM   17  O1  UNL     1       8.993   9.007  95.061  1.00  0.00    -0.266 OA
HETATM   18  N4  UNL     1       7.260   6.830  94.171  1.00  0.00    -0.359 N 
HETATM   19  C10 UNL     1       6.926   5.665  93.603  1.00  0.00     0.100 A 
ATOM     20  H4  UNL     1       6.599   7.504  94.556  1.00  0.00     0.165 HD
ENDBRANCH   1   8
BRANCH   7  21
HETATM   21  O4  UNL     1       8.555   3.912  90.287  1.00  0.00    -0.390 OA
ATOM     22  H4  UNL     1       7.994   3.233  89.931  1.00  0.00     0.210 HD
ENDBRANCH   7  21
BRANCH   5  23
HETATM   23  C7  UNL     1       8.601   0.160  92.739  1.00  0.00     0.199 C 
BRANCH  23  24
HETATM   24  O2  UNL     1       7.910  -0.215  93.903  1.00  0.00    -0.399 OA
ATOM     25  H2  UNL     1       8.439  -0.284  94.689  1.00  0.00     0.209 HD
ENDBRANCH  23  24
ENDBRANCH   5  23
BRANCH   6  26
HETATM   26  O3  UNL     1       9.866   1.572  90.358  1.00  0.00    -0.391 OA
ATOM     27  H3  UNL     1       9.422   1.937  89.602  1.00  0.00     0.210 HD
ENDBRANCH   6  26
TORSDOF 5
ENDMDL
