MODEL 5
REMARK VINA RESULT: -7.960187357      1.904      6.059
REMARK  5 active torsions:
REMARK  status: ('A' for Active; 'I' for Inactive)
REMARK    1  A    between atoms: C4_9  and  C5_10 
REMARK    2  A    between atoms: C6_14  and  C7_15 
REMARK    3  A    between atoms: C7_15  and  O2_16 
REMARK    4  A    between atoms: C8_18  and  O3_19 
REMARK    5  A    between atoms: C9_21  and  O4_22 
ROOT
HETATM    1  C5  UNL     1       9.672   6.001  93.186  1.00  0.00     0.254 C 
HETATM    2  N3  UNL     1      11.021   5.773  93.500  1.00  0.00    -0.055 N 
ATOM      3  H31 UNL     1      11.568   5.242  92.822  1.00  0.00     0.278 HD
ATOM      4  H32 UNL     1      11.211   5.120  94.260  1.00  0.00     0.278 HD
HETATM    5  C6  UNL     1      11.422   7.210  93.721  1.00  0.00     0.241 C 
HETATM    6  C8  UNL     1      10.453   7.514  94.864  1.00  0.00     0.182 C 
HETATM    7  C9  UNL     1       9.169   7.007  94.229  1.00  0.00     0.184 C 
ENDROOT
BRANCH   1   8
HETATM    8  C4  UNL     1       8.715   4.957  92.947  1.00  0.00     0.019 A 
HETATM    9  C3  UNL     1       8.810   3.849  92.180  1.00  0.00     0.075 A 
HETATM   10  N2  UNL     1       9.907   3.319  91.588  1.00  0.00    -0.350 N 
HETATM   11  C11 UNL     1       7.590   3.213  92.146  1.00  0.00     0.128 A 
HETATM   12  C2  UNL     1       9.824   2.146  90.952  1.00  0.00     0.184 A 
ATOM     13  H2  UNL     1      10.797   3.815  91.629  1.00  0.00     0.166 HD
HETATM   14  N1  UNL     1       8.619   1.498  90.902  1.00  0.00    -0.318 N 
HETATM   15  C1  UNL     1       7.519   2.008  91.483  1.00  0.00     0.275 A 
ATOM     16  H1  UNL     1       8.554   0.606  90.413  1.00  0.00     0.169 HD
HETATM   17  O1  UNL     1       6.402   1.430  91.448  1.00  0.00    -0.266 OA
HETATM   18  N4  UNL     1       6.751   3.941  92.900  1.00  0.00    -0.359 N 
HETATM   19  C10 UNL     1       7.392   5.003  93.404  1.00  0.00     0.100 A 
ATOM     20  H4  UNL     1       5.770   3.718  93.065  1.00  0.00     0.165 HD
ENDBRANCH   1   8
BRANCH   7  21
HETATM   21  O4  UNL     1       8.416   8.006  93.715  1.00  0.00    -0.390 OA
ATOM     22  H4  UNL     1       8.869   8.543  93.076  1.00  0.00     0.210 HD
ENDBRANCH   7  21
BRANCH   5  23
HETATM   23  C7  UNL     1      12.843   7.388  94.056  1.00  0.00     0.199 C 
BRANCH  23  24
HETATM   24  O2  UNL     1      13.750   7.072  93.032  1.00  0.00    -0.399 OA
ATOM     25  H2  UNL     1      13.983   7.789  92.454  1.00  0.00     0.209 HD
ENDBRANCH  23  24
ENDBRANCH   5  23
BRANCH   6  26
HETATM   26  O3  UNL     1      10.440   8.788  95.293  1.00  0.00    -0.391 OA
ATOM     27  H3  UNL     1      10.736   8.925  96.185  1.00  0.00     0.210 HD
ENDBRANCH   6  26
TORSDOF 5
ENDMDL
