MODEL 6
REMARK VINA RESULT: -7.892934550      2.090      6.028
REMARK  5 active torsions:
REMARK  status: ('A' for Active; 'I' for Inactive)
REMARK    1  A    between atoms: C4_9  and  C5_10 
REMARK    2  A    between atoms: C6_14  and  C7_15 
REMARK    3  A    between atoms: C7_15  and  O2_16 
REMARK    4  A    between atoms: C8_18  and  O3_19 
REMARK    5  A    between atoms: C9_21  and  O4_22 
ROOT
HETATM    1  C5  UNL     1       9.495   6.035  93.290  1.00  0.00     0.254 C 
HETATM    2  N3  UNL     1      10.836   5.635  93.401  1.00  0.00    -0.055 N 
ATOM      3  H31 UNL     1      11.194   5.018  92.671  1.00  0.00     0.278 HD
ATOM      4  H32 UNL     1      11.060   4.982  94.152  1.00  0.00     0.278 HD
HETATM    5  C6  UNL     1      11.450   7.010  93.490  1.00  0.00     0.241 C 
HETATM    6  C8  UNL     1      10.724   7.471  94.754  1.00  0.00     0.182 C 
HETATM    7  C9  UNL     1       9.300   7.126  94.351  1.00  0.00     0.184 C 
ENDROOT
BRANCH   1   8
HETATM    8  C4  UNL     1       8.385   5.124  93.252  1.00  0.00     0.019 A 
HETATM    9  C3  UNL     1       8.369   3.774  93.194  1.00  0.00     0.075 A 
HETATM   10  N2  UNL     1       9.396   2.907  93.361  1.00  0.00    -0.350 N 
HETATM   11  C11 UNL     1       7.073   3.340  93.033  1.00  0.00     0.128 A 
HETATM   12  C2  UNL     1       9.165   1.589  93.376  1.00  0.00     0.184 A 
ATOM     13  H2  UNL     1      10.347   3.259  93.476  1.00  0.00     0.166 HD
HETATM   14  N1  UNL     1       7.883   1.137  93.213  1.00  0.00    -0.318 N 
HETATM   15  C1  UNL     1       6.851   1.982  93.046  1.00  0.00     0.275 A 
ATOM     16  H1  UNL     1       7.707   0.132  93.220  1.00  0.00     0.169 HD
HETATM   17  O1  UNL     1       5.666   1.587  92.893  1.00  0.00    -0.266 OA
HETATM   18  N4  UNL     1       6.299   4.436  92.996  1.00  0.00    -0.359 N 
HETATM   19  C10 UNL     1       7.053   5.535  93.126  1.00  0.00     0.100 A 
ATOM     20  H4  UNL     1       5.285   4.433  92.884  1.00  0.00     0.165 HD
ENDBRANCH   1   8
BRANCH   7  21
HETATM   21  O4  UNL     1       8.610   8.204  93.914  1.00  0.00    -0.390 OA
ATOM     22  H4  UNL     1       7.666   8.111  93.973  1.00  0.00     0.210 HD
ENDBRANCH   7  21
BRANCH   5  23
HETATM   23  C7  UNL     1      12.916   7.003  93.590  1.00  0.00     0.199 C 
BRANCH  23  24
HETATM   24  O2  UNL     1      13.440   7.390  94.834  1.00  0.00    -0.399 OA
ATOM     25  H2  UNL     1      13.923   6.719  95.303  1.00  0.00     0.209 HD
ENDBRANCH  23  24
ENDBRANCH   5  23
BRANCH   6  26
HETATM   26  O3  UNL     1      10.945   8.746  95.119  1.00  0.00    -0.391 OA
ATOM     27  H3  UNL     1      10.319   9.112  95.733  1.00  0.00     0.210 HD
ENDBRANCH   6  26
TORSDOF 5
ENDMDL
