MODEL 2
REMARK VINA RESULT: -7.192177996      7.070     10.659
REMARK  10 active torsions:
REMARK  status: ('A' for Active; 'I' for Inactive)
REMARK    1  A    between atoms: N5_13  and  C6_14 
REMARK    2  A    between atoms: C7_16  and  C8_17 
REMARK    3  A    between atoms: C8_17  and  S1_18 
REMARK    4  A    between atoms: S1_18  and  C9_19 
REMARK    5  A    between atoms: C9_19  and  C10_20 
REMARK    6  A    between atoms: C10_20  and  C11_21 
REMARK    7  A    between atoms: C11_21  and  N6_22 
REMARK    8  A    between atoms: C11_21  and  C12_26 
REMARK    9  A    between atoms: C13_29  and  O4_30 
REMARK   10  A    between atoms: C14_32  and  O5_33 
ROOT
HETATM    1  C6  UNL     1      32.312  20.954   0.518  1.00  0.00     0.262 C 
HETATM    2  O1  UNL     1      33.451  21.725   0.806  1.00  0.00    -0.355 OA
HETATM    3  C7  UNL     1      33.913  21.198   2.025  1.00  0.00     0.165 C 
HETATM    4  C13 UNL     1      33.701  19.708   1.912  1.00  0.00     0.180 C 
HETATM    5  C14 UNL     1      32.906  19.582   0.631  1.00  0.00     0.198 C 
ENDROOT
BRANCH   1   6
HETATM    6  N5  UNL     1      31.781  21.292  -0.763  1.00  0.00    -0.297 N 
HETATM    7  C3  UNL     1      30.639  20.815  -1.285  1.00  0.00     0.142 A 
HETATM    8  N3  UNL     1      29.710  19.954  -0.839  1.00  0.00    -0.336 N 
HETATM    9  C4  UNL     1      30.504  21.410  -2.540  1.00  0.00     0.119 A 
HETATM   10  C2  UNL     1      28.660  19.684  -1.628  1.00  0.00     0.183 A 
ATOM     11  H3  UNL     1      29.800  19.517   0.078  1.00  0.00     0.168 HD
HETATM   12  N2  UNL     1      28.512  20.243  -2.835  1.00  0.00    -0.339 N 
HETATM   13  C1  UNL     1      29.423  21.107  -3.308  1.00  0.00     0.148 A 
ATOM     14  H2  UNL     1      27.697  20.010  -3.403  1.00  0.00     0.167 HD
HETATM   15  N1  UNL     1      29.262  21.704  -4.597  1.00  0.00    -0.080 NA
HETATM   16  N4  UNL     1      31.585  22.215  -2.696  1.00  0.00    -0.346 N 
HETATM   17  C5  UNL     1      32.364  22.150  -1.623  1.00  0.00     0.188 A 
ATOM     18  H4  UNL     1      31.771  22.788  -3.519  1.00  0.00     0.167 HD
ENDBRANCH   1   6
BRANCH   5  19
HETATM   19  O5  UNL     1      31.968  18.563   0.703  1.00  0.00    -0.388 OA
ATOM     20  H5  UNL     1      32.197  17.789   0.202  1.00  0.00     0.210 HD
ENDBRANCH   5  19
BRANCH   3  21
HETATM   21  C8  UNL     1      35.386  21.460   2.129  1.00  0.00     0.108 C 
BRANCH  21  22
HETATM   22  S1  UNL     1      36.217  20.893   3.575  1.00  0.00    -0.166 SA
BRANCH  22  23
HETATM   23  C9  UNL     1      37.442  21.970   4.258  1.00  0.00     0.076 C 
BRANCH  23  24
HETATM   24  C10 UNL     1      37.031  22.630   5.543  1.00  0.00     0.054 C 
BRANCH  24  25
HETATM   25  C11 UNL     1      38.002  23.683   5.946  1.00  0.00     0.284 C 
BRANCH  25  26
HETATM   26  N6  UNL     1      38.480  24.458   4.845  1.00  0.00    -0.065 N 
ATOM     27  H63 UNL     1      37.707  24.774   4.259  1.00  0.00     0.275 HD
ATOM     28  H62 UNL     1      38.830  25.362   5.162  1.00  0.00     0.275 HD
ATOM     29  H61 UNL     1      39.184  23.973   4.288  1.00  0.00     0.275 HD
ENDBRANCH  25  26
BRANCH  25  30
HETATM   30  C12 UNL     1      39.136  23.169   6.728  1.00  0.00     0.204 C 
HETATM   31  O2  UNL     1      38.928  22.560   7.794  1.00  0.00    -0.646 OA
HETATM   32  O3  UNL     1      40.428  23.355   6.288  1.00  0.00    -0.646 OA
ENDBRANCH  25  30
ENDBRANCH  24  25
ENDBRANCH  23  24
ENDBRANCH  22  23
ENDBRANCH  21  22
ENDBRANCH   3  21
BRANCH   4  33
HETATM   33  O4  UNL     1      32.881  19.252   2.963  1.00  0.00    -0.390 OA
ATOM     34  H4  UNL     1      32.676  18.333   2.844  1.00  0.00     0.210 HD
ENDBRANCH   4  33
TORSDOF 10
ENDMDL
