MODEL 17
REMARK VINA RESULT: -6.728363578      2.740      4.062
REMARK  10 active torsions:
REMARK  status: ('A' for Active; 'I' for Inactive)
REMARK    1  A    between atoms: N5_13  and  C6_14 
REMARK    2  A    between atoms: C7_16  and  C8_17 
REMARK    3  A    between atoms: C8_17  and  S1_18 
REMARK    4  A    between atoms: S1_18  and  C9_19 
REMARK    5  A    between atoms: C9_19  and  C10_20 
REMARK    6  A    between atoms: C10_20  and  C11_21 
REMARK    7  A    between atoms: C11_21  and  N6_22 
REMARK    8  A    between atoms: C11_21  and  C12_26 
REMARK    9  A    between atoms: C13_29  and  O4_30 
REMARK   10  A    between atoms: C14_32  and  O5_33 
ROOT
HETATM    1  C6  UNL     1      28.663  24.128  -4.666  1.00  0.00     0.262 C 
HETATM    2  O1  UNL     1      29.243  23.494  -3.554  1.00  0.00    -0.355 OA
HETATM    3  C7  UNL     1      29.239  22.132  -3.905  1.00  0.00     0.165 C 
HETATM    4  C13 UNL     1      29.578  22.106  -5.375  1.00  0.00     0.180 C 
HETATM    5  C14 UNL     1      29.535  23.571  -5.752  1.00  0.00     0.198 C 
ENDROOT
BRANCH   1   6
HETATM    6  N5  UNL     1      28.696  25.548  -4.516  1.00  0.00    -0.297 N 
HETATM    7  C3  UNL     1      27.624  26.357  -4.509  1.00  0.00     0.142 A 
HETATM    8  N3  UNL     1      26.304  26.140  -4.629  1.00  0.00    -0.336 N 
HETATM    9  C4  UNL     1      28.113  27.652  -4.334  1.00  0.00     0.119 A 
HETATM   10  C2  UNL     1      25.478  27.195  -4.578  1.00  0.00     0.183 A 
ATOM     11  H3  UNL     1      25.939  25.196  -4.755  1.00  0.00     0.168 HD
HETATM   12  N2  UNL     1      25.927  28.445  -4.411  1.00  0.00    -0.339 N 
HETATM   13  C1  UNL     1      27.239  28.693  -4.287  1.00  0.00     0.148 A 
ATOM     14  H2  UNL     1      25.262  29.219  -4.377  1.00  0.00     0.167 HD
HETATM   15  N1  UNL     1      27.716  30.029  -4.108  1.00  0.00    -0.080 NA
HETATM   16  N4  UNL     1      29.462  27.539  -4.246  1.00  0.00    -0.346 N 
HETATM   17  C5  UNL     1      29.824  26.267  -4.356  1.00  0.00     0.188 A 
ATOM     18  H4  UNL     1      30.105  28.320  -4.116  1.00  0.00     0.167 HD
ENDBRANCH   1   6
BRANCH   5  19
HETATM   19  O5  UNL     1      29.038  23.762  -7.032  1.00  0.00    -0.388 OA
ATOM     20  H5  UNL     1      28.096  23.875  -7.070  1.00  0.00     0.210 HD
ENDBRANCH   5  19
BRANCH   3  21
HETATM   21  C8  UNL     1      30.339  21.445  -3.152  1.00  0.00     0.108 C 
BRANCH  21  22
HETATM   22  S1  UNL     1      31.831  22.344  -2.886  1.00  0.00    -0.166 SA
BRANCH  22  23
HETATM   23  C9  UNL     1      32.609  22.139  -1.311  1.00  0.00     0.076 C 
BRANCH  23  24
HETATM   24  C10 UNL     1      33.028  20.728  -1.014  1.00  0.00     0.054 C 
BRANCH  24  25
HETATM   25  C11 UNL     1      32.220  20.144   0.092  1.00  0.00     0.284 C 
BRANCH  25  26
HETATM   26  N6  UNL     1      31.519  21.127   0.856  1.00  0.00    -0.065 N 
ATOM     27  H63 UNL     1      31.500  22.022   0.366  1.00  0.00     0.275 HD
ATOM     28  H62 UNL     1      30.520  20.925   0.875  1.00  0.00     0.275 HD
ATOM     29  H61 UNL     1      31.886  21.237   1.801  1.00  0.00     0.275 HD
ENDBRANCH  25  26
BRANCH  25  30
HETATM   30  C12 UNL     1      32.993  19.271   0.986  1.00  0.00     0.204 C 
HETATM   31  O2  UNL     1      34.088  19.658   1.436  1.00  0.00    -0.646 OA
HETATM   32  O3  UNL     1      32.515  18.025   1.330  1.00  0.00    -0.646 OA
ENDBRANCH  25  30
ENDBRANCH  24  25
ENDBRANCH  23  24
ENDBRANCH  22  23
ENDBRANCH  21  22
ENDBRANCH   3  21
BRANCH   4  33
HETATM   33  O4  UNL     1      28.558  21.457  -6.098  1.00  0.00    -0.390 OA
ATOM     34  H4  UNL     1      28.747  21.484  -7.028  1.00  0.00     0.210 HD
ENDBRANCH   4  33
TORSDOF 10
ENDMDL
