MODEL 4
REMARK VINA RESULT: -7.039360568      7.926     11.308
REMARK  10 active torsions:
REMARK  status: ('A' for Active; 'I' for Inactive)
REMARK    1  A    between atoms: N5_13  and  C6_14 
REMARK    2  A    between atoms: C7_16  and  C8_17 
REMARK    3  A    between atoms: C8_17  and  S1_18 
REMARK    4  A    between atoms: S1_18  and  C9_19 
REMARK    5  A    between atoms: C9_19  and  C10_20 
REMARK    6  A    between atoms: C10_20  and  C11_21 
REMARK    7  A    between atoms: C11_21  and  N6_22 
REMARK    8  A    between atoms: C11_21  and  C12_26 
REMARK    9  A    between atoms: C13_29  and  O4_30 
REMARK   10  A    between atoms: C14_32  and  O5_33 
ROOT
HETATM    1  C6  UNL     1      32.929  20.444   2.209  1.00  0.00     0.262 C 
HETATM    2  O1  UNL     1      33.885  21.049   3.042  1.00  0.00    -0.355 OA
HETATM    3  C7  UNL     1      33.748  20.364   4.263  1.00  0.00     0.165 C 
HETATM    4  C13 UNL     1      33.505  18.926   3.879  1.00  0.00     0.180 C 
HETATM    5  C14 UNL     1      33.325  19.008   2.379  1.00  0.00     0.198 C 
ENDROOT
BRANCH   1   6
HETATM    6  N5  UNL     1      33.017  20.955   0.879  1.00  0.00    -0.297 N 
HETATM    7  C3  UNL     1      32.133  20.727  -0.106  1.00  0.00     0.142 A 
HETATM    8  N3  UNL     1      30.993  20.020  -0.175  1.00  0.00    -0.336 N 
HETATM    9  C4  UNL     1      32.605  21.416  -1.223  1.00  0.00     0.119 A 
HETATM   10  C2  UNL     1      30.329  19.995  -1.340  1.00  0.00     0.183 A 
ATOM     11  H3  UNL     1      30.641  19.514   0.637  1.00  0.00     0.168 HD
HETATM   12  N2  UNL     1      30.765  20.649  -2.424  1.00  0.00    -0.339 N 
HETATM   13  C1  UNL     1      31.899  21.364  -2.385  1.00  0.00     0.148 A 
ATOM     14  H2  UNL     1      30.228  20.603  -3.290  1.00  0.00     0.167 HD
HETATM   15  N1  UNL     1      32.362  22.063  -3.543  1.00  0.00    -0.080 NA
HETATM   16  N4  UNL     1      33.755  22.022  -0.837  1.00  0.00    -0.346 N 
HETATM   17  C5  UNL     1      34.013  21.748   0.436  1.00  0.00     0.188 A 
ATOM     18  H4  UNL     1      34.338  22.604  -1.438  1.00  0.00     0.167 HD
ENDBRANCH   1   6
BRANCH   5  19
HETATM   19  O5  UNL     1      32.380  18.101   1.921  1.00  0.00    -0.388 OA
ATOM     20  H5  UNL     1      32.681  17.558   1.203  1.00  0.00     0.210 HD
ENDBRANCH   5  19
BRANCH   3  21
HETATM   21  C8  UNL     1      35.051  20.445   5.001  1.00  0.00     0.108 C 
BRANCH  21  22
HETATM   22  S1  UNL     1      35.683  18.959   5.705  1.00  0.00    -0.166 SA
BRANCH  22  23
HETATM   23  C9  UNL     1      37.425  18.903   6.003  1.00  0.00     0.076 C 
BRANCH  23  24
HETATM   24  C10 UNL     1      38.103  17.681   5.451  1.00  0.00     0.054 C 
BRANCH  24  25
HETATM   25  C11 UNL     1      37.398  16.437   5.866  1.00  0.00     0.284 C 
BRANCH  25  26
HETATM   26  N6  UNL     1      38.069  15.734   6.914  1.00  0.00    -0.065 N 
ATOM     27  H63 UNL     1      39.073  15.696   6.741  1.00  0.00     0.275 HD
ATOM     28  H62 UNL     1      38.068  16.280   7.775  1.00  0.00     0.275 HD
ATOM     29  H61 UNL     1      37.691  14.800   7.076  1.00  0.00     0.275 HD
ENDBRANCH  25  26
BRANCH  25  30
HETATM   30  C12 UNL     1      37.114  15.524   4.750  1.00  0.00     0.204 C 
HETATM   31  O2  UNL     1      36.261  15.834   3.897  1.00  0.00    -0.646 OA
HETATM   32  O3  UNL     1      37.786  14.326   4.641  1.00  0.00    -0.646 OA
ENDBRANCH  25  30
ENDBRANCH  24  25
ENDBRANCH  23  24
ENDBRANCH  22  23
ENDBRANCH  21  22
ENDBRANCH   3  21
BRANCH   4  33
HETATM   33  O4  UNL     1      32.287  18.475   4.425  1.00  0.00    -0.390 OA
ATOM     34  H4  UNL     1      32.451  17.884   5.150  1.00  0.00     0.210 HD
ENDBRANCH   4  33
TORSDOF 10
ENDMDL
