MODEL 1
REMARK VINA RESULT: -6.299464805      0.000      0.000
REMARK  11 active torsions:
REMARK  status: ('A' for Active; 'I' for Inactive)
REMARK       I    between atoms: C2_2  and  N1_4 
REMARK    1  A    between atoms: N1_4  and  C3_6 
REMARK    2  A    between atoms: C3_6  and  C4_7 
REMARK    3  A    between atoms: C4_7  and  S1_8 
REMARK    4  A    between atoms: S1_8  and  S2_9 
REMARK    5  A    between atoms: S2_9  and  C5_10 
REMARK    6  A    between atoms: C5_10  and  C6_11 
REMARK    7  A    between atoms: C6_11  and  N2_12 
REMARK       I    between atoms: N2_12  and  C7_14 
REMARK    8  A    between atoms: C7_14  and  C8_16 
REMARK    9  A    between atoms: C11_19  and  N3_20 
REMARK       I    between atoms: N3_20  and  C12_22 
REMARK   10  A    between atoms: C12_22  and  C13_24 
REMARK   11  A    between atoms: C16_31  and  C17_32 
ROOT
HETATM    1  C8  UNL     1      54.684  33.040  36.879  1.00  0.00     0.078 C 
HETATM    2  C9  UNL     1      54.107  34.167  37.697  1.00  0.00     0.016 C 
HETATM    3  C10 UNL     1      52.640  34.399  37.381  1.00  0.00     0.026 C 
HETATM    4  C11 UNL     1      51.901  33.164  37.852  1.00  0.00     0.084 C 
HETATM    5  C18 UNL     1      52.536  31.954  37.223  1.00  0.00     0.026 C 
HETATM    6  C19 UNL     1      53.559  32.344  36.147  1.00  0.00     0.016 C 
ENDROOT
BRANCH   1   7
HETATM    7  C7  UNL     1      55.738  33.547  36.003  1.00  0.00     0.221 C 
HETATM    8  N2  UNL     1      55.776  33.412  34.599  1.00  0.00    -0.360 N 
ATOM      9  H2  UNL     1      55.007  32.921  34.142  1.00  0.00     0.162 HD
HETATM   10  O2  UNL     1      56.723  34.168  36.512  1.00  0.00    -0.273 OA
BRANCH   8  11
HETATM   11  C6  UNL     1      56.845  33.932  33.769  1.00  0.00     0.133 C 
BRANCH  11  12
HETATM   12  C5  UNL     1      56.409  34.356  32.418  1.00  0.00     0.105 C 
BRANCH  12  13
HETATM   13  S2  UNL     1      56.032  36.122  32.459  1.00  0.00    -0.096 SA
BRANCH  13  14
HETATM   14  S1  UNL     1      54.064  36.375  33.200  1.00  0.00    -0.096 SA
BRANCH  14  15
HETATM   15  C4  UNL     1      54.138  36.761  34.962  1.00  0.00     0.105 C 
BRANCH  15  16
HETATM   16  C3  UNL     1      55.409  37.566  35.178  1.00  0.00     0.133 C 
BRANCH  16  17
HETATM   17  N1  UNL     1      56.074  37.106  36.362  1.00  0.00    -0.361 N 
HETATM   18  C2  UNL     1      56.798  38.035  37.153  1.00  0.00     0.213 C 
HETATM   19  C1  UNL     1      57.504  37.618  38.384  1.00  0.00     0.117 C 
HETATM   20  O1  UNL     1      56.846  39.238  36.809  1.00  0.00    -0.274 OA
ATOM     21  H1  UNL     1      56.028  36.124  36.631  1.00  0.00     0.162 HD
ENDBRANCH  16  17
ENDBRANCH  15  16
ENDBRANCH  14  15
ENDBRANCH  13  14
ENDBRANCH  12  13
ENDBRANCH  11  12
ENDBRANCH   8  11
ENDBRANCH   1   7
BRANCH   4  22
HETATM   22  N3  UNL     1      50.510  33.184  37.465  1.00  0.00    -0.351 N 
HETATM   23  C12 UNL     1      49.454  32.740  38.342  1.00  0.00     0.271 C 
HETATM   24  O3  UNL     1      49.843  32.346  39.439  1.00  0.00    -0.266 OA
ATOM     25  H3  UNL     1      50.264  33.525  36.536  1.00  0.00     0.163 HD
BRANCH  23  26
HETATM   26  C13 UNL     1      48.079  32.781  37.907  1.00  0.00     0.134 A 
HETATM   27  N4  UNL     1      47.343  33.862  38.350  1.00  0.00    -0.358 N 
HETATM   28  C14 UNL     1      46.058  34.036  38.028  1.00  0.00     0.105 A 
ATOM     29  H4  UNL     1      47.798  34.555  38.945  1.00  0.00     0.165 HD
HETATM   30  C15 UNL     1      45.397  33.127  37.228  1.00  0.00     0.105 A 
HETATM   31  N5  UNL     1      46.095  32.084  36.800  1.00  0.00    -0.357 N 
HETATM   32  C16 UNL     1      47.425  31.888  37.121  1.00  0.00     0.142 A 
ATOM     33  H5  UNL     1      45.630  31.397  36.207  1.00  0.00     0.165 HD
BRANCH  32  34
HETATM   34  C17 UNL     1      48.084  30.707  36.616  1.00  0.00     0.229 C 
HETATM   35  O4  UNL     1      48.431  30.748  35.370  1.00  0.00    -0.643 OA
HETATM   36  O5  UNL     1      48.388  29.570  37.250  1.00  0.00    -0.643 OA
ENDBRANCH  32  34
ENDBRANCH  23  26
ENDBRANCH   4  22
TORSDOF 11
ENDMDL
