MODEL 3
REMARK VINA RESULT: -6.208378510      2.104      2.923
REMARK  11 active torsions:
REMARK  status: ('A' for Active; 'I' for Inactive)
REMARK       I    between atoms: C2_2  and  N1_4 
REMARK    1  A    between atoms: N1_4  and  C3_6 
REMARK    2  A    between atoms: C3_6  and  C4_7 
REMARK    3  A    between atoms: C4_7  and  S1_8 
REMARK    4  A    between atoms: S1_8  and  S2_9 
REMARK    5  A    between atoms: S2_9  and  C5_10 
REMARK    6  A    between atoms: C5_10  and  C6_11 
REMARK    7  A    between atoms: C6_11  and  N2_12 
REMARK       I    between atoms: N2_12  and  C7_14 
REMARK    8  A    between atoms: C7_14  and  C8_16 
REMARK    9  A    between atoms: C11_19  and  N3_20 
REMARK       I    between atoms: N3_20  and  C12_22 
REMARK   10  A    between atoms: C12_22  and  C13_24 
REMARK   11  A    between atoms: C16_31  and  C17_32 
ROOT
HETATM    1  C8  UNL     1      54.495  33.444  37.336  1.00  0.00     0.078 C 
HETATM    2  C9  UNL     1      53.778  33.845  38.600  1.00  0.00     0.016 C 
HETATM    3  C10 UNL     1      52.304  34.112  38.351  1.00  0.00     0.026 C 
HETATM    4  C11 UNL     1      51.688  32.783  37.965  1.00  0.00     0.084 C 
HETATM    5  C18 UNL     1      52.467  32.208  36.813  1.00  0.00     0.026 C 
HETATM    6  C19 UNL     1      53.471  33.221  36.246  1.00  0.00     0.016 C 
ENDROOT
BRANCH   1   7
HETATM    7  C7  UNL     1      55.511  34.438  37.001  1.00  0.00     0.221 C 
HETATM    8  N2  UNL     1      55.476  35.804  37.355  1.00  0.00    -0.360 N 
ATOM      9  H2  UNL     1      54.677  36.140  37.893  1.00  0.00     0.162 HD
HETATM   10  O2  UNL     1      56.531  34.082  36.331  1.00  0.00    -0.273 OA
BRANCH   8  11
HETATM   11  C6  UNL     1      56.509  36.755  36.998  1.00  0.00     0.133 C 
BRANCH  11  12
HETATM   12  C5  UNL     1      57.188  37.374  38.161  1.00  0.00     0.105 C 
BRANCH  12  13
HETATM   13  S2  UNL     1      57.188  39.168  37.945  1.00  0.00    -0.096 SA
BRANCH  13  14
HETATM   14  S1  UNL     1      56.853  39.601  35.899  1.00  0.00    -0.096 SA
BRANCH  14  15
HETATM   15  C4  UNL     1      55.121  40.051  35.662  1.00  0.00     0.105 C 
BRANCH  15  16
HETATM   16  C3  UNL     1      54.536  39.035  34.695  1.00  0.00     0.133 C 
BRANCH  16  17
HETATM   17  N1  UNL     1      53.323  38.498  35.239  1.00  0.00    -0.361 N 
HETATM   18  C2  UNL     1      53.063  37.109  35.110  1.00  0.00     0.213 C 
HETATM   19  C1  UNL     1      51.829  36.500  35.650  1.00  0.00     0.117 C 
HETATM   20  O1  UNL     1      53.892  36.375  34.525  1.00  0.00    -0.274 OA
ATOM     21  H1  UNL     1      52.656  39.107  35.713  1.00  0.00     0.162 HD
ENDBRANCH  16  17
ENDBRANCH  15  16
ENDBRANCH  14  15
ENDBRANCH  13  14
ENDBRANCH  12  13
ENDBRANCH  11  12
ENDBRANCH   8  11
ENDBRANCH   1   7
BRANCH   4  22
HETATM   22  N3  UNL     1      50.315  32.923  37.545  1.00  0.00    -0.351 N 
HETATM   23  C12 UNL     1      49.205  32.513  38.371  1.00  0.00     0.271 C 
HETATM   24  O3  UNL     1      49.532  32.038  39.455  1.00  0.00    -0.266 OA
ATOM     25  H3  UNL     1      50.121  33.328  36.628  1.00  0.00     0.163 HD
BRANCH  23  26
HETATM   26  C13 UNL     1      47.849  32.676  37.903  1.00  0.00     0.134 A 
HETATM   27  N4  UNL     1      47.137  33.709  38.479  1.00  0.00    -0.358 N 
HETATM   28  C14 UNL     1      45.872  33.982  38.146  1.00  0.00     0.105 A 
ATOM     29  H4  UNL     1      47.595  34.287  39.185  1.00  0.00     0.165 HD
HETATM   30  C15 UNL     1      45.209  33.230  37.199  1.00  0.00     0.105 A 
HETATM   31  N5  UNL     1      45.884  32.234  36.641  1.00  0.00    -0.357 N 
HETATM   32  C16 UNL     1      47.193  31.938  36.972  1.00  0.00     0.142 A 
ATOM     33  H5  UNL     1      45.417  31.662  35.938  1.00  0.00     0.165 HD
BRANCH  32  34
HETATM   34  C17 UNL     1      47.827  30.818  36.316  1.00  0.00     0.229 C 
HETATM   35  O4  UNL     1      47.377  29.649  36.642  1.00  0.00    -0.643 OA
HETATM   36  O5  UNL     1      48.816  30.812  35.418  1.00  0.00    -0.643 OA
ENDBRANCH  32  34
ENDBRANCH  23  26
ENDBRANCH   4  22
TORSDOF 11
ENDMDL
