MODEL 2
REMARK VINA RESULT: -6.242105107      3.429      5.105
REMARK  11 active torsions:
REMARK  status: ('A' for Active; 'I' for Inactive)
REMARK       I    between atoms: C2_2  and  N1_4 
REMARK    1  A    between atoms: N1_4  and  C3_6 
REMARK    2  A    between atoms: C3_6  and  C4_7 
REMARK    3  A    between atoms: C4_7  and  S1_8 
REMARK    4  A    between atoms: S1_8  and  S2_9 
REMARK    5  A    between atoms: S2_9  and  C5_10 
REMARK    6  A    between atoms: C5_10  and  C6_11 
REMARK    7  A    between atoms: C6_11  and  N2_12 
REMARK       I    between atoms: N2_12  and  C7_14 
REMARK    8  A    between atoms: C7_14  and  C8_16 
REMARK    9  A    between atoms: C11_19  and  N3_20 
REMARK       I    between atoms: N3_20  and  C12_22 
REMARK   10  A    between atoms: C12_22  and  C13_24 
REMARK   11  A    between atoms: C16_31  and  C17_32 
ROOT
HETATM    1  C8  UNL     1      51.732  32.785  33.705  1.00  0.00     0.078 C 
HETATM    2  C9  UNL     1      51.018  31.790  34.584  1.00  0.00     0.016 C 
HETATM    3  C10 UNL     1      50.187  32.478  35.654  1.00  0.00     0.026 C 
HETATM    4  C11 UNL     1      49.080  33.213  34.927  1.00  0.00     0.084 C 
HETATM    5  C18 UNL     1      49.698  34.105  33.885  1.00  0.00     0.026 C 
HETATM    6  C19 UNL     1      51.224  34.173  34.028  1.00  0.00     0.016 C 
ENDROOT
BRANCH   1   7
HETATM    7  C7  UNL     1      53.177  32.633  33.849  1.00  0.00     0.221 C 
HETATM    8  N2  UNL     1      54.097  33.682  34.067  1.00  0.00    -0.360 N 
ATOM      9  H2  UNL     1      53.735  34.633  34.131  1.00  0.00     0.162 HD
HETATM   10  O2  UNL     1      53.691  31.473  33.778  1.00  0.00    -0.273 OA
BRANCH   8  11
HETATM   11  C6  UNL     1      55.526  33.483  34.202  1.00  0.00     0.133 C 
BRANCH  11  12
HETATM   12  C5  UNL     1      56.085  33.974  35.484  1.00  0.00     0.105 C 
BRANCH  12  13
HETATM   13  S2  UNL     1      55.245  33.130  36.843  1.00  0.00    -0.096 SA
BRANCH  13  14
HETATM   14  S1  UNL     1      54.149  34.563  37.953  1.00  0.00    -0.096 SA
BRANCH  14  15
HETATM   15  C4  UNL     1      52.416  34.063  38.021  1.00  0.00     0.105 C 
BRANCH  15  16
HETATM   16  C3  UNL     1      52.125  33.697  39.467  1.00  0.00     0.133 C 
BRANCH  16  17
HETATM   17  N1  UNL     1      50.989  32.824  39.522  1.00  0.00    -0.361 N 
HETATM   18  C2  UNL     1      51.157  31.501  40.009  1.00  0.00     0.213 C 
HETATM   19  C1  UNL     1      50.023  30.556  40.088  1.00  0.00     0.117 C 
HETATM   20  O1  UNL     1      52.289  31.117  40.380  1.00  0.00    -0.274 OA
ATOM     21  H1  UNL     1      50.072  33.149  39.216  1.00  0.00     0.162 HD
ENDBRANCH  16  17
ENDBRANCH  15  16
ENDBRANCH  14  15
ENDBRANCH  13  14
ENDBRANCH  12  13
ENDBRANCH  11  12
ENDBRANCH   8  11
ENDBRANCH   1   7
BRANCH   4  22
HETATM   22  N3  UNL     1      48.306  34.044  35.819  1.00  0.00    -0.351 N 
HETATM   23  C12 UNL     1      46.866  33.977  35.888  1.00  0.00     0.271 C 
HETATM   24  O3  UNL     1      46.363  33.154  35.126  1.00  0.00    -0.266 OA
ATOM     25  H3  UNL     1      48.795  34.705  36.423  1.00  0.00     0.163 HD
BRANCH  23  26
HETATM   26  C13 UNL     1      46.139  34.830  36.797  1.00  0.00     0.134 A 
HETATM   27  N4  UNL     1      45.758  36.056  36.290  1.00  0.00    -0.358 N 
HETATM   28  C14 UNL     1      45.078  36.951  37.013  1.00  0.00     0.105 A 
ATOM     29  H4  UNL     1      46.004  36.288  35.327  1.00  0.00     0.165 HD
HETATM   30  C15 UNL     1      44.723  36.687  38.319  1.00  0.00     0.105 A 
HETATM   31  N5  UNL     1      45.086  35.512  38.815  1.00  0.00    -0.357 N 
HETATM   32  C16 UNL     1      45.789  34.573  38.082  1.00  0.00     0.142 A 
ATOM     33  H5  UNL     1      44.836  35.291  39.779  1.00  0.00     0.165 HD
BRANCH  32  34
HETATM   34  C17 UNL     1      46.150  33.333  38.728  1.00  0.00     0.229 C 
HETATM   35  O4  UNL     1      47.308  33.319  39.305  1.00  0.00    -0.643 OA
HETATM   36  O5  UNL     1      45.460  32.192  38.817  1.00  0.00    -0.643 OA
ENDBRANCH  32  34
ENDBRANCH  23  26
ENDBRANCH   4  22
TORSDOF 11
ENDMDL
