MODEL 1
REMARK VINA RESULT: -8.626805003      0.000      0.000
REMARK  19 active torsions:
REMARK  status: ('A' for Active; 'I' for Inactive)
REMARK    1  A    between atoms: C2_2  and  C3_3 
REMARK    2  A    between atoms: C5_5  and  C6_6 
REMARK    3  A    between atoms: C6_6  and  C7_7 
REMARK    4  A    between atoms: C7_7  and  N1_8 
REMARK    5  A    between atoms: C7_7  and  C10_13 
REMARK       I    between atoms: N1_8  and  C8_10 
REMARK       I    between atoms: C10_13  and  N2_15 
REMARK    6  A    between atoms: N2_15  and  C11_17 
REMARK    7  A    between atoms: C11_17  and  C12_18 
REMARK    8  A    between atoms: C12_18  and  C13_19 
REMARK    9  A    between atoms: C13_19  and  C14_20 
REMARK   10  A    between atoms: C14_20  and  C15_21 
REMARK       I    between atoms: C15_21  and  N3_23 
REMARK   11  A    between atoms: N3_23  and  C16_25 
REMARK   12  A    between atoms: C16_25  and  C17_26 
REMARK   13  A    between atoms: C16_25  and  C20_30 
REMARK   14  A    between atoms: C17_26  and  C18_27 
REMARK   15  A    between atoms: C18_27  and  S1_28 
REMARK   16  A    between atoms: C23_35  and  N4_36 
REMARK       I    between atoms: N4_36  and  C24_37 
REMARK   17  A    between atoms: N4_36  and  C26_42 
REMARK   18  A    between atoms: C24_37  and  C25_39 
REMARK   19  A    between atoms: C31_47  and  C32_48 
ROOT
HETATM    1  C7  UNL     1      31.012  31.612  17.561  1.00  0.00     0.180 C 
ENDROOT
BRANCH   1   2
HETATM    2  C6  UNL     1      31.278  32.105  18.972  1.00  0.00     0.073 C 
BRANCH   2   3
HETATM    3  C5  UNL     1      32.212  31.088  19.564  1.00  0.00    -0.055 A 
HETATM    4  C4  UNL     1      33.471  30.968  19.050  1.00  0.00     0.016 A 
HETATM    5  C3  UNL     1      34.365  30.008  19.571  1.00  0.00    -0.031 A 
HETATM    6  C23 UNL     1      34.030  29.189  20.568  1.00  0.00     0.049 A 
HETATM    7  C22 UNL     1      32.715  29.332  21.089  1.00  0.00     0.031 A 
HETATM    8  C21 UNL     1      31.837  30.260  20.594  1.00  0.00     0.009 A 
BRANCH   5   9
HETATM    9  C2  UNL     1      35.692  30.004  18.939  1.00  0.00     0.036 C 
HETATM   10  C1  UNL     1      35.696  30.314  17.466  1.00  0.00     0.010 C 
ENDBRANCH   5   9
BRANCH   6  11
HETATM   11  N4  UNL     1      34.785  28.174  21.197  1.00  0.00    -0.272 N 
HETATM   12  C24 UNL     1      35.528  28.536  22.353  1.00  0.00     0.329 C 
HETATM   13  O6  UNL     1      35.585  29.799  22.626  1.00  0.00    -0.260 OA
BRANCH  12  14
HETATM   14  C25 UNL     1      36.209  27.647  23.251  1.00  0.00     0.270 C 
HETATM   15  O7  UNL     1      37.434  27.754  23.455  1.00  0.00    -0.640 OA
HETATM   16  O8  UNL     1      35.468  26.641  23.903  1.00  0.00    -0.640 OA
ENDBRANCH  12  14
BRANCH  11  17
HETATM   17  C26 UNL     1      34.773  26.825  20.773  1.00  0.00     0.060 A 
HETATM   18  C27 UNL     1      33.643  26.058  21.119  1.00  0.00     0.031 A 
HETATM   19  C28 UNL     1      33.501  24.749  20.767  1.00  0.00     0.002 A 
HETATM   20  C29 UNL     1      34.480  24.121  20.045  1.00  0.00     0.001 A 
HETATM   21  C30 UNL     1      35.603  24.847  19.692  1.00  0.00     0.021 A 
HETATM   22  C31 UNL     1      35.749  26.199  20.055  1.00  0.00     0.068 A 
BRANCH  22  23
HETATM   23  C32 UNL     1      36.993  26.813  19.603  1.00  0.00     0.211 C 
HETATM   24  O9  UNL     1      37.099  27.159  18.381  1.00  0.00    -0.644 OA
HETATM   25  O10 UNL     1      38.104  27.072  20.367  1.00  0.00    -0.644 OA
ENDBRANCH  22  23
ENDBRANCH  11  17
ENDBRANCH   6  11
ENDBRANCH   2   3
ENDBRANCH   1   2
BRANCH   1  26
HETATM   26  N1  UNL     1      30.741  32.679  16.640  1.00  0.00    -0.348 N 
HETATM   27  C8  UNL     1      31.609  33.152  15.625  1.00  0.00     0.214 C 
HETATM   28  C9  UNL     1      31.228  34.274  14.723  1.00  0.00     0.117 C 
HETATM   29  O1  UNL     1      32.728  32.592  15.506  1.00  0.00    -0.274 OA
ATOM     30  H1  UNL     1      29.836  33.142  16.724  1.00  0.00     0.163 HD
ENDBRANCH   1  26
BRANCH   1  31
HETATM   31  C10 UNL     1      29.930  30.612  17.609  1.00  0.00     0.240 C 
HETATM   32  O2  UNL     1      30.063  29.610  16.860  1.00  0.00    -0.271 OA
HETATM   33  N2  UNL     1      28.781  30.707  18.422  1.00  0.00    -0.359 N 
ATOM     34  H2  UNL     1      28.676  31.524  19.025  1.00  0.00     0.162 HD
BRANCH  33  35
HETATM   35  C11 UNL     1      27.744  29.694  18.438  1.00  0.00     0.122 C 
BRANCH  35  36
HETATM   36  C12 UNL     1      26.611  30.134  19.313  1.00  0.00     0.020 C 
BRANCH  36  37
HETATM   37  C13 UNL     1      27.065  30.818  20.580  1.00  0.00     0.011 C 
BRANCH  37  38
HETATM   38  C14 UNL     1      25.873  31.424  21.265  1.00  0.00     0.103 C 
BRANCH  38  39
HETATM   39  C15 UNL     1      25.375  30.456  22.268  1.00  0.00     0.218 C 
HETATM   40  O3  UNL     1      25.894  30.430  23.407  1.00  0.00    -0.274 OA
HETATM   41  N3  UNL     1      24.323  29.562  21.963  1.00  0.00    -0.346 N 
ATOM     42  H3  UNL     1      23.887  29.561  21.040  1.00  0.00     0.163 HD
BRANCH  41  43
HETATM   43  C16 UNL     1      23.870  28.630  23.016  1.00  0.00     0.186 C 
BRANCH  43  44
HETATM   44  C17 UNL     1      22.392  28.493  22.906  1.00  0.00     0.046 C 
BRANCH  44  45
HETATM   45  C18 UNL     1      21.683  28.824  24.166  1.00  0.00     0.076 C 
BRANCH  45  46
HETATM   46  S1  UNL     1      22.113  30.386  24.924  1.00  0.00    -0.173 SA
HETATM   47  C19 UNL     1      22.133  31.815  23.878  1.00  0.00     0.089 C 
ENDBRANCH  45  46
ENDBRANCH  44  45
ENDBRANCH  43  44
BRANCH  43  48
HETATM   48  C20 UNL     1      24.571  27.335  22.737  1.00  0.00     0.196 C 
HETATM   49  O4  UNL     1      24.720  26.938  21.569  1.00  0.00    -0.646 OA
HETATM   50  O5  UNL     1      25.051  26.574  23.766  1.00  0.00    -0.646 OA
ENDBRANCH  43  48
ENDBRANCH  41  43
ENDBRANCH  38  39
ENDBRANCH  37  38
ENDBRANCH  36  37
ENDBRANCH  35  36
ENDBRANCH  33  35
ENDBRANCH   1  31
TORSDOF 19
ENDMDL
