MODEL 6
REMARK VINA RESULT: -8.129279412      0.964      1.233
REMARK  19 active torsions:
REMARK  status: ('A' for Active; 'I' for Inactive)
REMARK    1  A    between atoms: C2_2  and  C3_3 
REMARK    2  A    between atoms: C5_5  and  C6_6 
REMARK    3  A    between atoms: C6_6  and  C7_7 
REMARK    4  A    between atoms: C7_7  and  N1_8 
REMARK    5  A    between atoms: C7_7  and  C10_13 
REMARK       I    between atoms: N1_8  and  C8_10 
REMARK       I    between atoms: C10_13  and  N2_15 
REMARK    6  A    between atoms: N2_15  and  C11_17 
REMARK    7  A    between atoms: C11_17  and  C12_18 
REMARK    8  A    between atoms: C12_18  and  C13_19 
REMARK    9  A    between atoms: C13_19  and  C14_20 
REMARK   10  A    between atoms: C14_20  and  C15_21 
REMARK       I    between atoms: C15_21  and  N3_23 
REMARK   11  A    between atoms: N3_23  and  C16_25 
REMARK   12  A    between atoms: C16_25  and  C17_26 
REMARK   13  A    between atoms: C16_25  and  C20_30 
REMARK   14  A    between atoms: C17_26  and  C18_27 
REMARK   15  A    between atoms: C18_27  and  S1_28 
REMARK   16  A    between atoms: C23_35  and  N4_36 
REMARK       I    between atoms: N4_36  and  C24_37 
REMARK   17  A    between atoms: N4_36  and  C26_42 
REMARK   18  A    between atoms: C24_37  and  C25_39 
REMARK   19  A    between atoms: C31_47  and  C32_48 
ROOT
HETATM    1  C7  UNL     1      30.841  31.449  17.635  1.00  0.00     0.180 C 
ENDROOT
BRANCH   1   2
HETATM    2  C6  UNL     1      31.108  31.950  19.044  1.00  0.00     0.073 C 
BRANCH   2   3
HETATM    3  C5  UNL     1      32.085  30.967  19.623  1.00  0.00    -0.055 A 
HETATM    4  C4  UNL     1      33.342  30.895  19.095  1.00  0.00     0.016 A 
HETATM    5  C3  UNL     1      34.276  29.967  19.604  1.00  0.00    -0.031 A 
HETATM    6  C23 UNL     1      33.982  29.134  20.601  1.00  0.00     0.049 A 
HETATM    7  C22 UNL     1      32.667  29.227  21.137  1.00  0.00     0.031 A 
HETATM    8  C21 UNL     1      31.751  30.123  20.654  1.00  0.00     0.009 A 
BRANCH   5   9
HETATM    9  C2  UNL     1      35.595  30.015  18.958  1.00  0.00     0.036 C 
HETATM   10  C1  UNL     1      35.573  30.342  17.490  1.00  0.00     0.010 C 
ENDBRANCH   5   9
BRANCH   6  11
HETATM   11  N4  UNL     1      34.781  28.146  21.219  1.00  0.00    -0.272 N 
HETATM   12  C24 UNL     1      35.530  28.534  22.363  1.00  0.00     0.329 C 
HETATM   13  O6  UNL     1      35.549  29.800  22.633  1.00  0.00    -0.260 OA
BRANCH  12  14
HETATM   14  C25 UNL     1      36.255  27.670  23.251  1.00  0.00     0.270 C 
HETATM   15  O7  UNL     1      37.481  27.808  23.421  1.00  0.00    -0.640 OA
HETATM   16  O8  UNL     1      35.555  26.654  23.930  1.00  0.00    -0.640 OA
ENDBRANCH  12  14
BRANCH  11  17
HETATM   17  C26 UNL     1      34.806  26.796  20.798  1.00  0.00     0.060 A 
HETATM   18  C27 UNL     1      33.698  25.999  21.144  1.00  0.00     0.031 A 
HETATM   19  C28 UNL     1      33.592  24.686  20.794  1.00  0.00     0.002 A 
HETATM   20  C29 UNL     1      34.589  24.084  20.073  1.00  0.00     0.001 A 
HETATM   21  C30 UNL     1      35.692  24.841  19.720  1.00  0.00     0.021 A 
HETATM   22  C31 UNL     1      35.801  26.197  20.081  1.00  0.00     0.068 A 
BRANCH  22  23
HETATM   23  C32 UNL     1      37.027  26.845  19.630  1.00  0.00     0.211 C 
HETATM   24  O9  UNL     1      38.003  26.948  20.443  1.00  0.00    -0.644 OA
HETATM   25  O10 UNL     1      37.264  27.376  18.386  1.00  0.00    -0.644 OA
ENDBRANCH  22  23
ENDBRANCH  11  17
ENDBRANCH   6  11
ENDBRANCH   2   3
ENDBRANCH   1   2
BRANCH   1  26
HETATM   26  N1  UNL     1      30.725  32.513  16.679  1.00  0.00    -0.348 N 
HETATM   27  C8  UNL     1      31.709  32.909  15.740  1.00  0.00     0.214 C 
HETATM   28  C9  UNL     1      31.484  34.035  14.791  1.00  0.00     0.117 C 
HETATM   29  O1  UNL     1      32.795  32.276  15.730  1.00  0.00    -0.274 OA
ATOM     30  H1  UNL     1      29.848  33.034  16.674  1.00  0.00     0.163 HD
ENDBRANCH   1  26
BRANCH   1  31
HETATM   31  C10 UNL     1      29.655  30.575  17.664  1.00  0.00     0.240 C 
HETATM   32  O2  UNL     1      29.635  29.634  16.830  1.00  0.00    -0.271 OA
HETATM   33  N2  UNL     1      28.565  30.727  18.547  1.00  0.00    -0.359 N 
ATOM     34  H2  UNL     1      28.584  31.494  19.220  1.00  0.00     0.162 HD
BRANCH  33  35
HETATM   35  C11 UNL     1      27.419  29.838  18.541  1.00  0.00     0.122 C 
BRANCH  35  36
HETATM   36  C12 UNL     1      26.263  30.485  19.238  1.00  0.00     0.020 C 
BRANCH  36  37
HETATM   37  C13 UNL     1      25.875  29.790  20.521  1.00  0.00     0.011 C 
BRANCH  37  38
HETATM   38  C14 UNL     1      25.898  30.786  21.646  1.00  0.00     0.103 C 
BRANCH  38  39
HETATM   39  C15 UNL     1      24.770  30.485  22.554  1.00  0.00     0.218 C 
HETATM   40  O3  UNL     1      24.860  30.788  23.766  1.00  0.00    -0.274 OA
HETATM   41  N3  UNL     1      23.592  29.864  22.078  1.00  0.00    -0.346 N 
ATOM     42  H3  UNL     1      23.498  29.603  21.096  1.00  0.00     0.163 HD
BRANCH  41  43
HETATM   43  C16 UNL     1      22.502  29.602  23.040  1.00  0.00     0.186 C 
BRANCH  43  44
HETATM   44  C17 UNL     1      21.303  30.363  22.595  1.00  0.00     0.046 C 
BRANCH  44  45
HETATM   45  C18 UNL     1      20.463  30.836  23.722  1.00  0.00     0.076 C 
BRANCH  45  46
HETATM   46  S1  UNL     1      21.342  31.467  25.146  1.00  0.00    -0.173 SA
HETATM   47  C19 UNL     1      21.764  30.307  26.417  1.00  0.00     0.089 C 
ENDBRANCH  45  46
ENDBRANCH  44  45
ENDBRANCH  43  44
BRANCH  43  48
HETATM   48  C20 UNL     1      22.271  28.122  22.995  1.00  0.00     0.196 C 
HETATM   49  O4  UNL     1      23.087  27.341  23.510  1.00  0.00    -0.646 OA
HETATM   50  O5  UNL     1      21.158  27.616  22.383  1.00  0.00    -0.646 OA
ENDBRANCH  43  48
ENDBRANCH  41  43
ENDBRANCH  38  39
ENDBRANCH  37  38
ENDBRANCH  36  37
ENDBRANCH  35  36
ENDBRANCH  33  35
ENDBRANCH   1  31
TORSDOF 19
ENDMDL
