MODEL 9
REMARK VINA RESULT: -8.072169528      2.847      7.147
REMARK  10 active torsions:
REMARK  status: ('A' for Active; 'I' for Inactive)
REMARK    1  A    between atoms: C3_4  and  C4_5 
REMARK    2  A    between atoms: C4_5  and  N2_6 
REMARK       I    between atoms: N2_6  and  C5_8 
REMARK    3  A    between atoms: C5_8  and  C6_10 
REMARK       I    between atoms: N3_14  and  C10_15 
REMARK    4  A    between atoms: C10_15  and  C11_17 
REMARK    5  A    between atoms: C11_17  and  C12_18 
REMARK    6  A    between atoms: C11_17  and  N4_25 
REMARK    7  A    between atoms: C12_18  and  C13_19 
REMARK    8  A    between atoms: N4_25  and  C19_28 
REMARK    9  A    between atoms: C19_28  and  C20_29 
REMARK   10  A    between atoms: C22_33  and  C23_34 
ROOT
HETATM    1  C6  UNL     1      19.003  20.093  21.782  1.00  0.00     0.109 A 
HETATM    2  C7  UNL     1      20.328  20.195  21.320  1.00  0.00     0.037 A 
HETATM    3  C8  UNL     1      20.328  21.049  20.265  1.00  0.00     0.020 A 
HETATM    4  C9  UNL     1      19.039  21.448  20.097  1.00  0.00     0.100 A 
HETATM    5  N3  UNL     1      18.226  20.866  21.023  1.00  0.00    -0.286 N 
HETATM    6  C10 UNL     1      16.816  21.050  21.114  1.00  0.00     0.259 C 
HETATM    7  O2  UNL     1      16.112  20.515  21.981  1.00  0.00    -0.270 OA
ENDROOT
BRANCH   1   8
HETATM    8  C5  UNL     1      18.684  19.243  22.914  1.00  0.00     0.269 C 
HETATM    9  N2  UNL     1      17.956  18.021  22.779  1.00  0.00    -0.351 N 
ATOM     10  H2  UNL     1      17.641  17.728  21.853  1.00  0.00     0.163 HD
HETATM   11  O1  UNL     1      19.029  19.534  24.074  1.00  0.00    -0.266 OA
BRANCH   9  12
HETATM   12  C4  UNL     1      17.655  17.184  23.929  1.00  0.00     0.163 C 
BRANCH  12  13
HETATM   13  C3  UNL     1      16.463  16.334  23.667  1.00  0.00    -0.023 A 
HETATM   14  C2  UNL     1      15.878  15.354  24.430  1.00  0.00     0.099 A 
HETATM   15  N1  UNL     1      14.811  14.845  23.775  1.00  0.00    -0.358 N 
HETATM   16  C1  UNL     1      13.964  13.777  24.316  1.00  0.00     0.156 C 
HETATM   17  C22 UNL     1      14.678  15.465  22.602  1.00  0.00     0.075 A 
HETATM   18  C21 UNL     1      15.695  16.400  22.505  1.00  0.00     0.043 A 
BRANCH  17  19
HETATM   19  C23 UNL     1      13.651  15.206  21.597  1.00  0.00     0.137 C 
HETATM   20  N5  UNL     1      12.485  15.791  21.720  1.00  0.00    -0.386 N 
ATOM     21  H52 UNL     1      12.304  16.415  22.505  1.00  0.00     0.157 HD
ATOM     22  H51 UNL     1      11.768  15.610  21.018  1.00  0.00     0.157 HD
HETATM   23  N6  UNL     1      13.903  14.340  20.509  1.00  0.00    -0.081 NA
ENDBRANCH  17  19
ENDBRANCH  12  13
ENDBRANCH   9  12
ENDBRANCH   1   8
BRANCH   6  24
HETATM   24  C11 UNL     1      16.124  21.929  20.123  1.00  0.00     0.278 C 
BRANCH  24  25
HETATM   25  C12 UNL     1      15.356  21.102  19.115  1.00  0.00     0.047 C 
BRANCH  25  26
HETATM   26  C13 UNL     1      16.255  20.786  17.953  1.00  0.00    -0.012 C 
HETATM   27  C14 UNL     1      15.625  20.056  16.819  1.00  0.00     0.005 C 
HETATM   28  C15 UNL     1      14.992  21.076  15.875  1.00  0.00     0.000 C 
HETATM   29  C16 UNL     1      16.109  21.655  15.055  1.00  0.00     0.000 C 
HETATM   30  C17 UNL     1      17.325  21.780  15.977  1.00  0.00     0.000 C 
HETATM   31  C18 UNL     1      16.915  22.042  17.405  1.00  0.00     0.005 C 
ENDBRANCH  25  26
ENDBRANCH  24  25
BRANCH  24  32
HETATM   32  N4  UNL     1      15.177  22.767  20.803  1.00  0.00    -0.053 N 
ATOM     33  H42 UNL     1      15.290  22.684  21.813  1.00  0.00     0.278 HD
ATOM     34  H41 UNL     1      15.419  23.749  20.679  1.00  0.00     0.278 HD
BRANCH  32  35
HETATM   35  C19 UNL     1      13.825  22.544  20.439  1.00  0.00     0.345 C 
BRANCH  35  36
HETATM   36  C20 UNL     1      12.968  22.608  21.666  1.00  0.00     0.199 C 
HETATM   37  O3  UNL     1      13.267  21.882  22.630  1.00  0.00    -0.647 OA
HETATM   38  O4  UNL     1      11.860  23.449  21.750  1.00  0.00    -0.647 OA
ENDBRANCH  35  36
ENDBRANCH  32  35
ENDBRANCH  24  32
ENDBRANCH   6  24
TORSDOF 10
ENDMDL
