MODEL 2
REMARK VINA RESULT: -9.214343211      0.855      1.589
REMARK  10 active torsions:
REMARK  status: ('A' for Active; 'I' for Inactive)
REMARK    1  A    between atoms: C3_4  and  C4_5 
REMARK    2  A    between atoms: C4_5  and  N2_6 
REMARK       I    between atoms: N2_6  and  C5_8 
REMARK    3  A    between atoms: C5_8  and  C6_10 
REMARK       I    between atoms: N3_14  and  C10_15 
REMARK    4  A    between atoms: C10_15  and  C11_17 
REMARK    5  A    between atoms: C11_17  and  C12_18 
REMARK    6  A    between atoms: C11_17  and  N4_25 
REMARK    7  A    between atoms: C12_18  and  C13_19 
REMARK    8  A    between atoms: N4_25  and  C19_28 
REMARK    9  A    between atoms: C19_28  and  C20_29 
REMARK   10  A    between atoms: C22_33  and  C23_34 
ROOT
HETATM    1  C6  UNL     1      17.762  21.119  20.188  1.00  0.00     0.109 A 
HETATM    2  C7  UNL     1      18.877  21.320  19.352  1.00  0.00     0.037 A 
HETATM    3  C8  UNL     1      19.867  20.503  19.791  1.00  0.00     0.020 A 
HETATM    4  C9  UNL     1      19.364  19.830  20.859  1.00  0.00     0.100 A 
HETATM    5  N3  UNL     1      18.077  20.204  21.105  1.00  0.00    -0.286 N 
HETATM    6  C10 UNL     1      17.262  19.710  22.165  1.00  0.00     0.259 C 
HETATM    7  O2  UNL     1      16.089  20.063  22.347  1.00  0.00    -0.270 OA
ENDROOT
BRANCH   1   8
HETATM    8  C5  UNL     1      16.535  21.861  19.965  1.00  0.00     0.269 C 
HETATM    9  N2  UNL     1      16.009  22.784  20.920  1.00  0.00    -0.351 N 
ATOM     10  H2  UNL     1      16.506  22.930  21.799  1.00  0.00     0.163 HD
HETATM   11  O1  UNL     1      15.869  21.734  18.921  1.00  0.00    -0.266 OA
BRANCH   9  12
HETATM   12  C4  UNL     1      14.779  23.520  20.670  1.00  0.00     0.163 C 
BRANCH  12  13
HETATM   13  C3  UNL     1      13.737  23.163  21.668  1.00  0.00    -0.023 A 
HETATM   14  C2  UNL     1      13.157  23.911  22.663  1.00  0.00     0.099 A 
HETATM   15  N1  UNL     1      12.257  23.157  23.332  1.00  0.00    -0.358 N 
HETATM   16  C1  UNL     1      11.461  23.657  24.458  1.00  0.00     0.156 C 
HETATM   17  C22 UNL     1      12.229  21.933  22.804  1.00  0.00     0.075 A 
HETATM   18  C21 UNL     1      13.141  21.905  21.763  1.00  0.00     0.043 A 
BRANCH  17  19
HETATM   19  C23 UNL     1      11.392  20.821  23.242  1.00  0.00     0.137 C 
HETATM   20  N5  UNL     1      10.223  21.080  23.776  1.00  0.00    -0.386 N 
ATOM     21  H52 UNL     1       9.909  22.045  23.881  1.00  0.00     0.157 HD
ATOM     22  H51 UNL     1       9.638  20.303  24.082  1.00  0.00     0.157 HD
HETATM   23  N6  UNL     1      11.827  19.484  23.096  1.00  0.00    -0.081 NA
ENDBRANCH  17  19
ENDBRANCH  12  13
ENDBRANCH   9  12
ENDBRANCH   1   8
BRANCH   6  24
HETATM   24  C11 UNL     1      17.828  18.714  23.124  1.00  0.00     0.278 C 
BRANCH  24  25
HETATM   25  C12 UNL     1      18.315  19.396  24.384  1.00  0.00     0.047 C 
BRANCH  25  26
HETATM   26  C13 UNL     1      19.736  18.986  24.647  1.00  0.00    -0.012 C 
HETATM   27  C14 UNL     1      20.744  20.081  24.648  1.00  0.00     0.005 C 
HETATM   28  C15 UNL     1      20.804  20.687  26.048  1.00  0.00     0.000 C 
HETATM   29  C16 UNL     1      21.627  19.751  26.887  1.00  0.00     0.000 C 
HETATM   30  C17 UNL     1      21.286  18.328  26.437  1.00  0.00     0.000 C 
HETATM   31  C18 UNL     1      19.859  18.223  25.957  1.00  0.00     0.005 C 
ENDBRANCH  25  26
ENDBRANCH  24  25
BRANCH  24  32
HETATM   32  N4  UNL     1      16.807  17.781  23.507  1.00  0.00    -0.053 N 
ATOM     33  H42 UNL     1      16.900  17.538  24.494  1.00  0.00     0.278 HD
ATOM     34  H41 UNL     1      15.897  18.239  23.525  1.00  0.00     0.278 HD
BRANCH  32  35
HETATM   35  C19 UNL     1      16.752  16.607  22.715  1.00  0.00     0.345 C 
BRANCH  35  36
HETATM   36  C20 UNL     1      15.335  16.362  22.295  1.00  0.00     0.199 C 
HETATM   37  O3  UNL     1      15.111  16.109  21.099  1.00  0.00    -0.647 OA
HETATM   38  O4  UNL     1      14.278  16.412  23.202  1.00  0.00    -0.647 OA
ENDBRANCH  35  36
ENDBRANCH  32  35
ENDBRANCH  24  32
ENDBRANCH   6  24
TORSDOF 10
ENDMDL
