MODEL 7
REMARK VINA RESULT: -8.166525718      3.415      7.301
REMARK  10 active torsions:
REMARK  status: ('A' for Active; 'I' for Inactive)
REMARK    1  A    between atoms: C3_4  and  C4_5 
REMARK    2  A    between atoms: C4_5  and  N2_6 
REMARK       I    between atoms: N2_6  and  C5_8 
REMARK    3  A    between atoms: C5_8  and  C6_10 
REMARK       I    between atoms: N3_14  and  C10_15 
REMARK    4  A    between atoms: C10_15  and  C11_17 
REMARK    5  A    between atoms: C11_17  and  C12_18 
REMARK    6  A    between atoms: C11_17  and  N4_25 
REMARK    7  A    between atoms: C12_18  and  C13_19 
REMARK    8  A    between atoms: N4_25  and  C19_28 
REMARK    9  A    between atoms: C19_28  and  C20_29 
REMARK   10  A    between atoms: C22_33  and  C23_34 
ROOT
HETATM    1  C6  UNL     1      18.622  19.385  21.052  1.00  0.00     0.109 A 
HETATM    2  C7  UNL     1      20.000  19.664  20.994  1.00  0.00     0.037 A 
HETATM    3  C8  UNL     1      20.150  20.851  20.354  1.00  0.00     0.020 A 
HETATM    4  C9  UNL     1      18.898  21.275  20.036  1.00  0.00     0.100 A 
HETATM    5  N3  UNL     1      17.961  20.381  20.462  1.00  0.00    -0.286 N 
HETATM    6  C10 UNL     1      16.554  20.506  20.270  1.00  0.00     0.259 C 
HETATM    7  O2  UNL     1      15.731  19.679  20.685  1.00  0.00    -0.270 OA
ENDROOT
BRANCH   1   8
HETATM    8  C5  UNL     1      18.146  18.170  21.686  1.00  0.00     0.269 C 
HETATM    9  N2  UNL     1      17.403  17.174  20.980  1.00  0.00    -0.351 N 
ATOM     10  H2  UNL     1      17.191  17.317  19.992  1.00  0.00     0.163 HD
HETATM   11  O1  UNL     1      18.358  17.926  22.888  1.00  0.00    -0.266 OA
BRANCH   9  12
HETATM   12  C4  UNL     1      16.942  15.961  21.638  1.00  0.00     0.163 C 
BRANCH  12  13
HETATM   13  C3  UNL     1      15.599  15.566  21.136  1.00  0.00    -0.023 A 
HETATM   14  C2  UNL     1      15.183  15.213  19.876  1.00  0.00     0.099 A 
HETATM   15  N1  UNL     1      13.859  14.941  19.894  1.00  0.00    -0.358 N 
HETATM   16  C1  UNL     1      13.101  14.531  18.708  1.00  0.00     0.156 C 
HETATM   17  C22 UNL     1      13.393  15.105  21.133  1.00  0.00     0.075 A 
HETATM   18  C21 UNL     1      14.455  15.495  21.931  1.00  0.00     0.043 A 
BRANCH  17  19
HETATM   19  C23 UNL     1      12.015  14.912  21.572  1.00  0.00     0.137 C 
HETATM   20  N5  UNL     1      11.149  15.878  21.382  1.00  0.00    -0.386 N 
ATOM     21  H52 UNL     1      11.440  16.747  20.934  1.00  0.00     0.157 HD
ATOM     22  H51 UNL     1      10.186  15.743  21.688  1.00  0.00     0.157 HD
HETATM   23  N6  UNL     1      11.612  13.707  22.192  1.00  0.00    -0.081 NA
ENDBRANCH  17  19
ENDBRANCH  12  13
ENDBRANCH   9  12
ENDBRANCH   1   8
BRANCH   6  24
HETATM   24  C11 UNL     1      16.016  21.687  19.530  1.00  0.00     0.278 C 
BRANCH  24  25
HETATM   25  C12 UNL     1      15.107  21.247  18.403  1.00  0.00     0.047 C 
BRANCH  25  26
HETATM   26  C13 UNL     1      15.941  20.942  17.190  1.00  0.00    -0.012 C 
HETATM   27  C14 UNL     1      15.208  20.846  15.898  1.00  0.00     0.005 C 
HETATM   28  C15 UNL     1      15.094  22.245  15.298  1.00  0.00     0.000 C 
HETATM   29  C16 UNL     1      16.424  22.554  14.671  1.00  0.00     0.000 C 
HETATM   30  C17 UNL     1      17.498  21.949  15.579  1.00  0.00     0.000 C 
HETATM   31  C18 UNL     1      17.069  21.948  17.026  1.00  0.00     0.005 C 
ENDBRANCH  25  26
ENDBRANCH  24  25
BRANCH  24  32
HETATM   32  N4  UNL     1      15.234  22.498  20.420  1.00  0.00    -0.053 N 
ATOM     33  H42 UNL     1      15.477  22.295  21.390  1.00  0.00     0.278 HD
ATOM     34  H41 UNL     1      15.530  23.472  20.365  1.00  0.00     0.278 HD
BRANCH  32  35
HETATM   35  C19 UNL     1      13.833  22.398  20.232  1.00  0.00     0.345 C 
BRANCH  35  36
HETATM   36  C20 UNL     1      13.157  22.369  21.569  1.00  0.00     0.199 C 
HETATM   37  O3  UNL     1      13.633  21.635  22.452  1.00  0.00    -0.647 OA
HETATM   38  O4  UNL     1      12.025  23.135  21.841  1.00  0.00    -0.647 OA
ENDBRANCH  35  36
ENDBRANCH  32  35
ENDBRANCH  24  32
ENDBRANCH   6  24
TORSDOF 10
ENDMDL
