MODEL 10
REMARK VINA RESULT: -8.005823899      3.380      8.822
REMARK  10 active torsions:
REMARK  status: ('A' for Active; 'I' for Inactive)
REMARK    1  A    between atoms: C3_4  and  C4_5 
REMARK    2  A    between atoms: C4_5  and  N2_6 
REMARK       I    between atoms: N2_6  and  C5_8 
REMARK    3  A    between atoms: C5_8  and  C6_10 
REMARK       I    between atoms: N3_14  and  C10_15 
REMARK    4  A    between atoms: C10_15  and  C11_17 
REMARK    5  A    between atoms: C11_17  and  C12_18 
REMARK    6  A    between atoms: C11_17  and  N4_25 
REMARK    7  A    between atoms: C12_18  and  C13_19 
REMARK    8  A    between atoms: N4_25  and  C19_28 
REMARK    9  A    between atoms: C19_28  and  C20_29 
REMARK   10  A    between atoms: C22_33  and  C23_34 
ROOT
HETATM    1  C6  UNL     1      19.223  20.118  21.006  1.00  0.00     0.109 A 
HETATM    2  C7  UNL     1      20.443  20.577  20.474  1.00  0.00     0.037 A 
HETATM    3  C8  UNL     1      20.155  21.309  19.369  1.00  0.00     0.020 A 
HETATM    4  C9  UNL     1      18.802  21.291  19.239  1.00  0.00     0.100 A 
HETATM    5  N3  UNL     1      18.229  20.564  20.239  1.00  0.00    -0.286 N 
HETATM    6  C10 UNL     1      16.832  20.324  20.389  1.00  0.00     0.259 C 
HETATM    7  O2  UNL     1      16.347  19.670  21.321  1.00  0.00    -0.270 OA
ENDROOT
BRANCH   1   8
HETATM    8  C5  UNL     1      19.208  19.299  22.204  1.00  0.00     0.269 C 
HETATM    9  N2  UNL     1      19.494  19.827  23.501  1.00  0.00    -0.351 N 
ATOM     10  H2  UNL     1      19.722  20.816  23.597  1.00  0.00     0.163 HD
HETATM   11  O1  UNL     1      18.944  18.083  22.169  1.00  0.00    -0.266 OA
BRANCH   9  12
HETATM   12  C4  UNL     1      19.466  18.986  24.688  1.00  0.00     0.163 C 
BRANCH  12  13
HETATM   13  C3  UNL     1      20.793  18.357  24.921  1.00  0.00    -0.023 A 
HETATM   14  C2  UNL     1      21.185  17.408  25.832  1.00  0.00     0.099 A 
HETATM   15  N1  UNL     1      22.502  17.146  25.677  1.00  0.00    -0.358 N 
HETATM   16  C1  UNL     1      23.236  16.176  26.496  1.00  0.00     0.156 C 
HETATM   17  C22 UNL     1      22.986  17.898  24.688  1.00  0.00     0.075 A 
HETATM   18  C21 UNL     1      21.944  18.665  24.196  1.00  0.00     0.043 A 
BRANCH  17  19
HETATM   19  C23 UNL     1      24.365  17.916  24.210  1.00  0.00     0.137 C 
HETATM   20  N5  UNL     1      25.164  18.872  24.616  1.00  0.00    -0.386 N 
ATOM     21  H52 UNL     1      24.822  19.590  25.256  1.00  0.00     0.157 HD
ATOM     22  H51 UNL     1      26.127  18.885  24.282  1.00  0.00     0.157 HD
HETATM   23  N6  UNL     1      24.839  16.922  23.324  1.00  0.00    -0.081 NA
ENDBRANCH  17  19
ENDBRANCH  12  13
ENDBRANCH   9  12
ENDBRANCH   1   8
BRANCH   6  24
HETATM   24  C11 UNL     1      15.879  20.879  19.379  1.00  0.00     0.278 C 
BRANCH  24  25
HETATM   25  C12 UNL     1      15.875  20.035  18.123  1.00  0.00     0.047 C 
BRANCH  25  26
HETATM   26  C13 UNL     1      15.493  20.898  16.953  1.00  0.00    -0.012 C 
HETATM   27  C14 UNL     1      16.327  22.111  16.734  1.00  0.00     0.005 C 
HETATM   28  C15 UNL     1      17.533  21.726  15.881  1.00  0.00     0.000 C 
HETATM   29  C16 UNL     1      17.048  21.642  14.462  1.00  0.00     0.000 C 
HETATM   30  C17 UNL     1      15.635  21.053  14.505  1.00  0.00     0.000 C 
HETATM   31  C18 UNL     1      15.466  20.097  15.661  1.00  0.00     0.005 C 
ENDBRANCH  25  26
ENDBRANCH  24  25
BRANCH  24  32
HETATM   32  N4  UNL     1      14.547  20.860  19.914  1.00  0.00    -0.053 N 
ATOM     33  H42 UNL     1      13.924  20.342  19.295  1.00  0.00     0.278 HD
ATOM     34  H41 UNL     1      14.506  20.265  20.742  1.00  0.00     0.278 HD
BRANCH  32  35
HETATM   35  C19 UNL     1      14.008  22.139  20.199  1.00  0.00     0.345 C 
BRANCH  35  36
HETATM   36  C20 UNL     1      13.733  22.241  21.669  1.00  0.00     0.199 C 
HETATM   37  O3  UNL     1      13.692  21.192  22.333  1.00  0.00    -0.647 OA
HETATM   38  O4  UNL     1      13.524  23.467  22.297  1.00  0.00    -0.647 OA
ENDBRANCH  35  36
ENDBRANCH  32  35
ENDBRANCH  24  32
ENDBRANCH   6  24
TORSDOF 10
ENDMDL
