MODEL 5
REMARK VINA RESULT: -9.173819186      1.023      1.234
REMARK  10 active torsions:
REMARK  status: ('A' for Active; 'I' for Inactive)
REMARK    1  A    between atoms: C3_4  and  C4_5 
REMARK    2  A    between atoms: C4_5  and  N2_6 
REMARK       I    between atoms: N2_6  and  C5_8 
REMARK    3  A    between atoms: C5_8  and  C6_10 
REMARK       I    between atoms: N3_14  and  C10_15 
REMARK    4  A    between atoms: C10_15  and  C11_17 
REMARK    5  A    between atoms: C11_17  and  C12_18 
REMARK    6  A    between atoms: C11_17  and  N4_25 
REMARK    7  A    between atoms: C12_18  and  C13_19 
REMARK    8  A    between atoms: N4_25  and  C19_28 
REMARK    9  A    between atoms: C19_28  and  C20_29 
REMARK   10  A    between atoms: C22_33  and  C23_34 
ROOT
HETATM    1  C6  UNL     1      18.106  21.030  20.315  1.00  0.00     0.109 A 
HETATM    2  C7  UNL     1      19.208  21.238  19.465  1.00  0.00     0.037 A 
HETATM    3  C8  UNL     1      20.240  20.501  19.947  1.00  0.00     0.020 A 
HETATM    4  C9  UNL     1      19.772  19.868  21.056  1.00  0.00     0.100 A 
HETATM    5  N3  UNL     1      18.468  20.190  21.284  1.00  0.00    -0.286 N 
HETATM    6  C10 UNL     1      17.680  19.719  22.375  1.00  0.00     0.259 C 
HETATM    7  O2  UNL     1      16.491  20.021  22.540  1.00  0.00    -0.270 OA
ENDROOT
BRANCH   1   8
HETATM    8  C5  UNL     1      16.842  21.693  20.052  1.00  0.00     0.269 C 
HETATM    9  N2  UNL     1      16.245  22.608  20.974  1.00  0.00    -0.351 N 
ATOM     10  H2  UNL     1      16.718  22.806  21.856  1.00  0.00     0.163 HD
HETATM   11  O1  UNL     1      16.202  21.500  19.002  1.00  0.00    -0.266 OA
BRANCH   9  12
HETATM   12  C4  UNL     1      14.980  23.264  20.684  1.00  0.00     0.163 C 
BRANCH  12  13
HETATM   13  C3  UNL     1      13.890  22.705  21.527  1.00  0.00    -0.023 A 
HETATM   14  C2  UNL     1      13.354  21.442  21.575  1.00  0.00     0.099 A 
HETATM   15  N1  UNL     1      12.367  21.402  22.498  1.00  0.00    -0.358 N 
HETATM   16  C1  UNL     1      11.588  20.196  22.797  1.00  0.00     0.156 C 
HETATM   17  C22 UNL     1      12.241  22.605  23.059  1.00  0.00     0.075 A 
HETATM   18  C21 UNL     1      13.178  23.440  22.475  1.00  0.00     0.043 A 
BRANCH  17  19
HETATM   19  C23 UNL     1      11.288  22.979  24.100  1.00  0.00     0.137 C 
HETATM   20  N5  UNL     1      10.344  22.131  24.427  1.00  0.00    -0.386 N 
ATOM     21  H52 UNL     1      10.281  21.226  23.960  1.00  0.00     0.157 HD
ATOM     22  H51 UNL     1       9.678  22.392  25.154  1.00  0.00     0.157 HD
HETATM   23  N6  UNL     1      11.375  24.233  24.747  1.00  0.00    -0.081 NA
ENDBRANCH  17  19
ENDBRANCH  12  13
ENDBRANCH   9  12
ENDBRANCH   1   8
BRANCH   6  24
HETATM   24  C11 UNL     1      18.298  18.813  23.390  1.00  0.00     0.278 C 
BRANCH  24  25
HETATM   25  C12 UNL     1      18.597  19.563  24.669  1.00  0.00     0.047 C 
BRANCH  25  26
HETATM   26  C13 UNL     1      19.838  18.992  25.296  1.00  0.00    -0.012 C 
HETATM   27  C14 UNL     1      20.941  18.638  24.361  1.00  0.00     0.005 C 
HETATM   28  C15 UNL     1      21.797  19.879  24.125  1.00  0.00     0.000 C 
HETATM   29  C16 UNL     1      22.686  20.023  25.327  1.00  0.00     0.000 C 
HETATM   30  C17 UNL     1      21.862  19.605  26.547  1.00  0.00     0.000 C 
HETATM   31  C18 UNL     1      20.397  19.919  26.363  1.00  0.00     0.005 C 
ENDBRANCH  25  26
ENDBRANCH  24  25
BRANCH  24  32
HETATM   32  N4  UNL     1      17.381  17.758  23.715  1.00  0.00    -0.053 N 
ATOM     33  H42 UNL     1      17.071  17.843  24.683  1.00  0.00     0.278 HD
ATOM     34  H41 UNL     1      16.493  17.899  23.234  1.00  0.00     0.278 HD
BRANCH  32  35
HETATM   35  C19 UNL     1      17.873  16.452  23.468  1.00  0.00     0.345 C 
BRANCH  35  36
HETATM   36  C20 UNL     1      17.890  15.681  24.753  1.00  0.00     0.199 C 
HETATM   37  O3  UNL     1      17.497  16.251  25.785  1.00  0.00    -0.647 OA
HETATM   38  O4  UNL     1      18.329  14.360  24.815  1.00  0.00    -0.647 OA
ENDBRANCH  35  36
ENDBRANCH  32  35
ENDBRANCH  24  32
ENDBRANCH   6  24
TORSDOF 10
ENDMDL
