MODEL 4
REMARK VINA RESULT: -9.197248102      0.870      1.262
REMARK  10 active torsions:
REMARK  status: ('A' for Active; 'I' for Inactive)
REMARK    1  A    between atoms: C3_4  and  C4_5 
REMARK    2  A    between atoms: C4_5  and  N2_6 
REMARK       I    between atoms: N2_6  and  C5_8 
REMARK    3  A    between atoms: C5_8  and  C6_10 
REMARK       I    between atoms: N3_14  and  C10_15 
REMARK    4  A    between atoms: C10_15  and  C11_17 
REMARK    5  A    between atoms: C11_17  and  C12_18 
REMARK    6  A    between atoms: C11_17  and  N4_25 
REMARK    7  A    between atoms: C12_18  and  C13_19 
REMARK    8  A    between atoms: N4_25  and  C19_28 
REMARK    9  A    between atoms: C19_28  and  C20_29 
REMARK   10  A    between atoms: C22_33  and  C23_34 
ROOT
HETATM    1  C6  UNL     1      17.857  21.032  20.373  1.00  0.00     0.109 A 
HETATM    2  C7  UNL     1      18.966  21.274  19.541  1.00  0.00     0.037 A 
HETATM    3  C8  UNL     1      20.020  20.594  20.059  1.00  0.00     0.020 A 
HETATM    4  C9  UNL     1      19.559  19.962  21.171  1.00  0.00     0.100 A 
HETATM    5  N3  UNL     1      18.237  20.227  21.365  1.00  0.00    -0.286 N 
HETATM    6  C10 UNL     1      17.449  19.742  22.449  1.00  0.00     0.259 C 
HETATM    7  O2  UNL     1      16.244  19.992  22.585  1.00  0.00    -0.270 OA
ENDROOT
BRANCH   1   8
HETATM    8  C5  UNL     1      16.570  21.631  20.072  1.00  0.00     0.269 C 
HETATM    9  N2  UNL     1      15.344  20.903  20.156  1.00  0.00    -0.351 N 
ATOM     10  H2  UNL     1      15.365  19.921  20.434  1.00  0.00     0.163 HD
HETATM   11  O1  UNL     1      16.463  22.820  19.721  1.00  0.00    -0.266 OA
BRANCH   9  12
HETATM   12  C4  UNL     1      14.066  21.529  19.854  1.00  0.00     0.163 C 
BRANCH  12  13
HETATM   13  C3  UNL     1      13.436  22.066  21.089  1.00  0.00    -0.023 A 
HETATM   14  C2  UNL     1      13.634  23.252  21.751  1.00  0.00     0.099 A 
HETATM   15  N1  UNL     1      12.838  23.303  22.842  1.00  0.00    -0.358 N 
HETATM   16  C1  UNL     1      12.806  24.439  23.768  1.00  0.00     0.156 C 
HETATM   17  C22 UNL     1      12.121  22.181  22.915  1.00  0.00     0.075 A 
HETATM   18  C21 UNL     1      12.472  21.389  21.835  1.00  0.00     0.043 A 
BRANCH  17  19
HETATM   19  C23 UNL     1      11.145  21.843  23.946  1.00  0.00     0.137 C 
HETATM   20  N5  UNL     1      10.202  20.977  23.666  1.00  0.00    -0.386 N 
ATOM     21  H52 UNL     1      10.157  20.549  22.741  1.00  0.00     0.157 HD
ATOM     22  H51 UNL     1       9.520  20.741  24.386  1.00  0.00     0.157 HD
HETATM   23  N6  UNL     1      11.208  22.437  25.228  1.00  0.00    -0.081 NA
ENDBRANCH  17  19
ENDBRANCH  12  13
ENDBRANCH   9  12
ENDBRANCH   1   8
BRANCH   6  24
HETATM   24  C11 UNL     1      18.086  18.884  23.495  1.00  0.00     0.278 C 
BRANCH  24  25
HETATM   25  C12 UNL     1      18.449  19.703  24.714  1.00  0.00     0.047 C 
BRANCH  25  26
HETATM   26  C13 UNL     1      19.668  19.107  25.361  1.00  0.00    -0.012 C 
HETATM   27  C14 UNL     1      20.750  18.666  24.438  1.00  0.00     0.005 C 
HETATM   28  C15 UNL     1      21.657  19.859  24.145  1.00  0.00     0.000 C 
HETATM   29  C16 UNL     1      22.557  20.018  25.337  1.00  0.00     0.000 C 
HETATM   30  C17 UNL     1      21.723  19.689  26.577  1.00  0.00     0.000 C 
HETATM   31  C18 UNL     1      20.272  20.056  26.385  1.00  0.00     0.005 C 
ENDBRANCH  25  26
ENDBRANCH  24  25
BRANCH  24  32
HETATM   32  N4  UNL     1      17.160  17.872  23.917  1.00  0.00    -0.053 N 
ATOM     33  H42 UNL     1      17.303  17.649  24.902  1.00  0.00     0.278 HD
ATOM     34  H41 UNL     1      16.215  18.252  23.959  1.00  0.00     0.278 HD
BRANCH  32  35
HETATM   35  C19 UNL     1      17.181  16.690  23.135  1.00  0.00     0.345 C 
BRANCH  35  36
HETATM   36  C20 UNL     1      15.796  16.405  22.637  1.00  0.00     0.199 C 
HETATM   37  O3  UNL     1      15.572  16.531  21.421  1.00  0.00    -0.647 OA
HETATM   38  O4  UNL     1      14.771  16.007  23.493  1.00  0.00    -0.647 OA
ENDBRANCH  35  36
ENDBRANCH  32  35
ENDBRANCH  24  32
ENDBRANCH   6  24
TORSDOF 10
ENDMDL
