MODEL 1
REMARK VINA RESULT: -9.335150590      0.000      0.000
REMARK  10 active torsions:
REMARK  status: ('A' for Active; 'I' for Inactive)
REMARK    1  A    between atoms: C3_4  and  C4_5 
REMARK    2  A    between atoms: C4_5  and  N2_6 
REMARK       I    between atoms: N2_6  and  C5_8 
REMARK    3  A    between atoms: C5_8  and  C6_10 
REMARK       I    between atoms: N3_14  and  C10_15 
REMARK    4  A    between atoms: C10_15  and  C11_17 
REMARK    5  A    between atoms: C11_17  and  C12_18 
REMARK    6  A    between atoms: C11_17  and  N4_25 
REMARK    7  A    between atoms: C12_18  and  C13_19 
REMARK    8  A    between atoms: N4_25  and  C19_28 
REMARK    9  A    between atoms: C19_28  and  C20_29 
REMARK   10  A    between atoms: C22_33  and  C23_34 
ROOT
HETATM    1  C6  UNL     1      17.964  21.006  20.329  1.00  0.00     0.109 A 
HETATM    2  C7  UNL     1      19.045  21.155  19.440  1.00  0.00     0.037 A 
HETATM    3  C8  UNL     1      20.074  20.413  19.920  1.00  0.00     0.020 A 
HETATM    4  C9  UNL     1      19.626  19.834  21.066  1.00  0.00     0.100 A 
HETATM    5  N3  UNL     1      18.337  20.194  21.319  1.00  0.00    -0.286 N 
HETATM    6  C10 UNL     1      17.572  19.784  22.449  1.00  0.00     0.259 C 
HETATM    7  O2  UNL     1      16.395  20.120  22.638  1.00  0.00    -0.270 OA
ENDROOT
BRANCH   1   8
HETATM    8  C5  UNL     1      16.708  21.688  20.078  1.00  0.00     0.269 C 
HETATM    9  N2  UNL     1      16.158  22.646  20.983  1.00  0.00    -0.351 N 
ATOM     10  H2  UNL     1      16.659  22.864  21.845  1.00  0.00     0.163 HD
HETATM   11  O1  UNL     1      16.035  21.473  19.053  1.00  0.00    -0.266 OA
BRANCH   9  12
HETATM   12  C4  UNL     1      14.899  23.320  20.705  1.00  0.00     0.163 C 
BRANCH  12  13
HETATM   13  C3  UNL     1      13.798  22.741  21.520  1.00  0.00    -0.023 A 
HETATM   14  C2  UNL     1      13.215  21.499  21.481  1.00  0.00     0.099 A 
HETATM   15  N1  UNL     1      12.238  21.426  22.412  1.00  0.00    -0.358 N 
HETATM   16  C1  UNL     1      11.418  20.230  22.632  1.00  0.00     0.156 C 
HETATM   17  C22 UNL     1      12.164  22.587  23.063  1.00  0.00     0.075 A 
HETATM   18  C21 UNL     1      13.125  23.428  22.529  1.00  0.00     0.043 A 
BRANCH  17  19
HETATM   19  C23 UNL     1      11.237  22.917  24.141  1.00  0.00     0.137 C 
HETATM   20  N5  UNL     1      10.355  22.022  24.513  1.00  0.00    -0.386 N 
ATOM     21  H52 UNL     1      10.321  21.112  24.054  1.00  0.00     0.157 HD
ATOM     22  H51 UNL     1       9.708  22.252  25.266  1.00  0.00     0.157 HD
HETATM   23  N6  UNL     1      11.284  24.178  24.778  1.00  0.00    -0.081 NA
ENDBRANCH  17  19
ENDBRANCH  12  13
ENDBRANCH   9  12
ENDBRANCH   1   8
BRANCH   6  24
HETATM   24  C11 UNL     1      18.200  18.903  23.480  1.00  0.00     0.278 C 
BRANCH  24  25
HETATM   25  C12 UNL     1      18.580  19.699  24.709  1.00  0.00     0.047 C 
BRANCH  25  26
HETATM   26  C13 UNL     1      19.812  19.097  25.324  1.00  0.00    -0.012 C 
HETATM   27  C14 UNL     1      20.881  18.682  24.375  1.00  0.00     0.005 C 
HETATM   28  C15 UNL     1      21.777  19.885  24.093  1.00  0.00     0.000 C 
HETATM   29  C16 UNL     1      22.696  20.024  25.274  1.00  0.00     0.000 C 
HETATM   30  C17 UNL     1      21.883  19.664  26.520  1.00  0.00     0.000 C 
HETATM   31  C18 UNL     1      20.427  20.027  26.358  1.00  0.00     0.005 C 
ENDBRANCH  25  26
ENDBRANCH  24  25
BRANCH  24  32
HETATM   32  N4  UNL     1      17.260  17.899  23.892  1.00  0.00    -0.053 N 
ATOM     33  H42 UNL     1      17.426  17.636  24.864  1.00  0.00     0.278 HD
ATOM     34  H41 UNL     1      16.327  18.301  23.976  1.00  0.00     0.278 HD
BRANCH  32  35
HETATM   35  C19 UNL     1      17.228  16.747  23.067  1.00  0.00     0.345 C 
BRANCH  35  36
HETATM   36  C20 UNL     1      15.819  16.501  22.620  1.00  0.00     0.199 C 
HETATM   37  O3  UNL     1      15.521  16.769  21.444  1.00  0.00    -0.647 OA
HETATM   38  O4  UNL     1      14.851  15.987  23.480  1.00  0.00    -0.647 OA
ENDBRANCH  35  36
ENDBRANCH  32  35
ENDBRANCH  24  32
ENDBRANCH   6  24
TORSDOF 10
ENDMDL
