MODEL 6
REMARK VINA RESULT: -9.051297990      1.216      1.893
REMARK  10 active torsions:
REMARK  status: ('A' for Active; 'I' for Inactive)
REMARK    1  A    between atoms: C3_4  and  C4_5 
REMARK    2  A    between atoms: C4_5  and  N2_6 
REMARK       I    between atoms: N2_6  and  C5_8 
REMARK    3  A    between atoms: C5_8  and  C6_10 
REMARK       I    between atoms: N3_14  and  C10_15 
REMARK    4  A    between atoms: C10_15  and  C11_17 
REMARK    5  A    between atoms: C11_17  and  C12_18 
REMARK    6  A    between atoms: C11_17  and  N4_25 
REMARK    7  A    between atoms: C12_18  and  C13_19 
REMARK    8  A    between atoms: N4_25  and  C19_28 
REMARK    9  A    between atoms: C19_28  and  C20_29 
REMARK   10  A    between atoms: C22_33  and  C23_34 
ROOT
HETATM    1  C6  UNL     1      17.884  21.126  20.203  1.00  0.00     0.109 A 
HETATM    2  C7  UNL     1      19.013  21.313  19.385  1.00  0.00     0.037 A 
HETATM    3  C8  UNL     1      19.984  20.477  19.833  1.00  0.00     0.020 A 
HETATM    4  C9  UNL     1      19.454  19.807  20.890  1.00  0.00     0.100 A 
HETATM    5  N3  UNL     1      18.170  20.201  21.119  1.00  0.00    -0.286 N 
HETATM    6  C10 UNL     1      17.332  19.715  22.165  1.00  0.00     0.259 C 
HETATM    7  O2  UNL     1      16.163  20.086  22.332  1.00  0.00    -0.270 OA
ENDROOT
BRANCH   1   8
HETATM    8  C5  UNL     1      16.672  21.889  19.967  1.00  0.00     0.269 C 
HETATM    9  N2  UNL     1      16.064  22.700  20.974  1.00  0.00    -0.351 N 
ATOM     10  H2  UNL     1      16.490  22.747  21.900  1.00  0.00     0.163 HD
HETATM   11  O1  UNL     1      16.091  21.879  18.866  1.00  0.00    -0.266 OA
BRANCH   9  12
HETATM   12  C4  UNL     1      14.852  23.460  20.709  1.00  0.00     0.163 C 
BRANCH  12  13
HETATM   13  C3  UNL     1      13.789  23.118  21.691  1.00  0.00    -0.023 A 
HETATM   14  C2  UNL     1      13.201  23.876  22.672  1.00  0.00     0.099 A 
HETATM   15  N1  UNL     1      12.281  23.135  23.329  1.00  0.00    -0.358 N 
HETATM   16  C1  UNL     1      11.471  23.648  24.438  1.00  0.00     0.156 C 
HETATM   17  C22 UNL     1      12.249  21.909  22.805  1.00  0.00     0.075 A 
HETATM   18  C21 UNL     1      13.179  21.867  21.780  1.00  0.00     0.043 A 
BRANCH  17  19
HETATM   19  C23 UNL     1      11.393  20.807  23.233  1.00  0.00     0.137 C 
HETATM   20  N5  UNL     1      10.227  21.081  23.765  1.00  0.00    -0.386 N 
ATOM     21  H52 UNL     1       9.928  22.050  23.876  1.00  0.00     0.157 HD
ATOM     22  H51 UNL     1       9.628  20.312  24.064  1.00  0.00     0.157 HD
HETATM   23  N6  UNL     1      11.807  19.464  23.079  1.00  0.00    -0.081 NA
ENDBRANCH  17  19
ENDBRANCH  12  13
ENDBRANCH   9  12
ENDBRANCH   1   8
BRANCH   6  24
HETATM   24  C11 UNL     1      17.869  18.704  23.126  1.00  0.00     0.278 C 
BRANCH  24  25
HETATM   25  C12 UNL     1      18.325  19.369  24.406  1.00  0.00     0.047 C 
BRANCH  25  26
HETATM   26  C13 UNL     1      19.749  18.976  24.684  1.00  0.00    -0.012 C 
HETATM   27  C14 UNL     1      20.749  20.078  24.657  1.00  0.00     0.005 C 
HETATM   28  C15 UNL     1      20.802  20.722  26.039  1.00  0.00     0.000 C 
HETATM   29  C16 UNL     1      21.629  19.816  26.906  1.00  0.00     0.000 C 
HETATM   30  C17 UNL     1      21.300  18.378  26.494  1.00  0.00     0.000 C 
HETATM   31  C18 UNL     1      19.874  18.250  26.014  1.00  0.00     0.005 C 
ENDBRANCH  25  26
ENDBRANCH  24  25
BRANCH  24  32
HETATM   32  N4  UNL     1      16.833  17.772  23.472  1.00  0.00    -0.053 N 
ATOM     33  H42 UNL     1      16.595  17.857  24.460  1.00  0.00     0.278 HD
ATOM     34  H41 UNL     1      15.948  18.054  23.052  1.00  0.00     0.278 HD
BRANCH  32  35
HETATM   35  C19 UNL     1      17.123  16.422  23.149  1.00  0.00     0.345 C 
BRANCH  35  36
HETATM   36  C20 UNL     1      17.681  15.736  24.359  1.00  0.00     0.199 C 
HETATM   37  O3  UNL     1      18.701  15.040  24.221  1.00  0.00    -0.647 OA
HETATM   38  O4  UNL     1      17.090  15.859  25.615  1.00  0.00    -0.647 OA
ENDBRANCH  35  36
ENDBRANCH  32  35
ENDBRANCH  24  32
ENDBRANCH   6  24
TORSDOF 10
ENDMDL
