MODEL 7
REMARK VINA RESULT: -8.302571412      3.337      8.969
REMARK  10 active torsions:
REMARK  status: ('A' for Active; 'I' for Inactive)
REMARK    1  A    between atoms: C2_3  and  C3_4 
REMARK    2  A    between atoms: C3_4  and  N2_5 
REMARK       I    between atoms: N2_5  and  C4_7 
REMARK    3  A    between atoms: C4_7  and  C5_9 
REMARK       I    between atoms: N3_13  and  C9_14 
REMARK    4  A    between atoms: C9_14  and  C10_16 
REMARK    5  A    between atoms: C10_16  and  C11_17 
REMARK    6  A    between atoms: C10_16  and  N4_24 
REMARK    7  A    between atoms: C11_17  and  C12_18 
REMARK    8  A    between atoms: N4_24  and  C18_26 
REMARK    9  A    between atoms: C18_26  and  C19_27 
REMARK   10  A    between atoms: C22_32  and  C23_33 
ROOT
HETATM    1  C5  UNL     1      19.166  20.210  21.079  1.00  0.00     0.109 A 
HETATM    2  C6  UNL     1      19.920  20.880  20.089  1.00  0.00     0.037 A 
HETATM    3  C7  UNL     1      19.062  21.530  19.251  1.00  0.00     0.020 A 
HETATM    4  C8  UNL     1      17.798  21.271  19.705  1.00  0.00     0.100 A 
HETATM    5  N3  UNL     1      17.891  20.471  20.813  1.00  0.00    -0.286 N 
HETATM    6  C9  UNL     1      16.746  20.034  21.509  1.00  0.00     0.251 C 
HETATM    7  O2  UNL     1      16.776  19.321  22.555  1.00  0.00    -0.270 OA
ENDROOT
BRANCH   1   8
HETATM    8  C4  UNL     1      19.723  19.390  22.135  1.00  0.00     0.269 C 
HETATM    9  N2  UNL     1      19.679  19.782  23.528  1.00  0.00    -0.350 N 
ATOM     10  H2  UNL     1      19.236  20.656  23.810  1.00  0.00     0.163 HD
HETATM   11  O1  UNL     1      20.286  18.283  21.956  1.00  0.00    -0.266 OA
BRANCH   9  12
HETATM   12  C3  UNL     1      20.281  18.902  24.516  1.00  0.00     0.180 C 
BRANCH  12  13
HETATM   13  C2  UNL     1      21.727  19.007  24.656  1.00  0.00     0.029 A 
HETATM   14  N1  UNL     1      22.648  18.009  24.559  1.00  0.00    -0.351 N 
HETATM   15  C1  UNL     1      22.309  16.634  24.312  1.00  0.00     0.156 C 
HETATM   16  C22 UNL     1      23.891  18.484  24.734  1.00  0.00     0.075 A 
HETATM   17  C21 UNL     1      23.801  19.837  24.954  1.00  0.00     0.035 A 
HETATM   18  C20 UNL     1      22.436  20.157  24.903  1.00  0.00     0.029 A 
BRANCH  16  19
HETATM   19  C23 UNL     1      25.118  17.716  24.685  1.00  0.00     0.137 C 
HETATM   20  N5  UNL     1      25.662  17.233  25.774  1.00  0.00    -0.386 N 
ATOM     21  H52 UNL     1      25.168  17.424  26.645  1.00  0.00     0.157 HD
ATOM     22  H51 UNL     1      26.526  16.692  25.739  1.00  0.00     0.157 HD
HETATM   23  N6  UNL     1      25.807  17.451  23.471  1.00  0.00    -0.081 NA
ENDBRANCH  16  19
ENDBRANCH  12  13
ENDBRANCH   9  12
ENDBRANCH   1   8
BRANCH   6  24
HETATM   24  C10 UNL     1      15.320  20.360  21.085  1.00  0.00     0.171 C 
BRANCH  24  25
HETATM   25  C11 UNL     1      14.541  19.162  21.547  1.00  0.00     0.039 C 
BRANCH  25  26
HETATM   26  C12 UNL     1      13.859  18.357  20.516  1.00  0.00    -0.012 C 
HETATM   27  C13 UNL     1      12.366  18.445  20.582  1.00  0.00     0.005 C 
HETATM   28  C14 UNL     1      11.802  17.668  19.413  1.00  0.00     0.000 C 
HETATM   29  C15 UNL     1      12.812  16.847  18.669  1.00  0.00     0.000 C 
HETATM   30  C16 UNL     1      13.991  17.678  18.191  1.00  0.00     0.000 C 
HETATM   31  C17 UNL     1      14.237  18.844  19.103  1.00  0.00     0.005 C 
ENDBRANCH  25  26
ENDBRANCH  24  25
BRANCH  24  32
HETATM   32  N4  UNL     1      14.912  21.512  21.857  1.00  0.00    -0.400 N 
ATOM     33  H4  UNL     1      15.372  21.779  22.728  1.00  0.00     0.154 HD
BRANCH  32  34
HETATM   34  C18 UNL     1      13.816  22.251  21.310  1.00  0.00     0.228 C 
BRANCH  34  35
HETATM   35  C19 UNL     1      12.650  22.413  22.176  1.00  0.00     0.190 C 
HETATM   36  O3  UNL     1      12.410  21.580  23.075  1.00  0.00    -0.647 OA
HETATM   37  O4  UNL     1      11.760  23.482  22.045  1.00  0.00    -0.647 OA
ENDBRANCH  34  35
ENDBRANCH  32  34
ENDBRANCH  24  32
ENDBRANCH   6  24
TORSDOF 10
ENDMDL
