MODEL 4
REMARK VINA RESULT: -9.178578267      1.377      1.823
REMARK  10 active torsions:
REMARK  status: ('A' for Active; 'I' for Inactive)
REMARK    1  A    between atoms: C2_3  and  C3_4 
REMARK    2  A    between atoms: C3_4  and  N2_5 
REMARK       I    between atoms: N2_5  and  C4_7 
REMARK    3  A    between atoms: C4_7  and  C5_9 
REMARK       I    between atoms: N3_13  and  C9_14 
REMARK    4  A    between atoms: C9_14  and  C10_16 
REMARK    5  A    between atoms: C10_16  and  C11_17 
REMARK    6  A    between atoms: C10_16  and  N4_24 
REMARK    7  A    between atoms: C11_17  and  C12_18 
REMARK    8  A    between atoms: N4_24  and  C18_26 
REMARK    9  A    between atoms: C18_26  and  C19_27 
REMARK   10  A    between atoms: C22_32  and  C23_33 
ROOT
HETATM    1  C5  UNL     1      17.957  20.734  20.215  1.00  0.00     0.109 A 
HETATM    2  C6  UNL     1      19.110  21.283  19.611  1.00  0.00     0.037 A 
HETATM    3  C7  UNL     1      20.210  20.849  20.294  1.00  0.00     0.020 A 
HETATM    4  C8  UNL     1      19.753  20.049  21.304  1.00  0.00     0.100 A 
HETATM    5  N3  UNL     1      18.386  19.997  21.232  1.00  0.00    -0.286 N 
HETATM    6  C9  UNL     1      17.624  19.243  22.147  1.00  0.00     0.251 C 
HETATM    7  O2  UNL     1      16.363  19.134  22.107  1.00  0.00    -0.270 OA
ENDROOT
BRANCH   1   8
HETATM    8  C4  UNL     1      16.596  20.986  19.786  1.00  0.00     0.269 C 
HETATM    9  N2  UNL     1      15.675  21.792  20.559  1.00  0.00    -0.350 N 
ATOM     10  H2  UNL     1      15.968  22.224  21.435  1.00  0.00     0.163 HD
HETATM   11  O1  UNL     1      16.088  20.542  18.728  1.00  0.00    -0.266 OA
BRANCH   9  12
HETATM   12  C3  UNL     1      14.322  21.975  20.058  1.00  0.00     0.180 C 
BRANCH  12  13
HETATM   13  C2  UNL     1      13.365  22.517  21.013  1.00  0.00     0.029 A 
HETATM   14  N1  UNL     1      12.726  21.857  22.017  1.00  0.00    -0.351 N 
HETATM   15  C1  UNL     1      12.895  20.455  22.283  1.00  0.00     0.156 C 
HETATM   16  C22 UNL     1      11.924  22.687  22.703  1.00  0.00     0.075 A 
HETATM   17  C21 UNL     1      12.028  23.936  22.143  1.00  0.00     0.035 A 
HETATM   18  C20 UNL     1      12.937  23.820  21.080  1.00  0.00     0.029 A 
BRANCH  16  19
HETATM   19  C23 UNL     1      11.102  22.339  23.843  1.00  0.00     0.137 C 
HETATM   20  N5  UNL     1      10.197  21.395  23.766  1.00  0.00    -0.386 N 
ATOM     21  H52 UNL     1      10.116  20.923  22.866  1.00  0.00     0.157 HD
ATOM     22  H51 UNL     1       9.617  21.149  24.569  1.00  0.00     0.157 HD
HETATM   23  N6  UNL     1      11.214  22.996  25.097  1.00  0.00    -0.081 NA
ENDBRANCH  16  19
ENDBRANCH  12  13
ENDBRANCH   9  12
ENDBRANCH   1   8
BRANCH   6  24
HETATM   24  C10 UNL     1      18.224  18.465  23.311  1.00  0.00     0.171 C 
BRANCH  24  25
HETATM   25  C11 UNL     1      18.374  19.508  24.382  1.00  0.00     0.039 C 
BRANCH  25  26
HETATM   26  C12 UNL     1      19.736  19.778  24.881  1.00  0.00    -0.012 C 
HETATM   27  C13 UNL     1      19.833  19.789  26.374  1.00  0.00     0.005 C 
HETATM   28  C14 UNL     1      21.288  19.965  26.745  1.00  0.00     0.000 C 
HETATM   29  C15 UNL     1      22.184  20.314  25.594  1.00  0.00     0.000 C 
HETATM   30  C16 UNL     1      22.079  19.311  24.458  1.00  0.00     0.000 C 
HETATM   31  C17 UNL     1      20.716  18.683  24.413  1.00  0.00     0.005 C 
ENDBRANCH  25  26
ENDBRANCH  24  25
BRANCH  24  32
HETATM   32  N4  UNL     1      17.225  17.506  23.726  1.00  0.00    -0.400 N 
ATOM     33  H4  UNL     1      16.365  17.782  24.201  1.00  0.00     0.154 HD
BRANCH  32  34
HETATM   34  C18 UNL     1      17.530  16.142  23.423  1.00  0.00     0.228 C 
BRANCH  34  35
HETATM   35  C19 UNL     1      16.781  15.542  22.320  1.00  0.00     0.190 C 
HETATM   36  O3  UNL     1      15.876  14.712  22.550  1.00  0.00    -0.647 OA
HETATM   37  O4  UNL     1      17.033  15.856  20.983  1.00  0.00    -0.647 OA
ENDBRANCH  34  35
ENDBRANCH  32  34
ENDBRANCH  24  32
ENDBRANCH   6  24
TORSDOF 10
ENDMDL
