MODEL 5
REMARK VINA RESULT: -8.479182957      2.889      8.431
REMARK  10 active torsions:
REMARK  status: ('A' for Active; 'I' for Inactive)
REMARK    1  A    between atoms: C2_3  and  C3_4 
REMARK    2  A    between atoms: C3_4  and  N2_5 
REMARK       I    between atoms: N2_5  and  C4_7 
REMARK    3  A    between atoms: C4_7  and  C5_9 
REMARK       I    between atoms: N3_13  and  C9_14 
REMARK    4  A    between atoms: C9_14  and  C10_16 
REMARK    5  A    between atoms: C10_16  and  C11_17 
REMARK    6  A    between atoms: C10_16  and  N4_24 
REMARK    7  A    between atoms: C11_17  and  C12_18 
REMARK    8  A    between atoms: N4_24  and  C18_26 
REMARK    9  A    between atoms: C18_26  and  C19_27 
REMARK   10  A    between atoms: C22_32  and  C23_33 
ROOT
HETATM    1  C5  UNL     1      17.520  20.395  21.173  1.00  0.00     0.109 A 
HETATM    2  C6  UNL     1      18.403  20.738  20.125  1.00  0.00     0.037 A 
HETATM    3  C7  UNL     1      17.725  21.490  19.210  1.00  0.00     0.020 A 
HETATM    4  C8  UNL     1      16.445  21.612  19.675  1.00  0.00     0.100 A 
HETATM    5  N3  UNL     1      16.350  20.941  20.865  1.00  0.00    -0.286 N 
HETATM    6  C9  UNL     1      15.143  20.888  21.591  1.00  0.00     0.251 C 
HETATM    7  O2  UNL     1      15.007  20.309  22.709  1.00  0.00    -0.270 OA
ENDROOT
BRANCH   1   8
HETATM    8  C4  UNL     1      17.868  19.580  22.319  1.00  0.00     0.269 C 
HETATM    9  N2  UNL     1      18.100  20.144  23.632  1.00  0.00    -0.350 N 
ATOM     10  H2  UNL     1      18.011  21.148  23.791  1.00  0.00     0.163 HD
HETATM   11  O1  UNL     1      18.000  18.332  22.292  1.00  0.00    -0.266 OA
BRANCH   9  12
HETATM   12  C3  UNL     1      18.462  19.249  24.719  1.00  0.00     0.180 C 
BRANCH  12  13
HETATM   13  C2  UNL     1      19.770  19.481  25.315  1.00  0.00     0.029 A 
HETATM   14  N1  UNL     1      20.991  19.306  24.740  1.00  0.00    -0.351 N 
HETATM   15  C1  UNL     1      21.177  18.824  23.399  1.00  0.00     0.156 C 
HETATM   16  C22 UNL     1      21.975  19.633  25.592  1.00  0.00     0.075 A 
HETATM   17  C21 UNL     1      21.399  20.038  26.771  1.00  0.00     0.035 A 
HETATM   18  C20 UNL     1      20.011  19.939  26.588  1.00  0.00     0.029 A 
BRANCH  16  19
HETATM   19  C23 UNL     1      23.397  19.585  25.320  1.00  0.00     0.137 C 
HETATM   20  N5  UNL     1      24.083  18.480  25.476  1.00  0.00    -0.386 N 
ATOM     21  H52 UNL     1      23.556  17.665  25.789  1.00  0.00     0.157 HD
ATOM     22  H51 UNL     1      25.084  18.446  25.284  1.00  0.00     0.157 HD
HETATM   23  N6  UNL     1      24.132  20.720  24.885  1.00  0.00    -0.081 NA
ENDBRANCH  16  19
ENDBRANCH  12  13
ENDBRANCH   9  12
ENDBRANCH   1   8
BRANCH   6  24
HETATM   24  C10 UNL     1      13.840  21.518  21.117  1.00  0.00     0.171 C 
BRANCH  24  25
HETATM   25  C11 UNL     1      12.792  20.573  21.633  1.00  0.00     0.039 C 
BRANCH  25  26
HETATM   26  C12 UNL     1      12.475  19.393  20.806  1.00  0.00    -0.012 C 
HETATM   27  C13 UNL     1      13.440  19.174  19.684  1.00  0.00     0.005 C 
HETATM   28  C14 UNL     1      13.065  17.883  18.992  1.00  0.00     0.000 C 
HETATM   29  C15 UNL     1      11.748  17.309  19.423  1.00  0.00     0.000 C 
HETATM   30  C16 UNL     1      11.671  17.107  20.926  1.00  0.00     0.000 C 
HETATM   31  C17 UNL     1      12.527  18.104  21.651  1.00  0.00     0.005 C 
ENDBRANCH  25  26
ENDBRANCH  24  25
BRANCH  24  32
HETATM   32  N4  UNL     1      13.715  22.781  21.809  1.00  0.00    -0.400 N 
ATOM     33  H4  UNL     1      14.525  23.331  22.094  1.00  0.00     0.154 HD
BRANCH  32  34
HETATM   34  C18 UNL     1      12.372  23.203  22.063  1.00  0.00     0.228 C 
BRANCH  34  35
HETATM   35  C19 UNL     1      12.131  23.847  23.353  1.00  0.00     0.190 C 
HETATM   36  O3  UNL     1      11.263  23.398  24.131  1.00  0.00    -0.647 OA
HETATM   37  O4  UNL     1      12.839  24.975  23.773  1.00  0.00    -0.647 OA
ENDBRANCH  34  35
ENDBRANCH  32  34
ENDBRANCH  24  32
ENDBRANCH   6  24
TORSDOF 10
ENDMDL
