MODEL 8
REMARK VINA RESULT: -8.226823732      2.414      7.860
REMARK  10 active torsions:
REMARK  status: ('A' for Active; 'I' for Inactive)
REMARK    1  A    between atoms: C2_3  and  C3_4 
REMARK    2  A    between atoms: C3_4  and  N2_5 
REMARK       I    between atoms: N2_5  and  C4_7 
REMARK    3  A    between atoms: C4_7  and  C5_9 
REMARK       I    between atoms: N3_13  and  C9_14 
REMARK    4  A    between atoms: C9_14  and  C10_16 
REMARK    5  A    between atoms: C10_16  and  C11_17 
REMARK    6  A    between atoms: C10_16  and  N4_24 
REMARK    7  A    between atoms: C11_17  and  C12_18 
REMARK    8  A    between atoms: N4_24  and  C18_26 
REMARK    9  A    between atoms: C18_26  and  C19_27 
REMARK   10  A    between atoms: C22_32  and  C23_33 
ROOT
HETATM    1  C5  UNL     1      16.638  21.165  19.867  1.00  0.00     0.109 A 
HETATM    2  C6  UNL     1      16.688  21.487  18.492  1.00  0.00     0.037 A 
HETATM    3  C7  UNL     1      15.413  21.524  18.005  1.00  0.00     0.020 A 
HETATM    4  C8  UNL     1      14.585  21.229  19.053  1.00  0.00     0.100 A 
HETATM    5  N3  UNL     1      15.353  21.018  20.167  1.00  0.00    -0.286 N 
HETATM    6  C9  UNL     1      14.778  20.694  21.412  1.00  0.00     0.251 C 
HETATM    7  O2  UNL     1      15.437  20.520  22.479  1.00  0.00    -0.270 OA
ENDROOT
BRANCH   1   8
HETATM    8  C4  UNL     1      17.794  21.010  20.726  1.00  0.00     0.269 C 
HETATM    9  N2  UNL     1      18.293  19.712  21.129  1.00  0.00    -0.350 N 
ATOM     10  H2  UNL     1      17.843  18.856  20.804  1.00  0.00     0.163 HD
HETATM   11  O1  UNL     1      18.465  21.960  21.197  1.00  0.00    -0.266 OA
BRANCH   9  12
HETATM   12  C3  UNL     1      19.449  19.654  22.009  1.00  0.00     0.180 C 
BRANCH  12  13
HETATM   13  C2  UNL     1      19.199  19.132  23.345  1.00  0.00     0.029 A 
HETATM   14  N1  UNL     1      19.058  17.831  23.718  1.00  0.00    -0.351 N 
HETATM   15  C1  UNL     1      19.117  16.728  22.797  1.00  0.00     0.156 C 
HETATM   16  C22 UNL     1      18.849  17.730  25.040  1.00  0.00     0.075 A 
HETATM   17  C21 UNL     1      18.850  18.997  25.568  1.00  0.00     0.035 A 
HETATM   18  C20 UNL     1      19.071  19.874  24.494  1.00  0.00     0.029 A 
BRANCH  16  19
HETATM   19  C23 UNL     1      18.668  16.503  25.789  1.00  0.00     0.137 C 
HETATM   20  N5  UNL     1      19.657  15.960  26.454  1.00  0.00    -0.386 N 
ATOM     21  H52 UNL     1      20.548  16.455  26.417  1.00  0.00     0.157 HD
ATOM     22  H51 UNL     1      19.530  15.097  26.982  1.00  0.00     0.157 HD
HETATM   23  N6  UNL     1      17.428  15.813  25.841  1.00  0.00    -0.081 NA
ENDBRANCH  16  19
ENDBRANCH  12  13
ENDBRANCH   9  12
ENDBRANCH   1   8
BRANCH   6  24
HETATM   24  C10 UNL     1      13.283  20.505  21.632  1.00  0.00     0.171 C 
BRANCH  24  25
HETATM   25  C11 UNL     1      13.191  19.122  22.211  1.00  0.00     0.039 C 
BRANCH  25  26
HETATM   26  C12 UNL     1      12.414  18.120  21.457  1.00  0.00    -0.012 C 
HETATM   27  C13 UNL     1      12.159  18.511  20.035  1.00  0.00     0.005 C 
HETATM   28  C14 UNL     1      11.455  17.357  19.355  1.00  0.00     0.000 C 
HETATM   29  C15 UNL     1      10.996  16.275  20.286  1.00  0.00     0.000 C 
HETATM   30  C16 UNL     1      12.127  15.732  21.142  1.00  0.00     0.000 C 
HETATM   31  C17 UNL     1      13.173  16.780  21.386  1.00  0.00     0.005 C 
ENDBRANCH  25  26
ENDBRANCH  24  25
BRANCH  24  32
HETATM   32  N4  UNL     1      12.888  21.463  22.641  1.00  0.00    -0.400 N 
ATOM     33  H4  UNL     1      13.064  21.315  23.635  1.00  0.00     0.154 HD
BRANCH  32  34
HETATM   34  C18 UNL     1      12.234  22.634  22.143  1.00  0.00     0.228 C 
BRANCH  34  35
HETATM   35  C19 UNL     1      13.043  23.850  22.083  1.00  0.00     0.190 C 
HETATM   36  O3  UNL     1      13.132  24.599  23.079  1.00  0.00    -0.647 OA
HETATM   37  O4  UNL     1      13.741  24.232  20.935  1.00  0.00    -0.647 OA
ENDBRANCH  34  35
ENDBRANCH  32  34
ENDBRANCH  24  32
ENDBRANCH   6  24
TORSDOF 10
ENDMDL
