MODEL 14
REMARK VINA RESULT: -7.956597789      2.109      2.793
REMARK  10 active torsions:
REMARK  status: ('A' for Active; 'I' for Inactive)
REMARK    1  A    between atoms: C2_3  and  C3_4 
REMARK    2  A    between atoms: C3_4  and  N2_5 
REMARK       I    between atoms: N2_5  and  C4_7 
REMARK    3  A    between atoms: C4_7  and  C5_9 
REMARK       I    between atoms: N3_13  and  C9_14 
REMARK    4  A    between atoms: C9_14  and  C10_16 
REMARK    5  A    between atoms: C10_16  and  C11_17 
REMARK    6  A    between atoms: C10_16  and  N4_24 
REMARK    7  A    between atoms: C11_17  and  C12_18 
REMARK    8  A    between atoms: N4_24  and  C18_26 
REMARK    9  A    between atoms: C18_26  and  C19_27 
REMARK   10  A    between atoms: C22_32  and  C23_33 
ROOT
HETATM    1  C5  UNL     1      17.746  21.107  20.145  1.00  0.00     0.109 A 
HETATM    2  C6  UNL     1      19.003  21.531  19.660  1.00  0.00     0.037 A 
HETATM    3  C7  UNL     1      19.964  20.692  20.145  1.00  0.00     0.020 A 
HETATM    4  C8  UNL     1      19.321  19.764  20.917  1.00  0.00     0.100 A 
HETATM    5  N3  UNL     1      17.979  20.039  20.898  1.00  0.00    -0.286 N 
HETATM    6  C9  UNL     1      17.051  19.250  21.606  1.00  0.00     0.251 C 
HETATM    7  O2  UNL     1      15.799  19.439  21.598  1.00  0.00    -0.270 OA
ENDROOT
BRANCH   1   8
HETATM    8  C4  UNL     1      16.484  21.764  19.867  1.00  0.00     0.269 C 
HETATM    9  N2  UNL     1      15.614  22.251  20.916  1.00  0.00    -0.350 N 
ATOM     10  H2  UNL     1      15.877  22.155  21.897  1.00  0.00     0.163 HD
HETATM   11  O1  UNL     1      16.028  21.972  18.717  1.00  0.00    -0.266 OA
BRANCH   9  12
HETATM   12  C3  UNL     1      14.359  22.881  20.542  1.00  0.00     0.180 C 
BRANCH  12  13
HETATM   13  C2  UNL     1      13.430  23.132  21.635  1.00  0.00     0.029 A 
HETATM   14  N1  UNL     1      12.648  22.229  22.288  1.00  0.00    -0.351 N 
HETATM   15  C1  UNL     1      12.609  20.829  21.964  1.00  0.00     0.156 C 
HETATM   16  C22 UNL     1      11.927  22.824  23.251  1.00  0.00     0.075 A 
HETATM   17  C21 UNL     1      12.234  24.163  23.243  1.00  0.00     0.035 A 
HETATM   18  C20 UNL     1      13.180  24.348  22.224  1.00  0.00     0.029 A 
BRANCH  16  19
HETATM   19  C23 UNL     1      10.999  22.176  24.154  1.00  0.00     0.137 C 
HETATM   20  N5  UNL     1      10.068  21.369  23.709  1.00  0.00    -0.386 N 
ATOM     21  H52 UNL     1      10.045  21.224  22.700  1.00  0.00     0.157 HD
ATOM     22  H51 UNL     1       9.415  20.912  24.344  1.00  0.00     0.157 HD
HETATM   23  N6  UNL     1      11.031  22.377  25.559  1.00  0.00    -0.081 NA
ENDBRANCH  16  19
ENDBRANCH  12  13
ENDBRANCH   9  12
ENDBRANCH   1   8
BRANCH   6  24
HETATM   24  C10 UNL     1      17.440  18.065  22.481  1.00  0.00     0.171 C 
BRANCH  24  25
HETATM   25  C11 UNL     1      18.028  18.716  23.701  1.00  0.00     0.039 C 
BRANCH  25  26
HETATM   26  C12 UNL     1      18.483  17.832  24.790  1.00  0.00    -0.012 C 
HETATM   27  C13 UNL     1      19.892  17.354  24.621  1.00  0.00     0.005 C 
HETATM   28  C14 UNL     1      20.263  16.555  25.850  1.00  0.00     0.000 C 
HETATM   29  C15 UNL     1      19.112  16.251  26.763  1.00  0.00     0.000 C 
HETATM   30  C16 UNL     1      18.370  17.505  27.191  1.00  0.00     0.000 C 
HETATM   31  C17 UNL     1      18.461  18.574  26.141  1.00  0.00     0.005 C 
ENDBRANCH  25  26
ENDBRANCH  24  25
BRANCH  24  32
HETATM   32  N4  UNL     1      16.209  17.402  22.851  1.00  0.00    -0.400 N 
ATOM     33  H4  UNL     1      15.446  17.888  23.322  1.00  0.00     0.154 HD
BRANCH  32  34
HETATM   34  C18 UNL     1      16.141  16.016  22.507  1.00  0.00     0.228 C 
BRANCH  34  35
HETATM   35  C19 UNL     1      15.303  15.675  21.358  1.00  0.00     0.190 C 
HETATM   36  O3  UNL     1      15.357  14.534  20.853  1.00  0.00    -0.647 OA
HETATM   37  O4  UNL     1      14.420  16.588  20.776  1.00  0.00    -0.647 OA
ENDBRANCH  34  35
ENDBRANCH  32  34
ENDBRANCH  24  32
ENDBRANCH   6  24
TORSDOF 10
ENDMDL
