MODEL 3
REMARK VINA RESULT: -9.286096452      0.846      1.315
REMARK  10 active torsions:
REMARK  status: ('A' for Active; 'I' for Inactive)
REMARK    1  A    between atoms: C2_3  and  C3_4 
REMARK    2  A    between atoms: C3_4  and  N2_5 
REMARK       I    between atoms: N2_5  and  C4_7 
REMARK    3  A    between atoms: C4_7  and  C5_9 
REMARK       I    between atoms: N3_13  and  C9_14 
REMARK    4  A    between atoms: C9_14  and  C10_16 
REMARK    5  A    between atoms: C10_16  and  C11_17 
REMARK    6  A    between atoms: C10_16  and  N4_24 
REMARK    7  A    between atoms: C11_17  and  C12_18 
REMARK    8  A    between atoms: N4_24  and  C18_26 
REMARK    9  A    between atoms: C18_26  and  C19_27 
REMARK   10  A    between atoms: C22_32  and  C23_33 
ROOT
HETATM    1  C5  UNL     1      17.967  20.794  20.273  1.00  0.00     0.109 A 
HETATM    2  C6  UNL     1      19.123  21.325  19.659  1.00  0.00     0.037 A 
HETATM    3  C7  UNL     1      20.222  20.865  20.324  1.00  0.00     0.020 A 
HETATM    4  C8  UNL     1      19.763  20.066  21.334  1.00  0.00     0.100 A 
HETATM    5  N3  UNL     1      18.395  20.040  21.279  1.00  0.00    -0.286 N 
HETATM    6  C9  UNL     1      17.631  19.293  22.198  1.00  0.00     0.251 C 
HETATM    7  O2  UNL     1      16.367  19.209  22.174  1.00  0.00    -0.270 OA
ENDROOT
BRANCH   1   8
HETATM    8  C4  UNL     1      16.605  21.074  19.864  1.00  0.00     0.269 C 
HETATM    9  N2  UNL     1      15.713  21.901  20.648  1.00  0.00    -0.350 N 
ATOM     10  H2  UNL     1      16.029  22.327  21.520  1.00  0.00     0.163 HD
HETATM   11  O1  UNL     1      16.073  20.639  18.814  1.00  0.00    -0.266 OA
BRANCH   9  12
HETATM   12  C3  UNL     1      14.358  22.112  20.168  1.00  0.00     0.180 C 
BRANCH  12  13
HETATM   13  C2  UNL     1      13.408  22.602  21.156  1.00  0.00     0.029 A 
HETATM   14  N1  UNL     1      12.742  21.881  22.100  1.00  0.00    -0.351 N 
HETATM   15  C1  UNL     1      12.870  20.458  22.252  1.00  0.00     0.156 C 
HETATM   16  C22 UNL     1      11.956  22.675  22.845  1.00  0.00     0.075 A 
HETATM   17  C21 UNL     1      12.100  23.962  22.389  1.00  0.00     0.035 A 
HETATM   18  C20 UNL     1      13.015  23.907  21.326  1.00  0.00     0.029 A 
BRANCH  16  19
HETATM   19  C23 UNL     1      11.115  22.259  23.947  1.00  0.00     0.137 C 
HETATM   20  N5  UNL     1      10.189  21.346  23.790  1.00  0.00    -0.386 N 
ATOM     21  H52 UNL     1      10.107  20.947  22.855  1.00  0.00     0.157 HD
ATOM     22  H51 UNL     1       9.596  21.053  24.566  1.00  0.00     0.157 HD
HETATM   23  N6  UNL     1      11.229  22.814  25.250  1.00  0.00    -0.081 NA
ENDBRANCH  16  19
ENDBRANCH  12  13
ENDBRANCH   9  12
ENDBRANCH   1   8
BRANCH   6  24
HETATM   24  C10 UNL     1      18.231  18.495  23.348  1.00  0.00     0.171 C 
BRANCH  24  25
HETATM   25  C11 UNL     1      18.405  19.524  24.428  1.00  0.00     0.039 C 
BRANCH  25  26
HETATM   26  C12 UNL     1      19.774  19.763  24.924  1.00  0.00    -0.012 C 
HETATM   27  C13 UNL     1      19.864  19.832  26.417  1.00  0.00     0.005 C 
HETATM   28  C14 UNL     1      21.323  19.969  26.789  1.00  0.00     0.000 C 
HETATM   29  C15 UNL     1      22.237  20.235  25.630  1.00  0.00     0.000 C 
HETATM   30  C16 UNL     1      22.100  19.192  24.536  1.00  0.00     0.000 C 
HETATM   31  C17 UNL     1      20.714  18.614  24.508  1.00  0.00     0.005 C 
ENDBRANCH  25  26
ENDBRANCH  24  25
BRANCH  24  32
HETATM   32  N4  UNL     1      17.223  17.546  23.763  1.00  0.00    -0.400 N 
ATOM     33  H4  UNL     1      16.225  17.754  23.722  1.00  0.00     0.154 HD
BRANCH  32  34
HETATM   34  C18 UNL     1      17.727  16.293  24.235  1.00  0.00     0.228 C 
BRANCH  34  35
HETATM   35  C19 UNL     1      17.510  16.002  25.651  1.00  0.00     0.190 C 
HETATM   36  O3  UNL     1      16.716  15.102  25.997  1.00  0.00    -0.647 OA
HETATM   37  O4  UNL     1      18.164  16.699  26.669  1.00  0.00    -0.647 OA
ENDBRANCH  34  35
ENDBRANCH  32  34
ENDBRANCH  24  32
ENDBRANCH   6  24
TORSDOF 10
ENDMDL
