MODEL 2
REMARK VINA RESULT: -9.495867838      1.117      1.322
REMARK  10 active torsions:
REMARK  status: ('A' for Active; 'I' for Inactive)
REMARK    1  A    between atoms: C2_3  and  C3_4 
REMARK    2  A    between atoms: C3_4  and  N2_5 
REMARK       I    between atoms: N2_5  and  C4_7 
REMARK    3  A    between atoms: C4_7  and  C5_9 
REMARK       I    between atoms: N3_13  and  C9_14 
REMARK    4  A    between atoms: C9_14  and  C10_16 
REMARK    5  A    between atoms: C10_16  and  C11_17 
REMARK    6  A    between atoms: C10_16  and  N4_24 
REMARK    7  A    between atoms: C11_17  and  C12_18 
REMARK    8  A    between atoms: N4_24  and  C18_26 
REMARK    9  A    between atoms: C18_26  and  C19_27 
REMARK   10  A    between atoms: C22_32  and  C23_33 
ROOT
HETATM    1  C5  UNL     1      17.899  21.087  20.379  1.00  0.00     0.109 A 
HETATM    2  C6  UNL     1      19.029  21.354  19.574  1.00  0.00     0.037 A 
HETATM    3  C7  UNL     1      20.090  20.648  20.062  1.00  0.00     0.020 A 
HETATM    4  C8  UNL     1      19.634  19.957  21.151  1.00  0.00     0.100 A 
HETATM    5  N3  UNL     1      18.305  20.241  21.318  1.00  0.00    -0.286 N 
HETATM    6  C9  UNL     1      17.553  19.672  22.366  1.00  0.00     0.251 C 
HETATM    7  O2  UNL     1      16.316  19.874  22.548  1.00  0.00    -0.270 OA
ENDROOT
BRANCH   1   8
HETATM    8  C4  UNL     1      16.587  21.673  20.191  1.00  0.00     0.269 C 
HETATM    9  N2  UNL     1      15.391  20.870  20.049  1.00  0.00    -0.350 N 
ATOM     10  H2  UNL     1      15.439  19.852  20.090  1.00  0.00     0.163 HD
HETATM   11  O1  UNL     1      16.359  22.905  20.133  1.00  0.00    -0.266 OA
BRANCH   9  12
HETATM   12  C3  UNL     1      14.121  21.546  19.845  1.00  0.00     0.180 C 
BRANCH  12  13
HETATM   13  C2  UNL     1      13.251  21.619  21.011  1.00  0.00     0.029 A 
HETATM   14  N1  UNL     1      12.936  22.719  21.747  1.00  0.00    -0.351 N 
HETATM   15  C1  UNL     1      13.457  24.032  21.480  1.00  0.00     0.156 C 
HETATM   16  C22 UNL     1      12.094  22.405  22.744  1.00  0.00     0.075 A 
HETATM   17  C21 UNL     1      11.837  21.058  22.674  1.00  0.00     0.035 A 
HETATM   18  C20 UNL     1      12.569  20.571  21.581  1.00  0.00     0.029 A 
BRANCH  16  19
HETATM   19  C23 UNL     1      11.536  23.322  23.717  1.00  0.00     0.137 C 
HETATM   20  N5  UNL     1      10.452  23.024  24.389  1.00  0.00    -0.386 N 
ATOM     21  H52 UNL     1      10.037  22.113  24.190  1.00  0.00     0.157 HD
ATOM     22  H51 UNL     1      10.059  23.669  25.074  1.00  0.00     0.157 HD
HETATM   23  N6  UNL     1      12.113  24.590  23.993  1.00  0.00    -0.081 NA
ENDBRANCH  16  19
ENDBRANCH  12  13
ENDBRANCH   9  12
ENDBRANCH   1   8
BRANCH   6  24
HETATM   24  C10 UNL     1      18.137  18.741  23.420  1.00  0.00     0.171 C 
BRANCH  24  25
HETATM   25  C11 UNL     1      18.431  19.663  24.569  1.00  0.00     0.039 C 
BRANCH  25  26
HETATM   26  C12 UNL     1      19.845  19.845  24.948  1.00  0.00    -0.012 C 
HETATM   27  C13 UNL     1      20.062  19.903  26.428  1.00  0.00     0.005 C 
HETATM   28  C14 UNL     1      21.552  19.981  26.677  1.00  0.00     0.000 C 
HETATM   29  C15 UNL     1      22.375  20.217  25.446  1.00  0.00     0.000 C 
HETATM   30  C16 UNL     1      22.105  19.185  24.365  1.00  0.00     0.000 C 
HETATM   31  C17 UNL     1      20.701  18.663  24.452  1.00  0.00     0.005 C 
ENDBRANCH  25  26
ENDBRANCH  24  25
BRANCH  24  32
HETATM   32  N4  UNL     1      17.078  17.835  23.805  1.00  0.00    -0.400 N 
ATOM     33  H4  UNL     1      16.459  18.020  24.595  1.00  0.00     0.154 HD
BRANCH  32  34
HETATM   34  C18 UNL     1      16.960  16.661  22.996  1.00  0.00     0.228 C 
BRANCH  34  35
HETATM   35  C19 UNL     1      15.614  16.325  22.536  1.00  0.00     0.190 C 
HETATM   36  O3  UNL     1      15.393  16.128  21.322  1.00  0.00    -0.647 OA
HETATM   37  O4  UNL     1      14.529  16.211  23.407  1.00  0.00    -0.647 OA
ENDBRANCH  34  35
ENDBRANCH  32  34
ENDBRANCH  24  32
ENDBRANCH   6  24
TORSDOF 10
ENDMDL
