MODEL 1
REMARK VINA RESULT: -9.514428550      0.000      0.000
REMARK  10 active torsions:
REMARK  status: ('A' for Active; 'I' for Inactive)
REMARK    1  A    between atoms: C2_3  and  C3_4 
REMARK    2  A    between atoms: C3_4  and  N2_5 
REMARK       I    between atoms: N2_5  and  C4_7 
REMARK    3  A    between atoms: C4_7  and  C5_9 
REMARK       I    between atoms: N3_13  and  C9_14 
REMARK    4  A    between atoms: C9_14  and  C10_16 
REMARK    5  A    between atoms: C10_16  and  C11_17 
REMARK    6  A    between atoms: C10_16  and  N4_24 
REMARK    7  A    between atoms: C11_17  and  C12_18 
REMARK    8  A    between atoms: N4_24  and  C18_26 
REMARK    9  A    between atoms: C18_26  and  C19_27 
REMARK   10  A    between atoms: C22_32  and  C23_33 
ROOT
HETATM    1  C5  UNL     1      17.883  21.108  20.293  1.00  0.00     0.109 A 
HETATM    2  C6  UNL     1      19.009  21.410  19.495  1.00  0.00     0.037 A 
HETATM    3  C7  UNL     1      20.084  20.719  19.975  1.00  0.00     0.020 A 
HETATM    4  C8  UNL     1      19.639  20.002  21.052  1.00  0.00     0.100 A 
HETATM    5  N3  UNL     1      18.303  20.256  21.220  1.00  0.00    -0.286 N 
HETATM    6  C9  UNL     1      17.560  19.655  22.256  1.00  0.00     0.251 C 
HETATM    7  O2  UNL     1      16.319  19.829  22.438  1.00  0.00    -0.270 OA
ENDROOT
BRANCH   1   8
HETATM    8  C4  UNL     1      16.560  21.670  20.109  1.00  0.00     0.269 C 
HETATM    9  N2  UNL     1      15.375  20.846  20.001  1.00  0.00    -0.350 N 
ATOM     10  H2  UNL     1      15.438  19.829  20.065  1.00  0.00     0.163 HD
HETATM   11  O1  UNL     1      16.312  22.897  20.027  1.00  0.00    -0.266 OA
BRANCH   9  12
HETATM   12  C3  UNL     1      14.091  21.497  19.799  1.00  0.00     0.180 C 
BRANCH  12  13
HETATM   13  C2  UNL     1      13.233  21.576  20.973  1.00  0.00     0.029 A 
HETATM   14  N1  UNL     1      12.919  22.681  21.704  1.00  0.00    -0.351 N 
HETATM   15  C1  UNL     1      13.432  23.994  21.421  1.00  0.00     0.156 C 
HETATM   16  C22 UNL     1      12.088  22.371  22.711  1.00  0.00     0.075 A 
HETATM   17  C21 UNL     1      11.838  21.022  22.655  1.00  0.00     0.035 A 
HETATM   18  C20 UNL     1      12.561  20.530  21.558  1.00  0.00     0.029 A 
BRANCH  16  19
HETATM   19  C23 UNL     1      11.535  23.293  23.682  1.00  0.00     0.137 C 
HETATM   20  N5  UNL     1      10.478  22.982  24.390  1.00  0.00    -0.386 N 
ATOM     21  H52 UNL     1      10.080  22.059  24.221  1.00  0.00     0.157 HD
ATOM     22  H51 UNL     1      10.089  23.631  25.074  1.00  0.00     0.157 HD
HETATM   23  N6  UNL     1      12.089  24.579  23.918  1.00  0.00    -0.081 NA
ENDBRANCH  16  19
ENDBRANCH  12  13
ENDBRANCH   9  12
ENDBRANCH   1   8
BRANCH   6  24
HETATM   24  C10 UNL     1      18.160  18.721  23.298  1.00  0.00     0.171 C 
BRANCH  24  25
HETATM   25  C11 UNL     1      18.397  19.623  24.475  1.00  0.00     0.039 C 
BRANCH  25  26
HETATM   26  C12 UNL     1      19.793  19.825  24.907  1.00  0.00    -0.012 C 
HETATM   27  C13 UNL     1      19.973  19.761  26.391  1.00  0.00     0.005 C 
HETATM   28  C14 UNL     1      21.452  19.874  26.686  1.00  0.00     0.000 C 
HETATM   29  C15 UNL     1      22.293  20.248  25.502  1.00  0.00     0.000 C 
HETATM   30  C16 UNL     1      22.091  19.306  24.329  1.00  0.00     0.000 C 
HETATM   31  C17 UNL     1      20.707  18.724  24.333  1.00  0.00     0.005 C 
ENDBRANCH  25  26
ENDBRANCH  24  25
BRANCH  24  32
HETATM   32  N4  UNL     1      17.131  17.764  23.638  1.00  0.00    -0.400 N 
ATOM     33  H4  UNL     1      16.137  17.987  23.583  1.00  0.00     0.154 HD
BRANCH  32  34
HETATM   34  C18 UNL     1      17.608  16.483  24.058  1.00  0.00     0.228 C 
BRANCH  34  35
HETATM   35  C19 UNL     1      17.371  16.132  25.457  1.00  0.00     0.190 C 
HETATM   36  O3  UNL     1      16.484  15.307  25.760  1.00  0.00    -0.647 OA
HETATM   37  O4  UNL     1      18.107  16.689  26.505  1.00  0.00    -0.647 OA
ENDBRANCH  34  35
ENDBRANCH  32  34
ENDBRANCH  24  32
ENDBRANCH   6  24
TORSDOF 10
ENDMDL
