MODEL 15
REMARK VINA RESULT: -6.277805715      6.040      7.334
REMARK  7 active torsions:
REMARK  status: ('A' for Active; 'I' for Inactive)
REMARK    1  A    between atoms: N5_13  and  C6_14 
REMARK    2  A    between atoms: C7_16  and  C8_17 
REMARK    3  A    between atoms: C8_17  and  O2_18 
REMARK    4  A    between atoms: O2_18  and  P1_19 
REMARK    5  A    between atoms: C9_23  and  O6_24 
REMARK    6  A    between atoms: O6_24  and  P2_25 
REMARK    7  A    between atoms: C10_29  and  O10_30 
ROOT
HETATM    1  C6  UNL     1      38.777   4.459  17.509  1.00  0.00     0.262 C 
HETATM    2  O1  UNL     1      37.772   5.047  16.751  1.00  0.00    -0.353 OA
HETATM    3  C7  UNL     1      38.466   5.430  15.605  1.00  0.00     0.181 C 
HETATM    4  C9  UNL     1      39.527   4.383  15.331  1.00  0.00     0.199 C 
HETATM    5  C10 UNL     1      39.288   3.453  16.465  1.00  0.00     0.199 C 
ENDROOT
BRANCH   1   6
HETATM    6  N5  UNL     1      38.297   3.796  18.682  1.00  0.00    -0.297 N 
HETATM    7  C3  UNL     1      37.373   4.314  19.512  1.00  0.00     0.142 A 
HETATM    8  N3  UNL     1      36.671   5.481  19.528  1.00  0.00    -0.336 N 
HETATM    9  C4  UNL     1      37.111   3.454  20.550  1.00  0.00     0.119 A 
HETATM   10  C2  UNL     1      35.790   5.748  20.501  1.00  0.00     0.183 A 
ATOM     11  H3  UNL     1      36.818   6.165  18.786  1.00  0.00     0.168 HD
HETATM   12  N2  UNL     1      35.545   4.905  21.501  1.00  0.00    -0.339 N 
HETATM   13  C1  UNL     1      36.199   3.734  21.552  1.00  0.00     0.148 A 
ATOM     14  H2  UNL     1      34.866   5.147  22.223  1.00  0.00     0.167 HD
HETATM   15  N1  UNL     1      35.947   2.829  22.609  1.00  0.00    -0.080 NA
HETATM   16  N4  UNL     1      37.902   2.387  20.334  1.00  0.00    -0.346 N 
HETATM   17  C5  UNL     1      38.615   2.608  19.198  1.00  0.00     0.188 A 
ATOM     18  H4  UNL     1      37.957   1.556  20.922  1.00  0.00     0.167 HD
ENDBRANCH   1   6
BRANCH   5  19
HETATM   19  O10 UNL     1      40.313   2.691  16.886  1.00  0.00    -0.388 OA
ATOM     20  H10 UNL     1      40.462   1.913  16.361  1.00  0.00     0.210 HD
ENDBRANCH   5  19
BRANCH   3  21
HETATM   21  C8  UNL     1      37.521   5.581  14.425  1.00  0.00     0.217 C 
BRANCH  21  22
HETATM   22  O2  UNL     1      36.511   4.675  14.591  1.00  0.00    -0.280 OA
BRANCH  22  23
HETATM   23  P1  UNL     1      36.235   3.611  13.387  1.00  0.00     0.422 P 
HETATM   24  O3  UNL     1      37.123   3.809  11.937  1.00  0.00    -0.617 OA
HETATM   25  O4  UNL     1      35.318   2.286  13.548  1.00  0.00    -0.617 OA
HETATM   26  O5  UNL     1      35.165   4.512  12.755  1.00  0.00    -0.617 OA
ENDBRANCH  22  23
ENDBRANCH  21  22
ENDBRANCH   3  21
BRANCH   4  27
HETATM   27  O6  UNL     1      40.711   5.011  15.270  1.00  0.00    -0.272 OA
BRANCH  27  28
HETATM   28  P2  UNL     1      41.781   4.666  14.209  1.00  0.00     0.422 P 
HETATM   29  O7  UNL     1      40.504   4.053  13.286  1.00  0.00    -0.617 OA
HETATM   30  O8  UNL     1      42.702   4.583  12.987  1.00  0.00    -0.617 OA
HETATM   31  O9  UNL     1      42.587   3.659  15.161  1.00  0.00    -0.617 OA
ENDBRANCH  27  28
ENDBRANCH   4  27
TORSDOF 7
ENDMDL
