MODEL 18
REMARK VINA RESULT: -6.233580663      6.787      8.240
REMARK  7 active torsions:
REMARK  status: ('A' for Active; 'I' for Inactive)
REMARK    1  A    between atoms: N5_13  and  C6_14 
REMARK    2  A    between atoms: C7_16  and  C8_17 
REMARK    3  A    between atoms: C8_17  and  O2_18 
REMARK    4  A    between atoms: O2_18  and  P1_19 
REMARK    5  A    between atoms: C9_23  and  O6_24 
REMARK    6  A    between atoms: O6_24  and  P2_25 
REMARK    7  A    between atoms: C10_29  and  O10_30 
ROOT
HETATM    1  C6  UNL     1      37.965   5.639  17.366  1.00  0.00     0.262 C 
HETATM    2  O1  UNL     1      37.322   5.234  16.203  1.00  0.00    -0.353 OA
HETATM    3  C7  UNL     1      37.831   6.132  15.267  1.00  0.00     0.181 C 
HETATM    4  C9  UNL     1      39.271   6.424  15.637  1.00  0.00     0.199 C 
HETATM    5  C10 UNL     1      39.414   5.583  16.853  1.00  0.00     0.199 C 
ENDROOT
BRANCH   1   6
HETATM    6  N5  UNL     1      37.767   4.751  18.470  1.00  0.00    -0.297 N 
HETATM    7  C3  UNL     1      36.891   4.976  19.465  1.00  0.00     0.142 A 
HETATM    8  N3  UNL     1      36.010   5.980  19.736  1.00  0.00    -0.336 N 
HETATM    9  C4  UNL     1      36.920   3.954  20.383  1.00  0.00     0.119 A 
HETATM   10  C2  UNL     1      35.238   5.949  20.830  1.00  0.00     0.183 A 
ATOM     11  H3  UNL     1      35.938   6.769  19.095  1.00  0.00     0.168 HD
HETATM   12  N2  UNL     1      35.276   4.952  21.711  1.00  0.00    -0.339 N 
HETATM   13  C1  UNL     1      36.119   3.927  21.511  1.00  0.00     0.148 A 
ATOM     14  H2  UNL     1      34.671   4.968  22.531  1.00  0.00     0.167 HD
HETATM   15  N1  UNL     1      36.169   2.862  22.439  1.00  0.00    -0.080 NA
HETATM   16  N4  UNL     1      37.843   3.091  19.922  1.00  0.00    -0.346 N 
HETATM   17  C5  UNL     1      38.348   3.586  18.761  1.00  0.00     0.188 A 
ATOM     18  H4  UNL     1      38.117   2.215  20.366  1.00  0.00     0.167 HD
ENDBRANCH   1   6
BRANCH   5  19
HETATM   19  O10 UNL     1      40.337   5.939  17.764  1.00  0.00    -0.388 OA
ATOM     20  H10 UNL     1      40.944   6.606  17.465  1.00  0.00     0.210 HD
ENDBRANCH   5  19
BRANCH   3  21
HETATM   21  C8  UNL     1      37.724   5.568  13.860  1.00  0.00     0.217 C 
BRANCH  21  22
HETATM   22  O2  UNL     1      37.335   4.263  13.972  1.00  0.00    -0.280 OA
BRANCH  22  23
HETATM   23  P1  UNL     1      35.847   3.862  13.440  1.00  0.00     0.422 P 
HETATM   24  O3  UNL     1      35.384   2.218  13.550  1.00  0.00    -0.617 OA
HETATM   25  O4  UNL     1      34.729   4.945  12.992  1.00  0.00    -0.617 OA
HETATM   26  O5  UNL     1      36.371   3.532  12.036  1.00  0.00    -0.617 OA
ENDBRANCH  22  23
ENDBRANCH  21  22
ENDBRANCH   3  21
BRANCH   4  27
HETATM   27  O6  UNL     1      39.396   7.752  15.770  1.00  0.00    -0.272 OA
BRANCH  27  28
HETATM   28  P2  UNL     1      40.192   8.618  14.768  1.00  0.00     0.422 P 
HETATM   29  O7  UNL     1      38.689   9.197  14.251  1.00  0.00    -0.617 OA
HETATM   30  O8  UNL     1      40.890   9.732  13.980  1.00  0.00    -0.617 OA
HETATM   31  O9  UNL     1      40.834   7.368  13.998  1.00  0.00    -0.617 OA
ENDBRANCH  27  28
ENDBRANCH   4  27
TORSDOF 7
ENDMDL
