MODEL 1
REMARK VINA RESULT: -6.866814506      0.000      0.000
REMARK  7 active torsions:
REMARK  status: ('A' for Active; 'I' for Inactive)
REMARK    1  A    between atoms: N5_13  and  C6_14 
REMARK    2  A    between atoms: C7_16  and  C8_17 
REMARK    3  A    between atoms: C8_17  and  O2_18 
REMARK    4  A    between atoms: O2_18  and  P1_19 
REMARK    5  A    between atoms: C9_23  and  O6_24 
REMARK    6  A    between atoms: O6_24  and  P2_25 
REMARK    7  A    between atoms: C10_29  and  O10_30 
ROOT
HETATM    1  C6  UNL     1      39.241  -0.818  13.233  1.00  0.00     0.262 C 
HETATM    2  O1  UNL     1      38.734   0.202  14.027  1.00  0.00    -0.353 OA
HETATM    3  C7  UNL     1      39.707   1.190  13.877  1.00  0.00     0.181 C 
HETATM    4  C9  UNL     1      40.236   1.112  12.460  1.00  0.00     0.199 C 
HETATM    5  C10 UNL     1      39.431  -0.019  11.932  1.00  0.00     0.199 C 
ENDROOT
BRANCH   1   6
HETATM    6  N5  UNL     1      38.332  -1.908  13.049  1.00  0.00    -0.297 N 
HETATM    7  C3  UNL     1      37.184  -1.816  12.354  1.00  0.00     0.142 A 
HETATM    8  N3  UNL     1      36.569  -0.804  11.679  1.00  0.00    -0.336 N 
HETATM    9  C4  UNL     1      36.519  -3.018  12.348  1.00  0.00     0.119 A 
HETATM   10  C2  UNL     1      35.396  -0.995  11.060  1.00  0.00     0.183 A 
ATOM     11  H3  UNL     1      37.009   0.115  11.644  1.00  0.00     0.168 HD
HETATM   12  N2  UNL     1      34.763  -2.165  11.062  1.00  0.00    -0.339 N 
HETATM   13  C1  UNL     1      35.308  -3.209  11.706  1.00  0.00     0.148 A 
ATOM     14  H2  UNL     1      33.872  -2.268  10.578  1.00  0.00     0.167 HD
HETATM   15  N1  UNL     1      34.646  -4.458  11.715  1.00  0.00    -0.080 NA
HETATM   16  N4  UNL     1      37.294  -3.855  13.061  1.00  0.00    -0.346 N 
HETATM   17  C5  UNL     1      38.390  -3.168  13.479  1.00  0.00     0.188 A 
ATOM     18  H4  UNL     1      37.094  -4.835  13.254  1.00  0.00     0.167 HD
ENDBRANCH   1   6
BRANCH   5  19
HETATM   19  O10 UNL     1      39.936  -0.735  10.912  1.00  0.00    -0.388 OA
ATOM     20  H10 UNL     1      40.770  -1.148  11.100  1.00  0.00     0.210 HD
ENDBRANCH   5  19
BRANCH   3  21
HETATM   21  C8  UNL     1      39.133   2.564  14.179  1.00  0.00     0.217 C 
BRANCH  21  22
HETATM   22  O2  UNL     1      37.772   2.443  14.205  1.00  0.00    -0.280 OA
BRANCH  22  23
HETATM   23  P1  UNL     1      36.907   3.317  13.133  1.00  0.00     0.422 P 
HETATM   24  O3  UNL     1      35.230   3.492  13.427  1.00  0.00    -0.617 OA
HETATM   25  O4  UNL     1      37.567   4.171  11.926  1.00  0.00    -0.617 OA
HETATM   26  O5  UNL     1      36.547   2.070  12.315  1.00  0.00    -0.617 OA
ENDBRANCH  22  23
ENDBRANCH  21  22
ENDBRANCH   3  21
BRANCH   4  27
HETATM   27  O6  UNL     1      41.566   0.960  12.531  1.00  0.00    -0.272 OA
BRANCH  27  28
HETATM   28  P2  UNL     1      42.555   2.025  12.006  1.00  0.00     0.422 P 
HETATM   29  O7  UNL     1      42.035   1.581  10.460  1.00  0.00    -0.617 OA
HETATM   30  O8  UNL     1      43.251   3.256  11.416  1.00  0.00    -0.617 OA
HETATM   31  O9  UNL     1      43.854   1.307  12.610  1.00  0.00    -0.617 OA
ENDBRANCH  27  28
ENDBRANCH   4  27
TORSDOF 7
ENDMDL
