MODEL 3
REMARK VINA RESULT: -6.739705216      3.786      6.752
REMARK  7 active torsions:
REMARK  status: ('A' for Active; 'I' for Inactive)
REMARK    1  A    between atoms: N5_13  and  C6_14 
REMARK    2  A    between atoms: C7_16  and  C8_17 
REMARK    3  A    between atoms: C8_17  and  O2_18 
REMARK    4  A    between atoms: O2_18  and  P1_19 
REMARK    5  A    between atoms: C9_23  and  O6_24 
REMARK    6  A    between atoms: O6_24  and  P2_25 
REMARK    7  A    between atoms: C10_29  and  O10_30 
ROOT
HETATM    1  C6  UNL     1      37.037   0.426  13.137  1.00  0.00     0.262 C 
HETATM    2  O1  UNL     1      38.071  -0.140  13.873  1.00  0.00    -0.353 OA
HETATM    3  C7  UNL     1      37.854  -1.502  13.668  1.00  0.00     0.181 C 
HETATM    4  C9  UNL     1      37.332  -1.683  12.257  1.00  0.00     0.199 C 
HETATM    5  C10 UNL     1      37.307  -0.272  11.793  1.00  0.00     0.199 C 
ENDROOT
BRANCH   1   6
HETATM    6  N5  UNL     1      37.133   1.849  13.014  1.00  0.00    -0.297 N 
HETATM    7  C3  UNL     1      38.278   2.502  12.748  1.00  0.00     0.142 A 
HETATM    8  N3  UNL     1      39.563   2.103  12.533  1.00  0.00    -0.336 N 
HETATM    9  C4  UNL     1      38.064   3.858  12.690  1.00  0.00     0.119 A 
HETATM   10  C2  UNL     1      40.533   2.992  12.283  1.00  0.00     0.183 A 
ATOM     11  H3  UNL     1      39.790   1.110  12.562  1.00  0.00     0.168 HD
HETATM   12  N2  UNL     1      40.312   4.304  12.229  1.00  0.00    -0.339 N 
HETATM   13  C1  UNL     1      39.071   4.772  12.430  1.00  0.00     0.148 A 
ATOM     14  H2  UNL     1      41.079   4.947  12.036  1.00  0.00     0.167 HD
HETATM   15  N1  UNL     1      38.822   6.162  12.375  1.00  0.00    -0.080 NA
HETATM   16  N4  UNL     1      36.750   4.020  12.928  1.00  0.00    -0.346 N 
HETATM   17  C5  UNL     1      36.198   2.793  13.123  1.00  0.00     0.188 A 
ATOM     18  H4  UNL     1      36.253   4.910  12.957  1.00  0.00     0.167 HD
ENDBRANCH   1   6
BRANCH   5  19
HETATM   19  O10 UNL     1      36.446   0.058  10.815  1.00  0.00    -0.388 OA
ATOM     20  H10 UNL     1      36.574   0.929  10.460  1.00  0.00     0.210 HD
ENDBRANCH   5  19
BRANCH   3  21
HETATM   21  C8  UNL     1      39.131  -2.293  13.892  1.00  0.00     0.217 C 
BRANCH  21  22
HETATM   22  O2  UNL     1      39.836  -2.271  12.721  1.00  0.00    -0.280 OA
BRANCH  22  23
HETATM   23  P1  UNL     1      41.265  -1.484  12.705  1.00  0.00     0.422 P 
HETATM   24  O3  UNL     1      41.421  -0.110  13.712  1.00  0.00    -0.617 OA
HETATM   25  O4  UNL     1      42.585  -2.030  11.943  1.00  0.00    -0.617 OA
HETATM   26  O5  UNL     1      40.791  -0.521  11.608  1.00  0.00    -0.617 OA
ENDBRANCH  22  23
ENDBRANCH  21  22
ENDBRANCH   3  21
BRANCH   4  27
HETATM   27  O6  UNL     1      36.166  -2.342  12.337  1.00  0.00    -0.272 OA
BRANCH  27  28
HETATM   28  P2  UNL     1      35.682  -3.314  11.238  1.00  0.00     0.422 P 
HETATM   29  O7  UNL     1      34.565  -2.112  10.827  1.00  0.00    -0.617 OA
HETATM   30  O8  UNL     1      35.357  -4.058   9.938  1.00  0.00    -0.617 OA
HETATM   31  O9  UNL     1      35.230  -4.458  12.265  1.00  0.00    -0.617 OA
ENDBRANCH  27  28
ENDBRANCH   4  27
TORSDOF 7
ENDMDL
