MODEL 2
REMARK VINA RESULT: -6.829872017      3.892      6.089
REMARK  7 active torsions:
REMARK  status: ('A' for Active; 'I' for Inactive)
REMARK    1  A    between atoms: N5_13  and  C6_14 
REMARK    2  A    between atoms: C7_16  and  C8_17 
REMARK    3  A    between atoms: C8_17  and  O2_18 
REMARK    4  A    between atoms: O2_18  and  P1_19 
REMARK    5  A    between atoms: C9_23  and  O6_24 
REMARK    6  A    between atoms: O6_24  and  P2_25 
REMARK    7  A    between atoms: C10_29  and  O10_30 
ROOT
HETATM    1  C6  UNL     1      39.007  -2.006  14.671  1.00  0.00     0.262 C 
HETATM    2  O1  UNL     1      39.496  -0.797  14.192  1.00  0.00    -0.353 OA
HETATM    3  C7  UNL     1      38.767  -0.641  13.014  1.00  0.00     0.181 C 
HETATM    4  C9  UNL     1      37.381  -1.209  13.245  1.00  0.00     0.199 C 
HETATM    5  C10 UNL     1      37.507  -1.666  14.652  1.00  0.00     0.199 C 
ENDROOT
BRANCH   1   6
HETATM    6  N5  UNL     1      39.455  -2.322  15.992  1.00  0.00    -0.297 N 
HETATM    7  C3  UNL     1      39.755  -1.398  16.923  1.00  0.00     0.142 A 
HETATM    8  N3  UNL     1      39.742  -0.036  16.937  1.00  0.00    -0.336 N 
HETATM    9  C4  UNL     1      40.156  -1.996  18.093  1.00  0.00     0.119 A 
HETATM   10  C2  UNL     1      40.100   0.651  18.030  1.00  0.00     0.183 A 
ATOM     11  H3  UNL     1      39.454   0.471  16.100  1.00  0.00     0.168 HD
HETATM   12  N2  UNL     1      40.487   0.059  19.158  1.00  0.00    -0.339 N 
HETATM   13  C1  UNL     1      40.524  -1.281  19.220  1.00  0.00     0.148 A 
ATOM     14  H2  UNL     1      40.751   0.619  19.967  1.00  0.00     0.167 HD
HETATM   15  N1  UNL     1      40.932  -1.923  20.411  1.00  0.00    -0.080 NA
HETATM   16  N4  UNL     1      40.093  -3.318  17.855  1.00  0.00    -0.346 N 
HETATM   17  C5  UNL     1      39.666  -3.501  16.577  1.00  0.00     0.188 A 
ATOM     18  H4  UNL     1      40.326  -4.057  18.518  1.00  0.00     0.167 HD
ENDBRANCH   1   6
BRANCH   5  19
HETATM   19  O10 UNL     1      36.709  -2.666  15.068  1.00  0.00    -0.388 OA
ATOM     20  H10 UNL     1      36.058  -2.935  14.431  1.00  0.00     0.210 HD
ENDBRANCH   5  19
BRANCH   3  21
HETATM   21  C8  UNL     1      38.704   0.821  12.605  1.00  0.00     0.217 C 
BRANCH  21  22
HETATM   22  O2  UNL     1      38.027   1.491  13.585  1.00  0.00    -0.280 OA
BRANCH  22  23
HETATM   23  P1  UNL     1      36.897   2.574  13.128  1.00  0.00     0.422 P 
HETATM   24  O3  UNL     1      37.362   3.773  12.000  1.00  0.00    -0.617 OA
HETATM   25  O4  UNL     1      35.333   2.470  13.534  1.00  0.00    -0.617 OA
HETATM   26  O5  UNL     1      37.316   3.564  14.224  1.00  0.00    -0.617 OA
ENDBRANCH  22  23
ENDBRANCH  21  22
ENDBRANCH   3  21
BRANCH   4  27
HETATM   27  O6  UNL     1      37.159  -2.133  12.299  1.00  0.00    -0.272 OA
BRANCH  27  28
HETATM   28  P2  UNL     1      35.772  -2.342  11.649  1.00  0.00     0.422 P 
HETATM   29  O7  UNL     1      35.480  -0.718  12.023  1.00  0.00    -0.617 OA
HETATM   30  O8  UNL     1      34.528  -2.357  10.755  1.00  0.00    -0.617 OA
HETATM   31  O9  UNL     1      35.305  -3.462  12.695  1.00  0.00    -0.617 OA
ENDBRANCH  27  28
ENDBRANCH   4  27
TORSDOF 7
ENDMDL
