MODEL 6
REMARK VINA RESULT: -7.057540180      6.202      8.299
REMARK  8 active torsions:
REMARK  status: ('A' for Active; 'I' for Inactive)
REMARK    1  A    between atoms: N5_13  and  C6_14 
REMARK    2  A    between atoms: C7_16  and  C8_17 
REMARK    3  A    between atoms: C8_17  and  O2_18 
REMARK    4  A    between atoms: O2_18  and  P1_19 
REMARK    5  A    between atoms: P1_19  and  O5_22 
REMARK    6  A    between atoms: O5_22  and  P2_23 
REMARK    7  A    between atoms: C9_27  and  O9_28 
REMARK    8  A    between atoms: C10_30  and  O10_31 
ROOT
HETATM    1  C6  UNL     1      39.159  -0.608  13.122  1.00  0.00     0.262 C 
HETATM    2  O1  UNL     1      38.462   0.581  13.337  1.00  0.00    -0.353 OA
HETATM    3  C7  UNL     1      39.512   1.496  13.365  1.00  0.00     0.180 C 
HETATM    4  C9  UNL     1      40.399   1.156  12.199  1.00  0.00     0.182 C 
HETATM    5  C10 UNL     1      39.945  -0.274  11.875  1.00  0.00     0.198 C 
ENDROOT
BRANCH   1   6
HETATM    6  N5  UNL     1      38.294  -1.742  12.957  1.00  0.00    -0.297 N 
HETATM    7  C3  UNL     1      37.130  -1.693  12.276  1.00  0.00     0.142 A 
HETATM    8  N3  UNL     1      36.510  -0.678  11.627  1.00  0.00    -0.336 N 
HETATM    9  C4  UNL     1      36.535  -2.937  12.296  1.00  0.00     0.119 A 
HETATM   10  C2  UNL     1      35.330  -0.834  10.997  1.00  0.00     0.183 A 
ATOM     11  H3  UNL     1      36.955   0.240  11.615  1.00  0.00     0.168 HD
HETATM   12  N2  UNL     1      34.759  -2.034  11.019  1.00  0.00    -0.339 N 
HETATM   13  C1  UNL     1      35.333  -3.085  11.651  1.00  0.00     0.148 A 
ATOM     14  H2  UNL     1      33.864  -2.167  10.547  1.00  0.00     0.167 HD
HETATM   15  N1  UNL     1      34.695  -4.329  11.646  1.00  0.00    -0.080 NA
HETATM   16  N4  UNL     1      37.371  -3.720  13.001  1.00  0.00    -0.346 N 
HETATM   17  C5  UNL     1      38.429  -2.987  13.394  1.00  0.00     0.188 A 
ATOM     18  H4  UNL     1      37.226  -4.709  13.204  1.00  0.00     0.167 HD
ENDBRANCH   1   6
BRANCH   5  19
HETATM   19  O10 UNL     1      41.019  -1.107  11.664  1.00  0.00    -0.388 OA
ATOM     20  H10 UNL     1      41.807  -0.831  12.117  1.00  0.00     0.210 HD
ENDBRANCH   5  19
BRANCH   3  21
HETATM   21  C8  UNL     1      39.020   2.925  13.321  1.00  0.00     0.216 C 
BRANCH  21  22
HETATM   22  O2  UNL     1      37.935   2.972  12.503  1.00  0.00    -0.287 OA
BRANCH  22  23
HETATM   23  P1  UNL     1      36.637   3.845  12.983  1.00  0.00     0.418 P 
HETATM   24  O3  UNL     1      36.043   3.938  11.580  1.00  0.00    -0.624 OA
HETATM   25  O4  UNL     1      35.237   2.967  13.453  1.00  0.00    -0.624 OA
BRANCH  23  26
HETATM   26  O5  UNL     1      36.702   5.435  13.218  1.00  0.00    -0.173 OA
BRANCH  26  27
HETATM   27  P2  UNL     1      37.080   6.015  14.711  1.00  0.00     0.431 P 
HETATM   28  O6  UNL     1      37.556   5.015  15.888  1.00  0.00    -0.616 OA
HETATM   29  O7  UNL     1      36.734   7.634  15.056  1.00  0.00    -0.616 OA
HETATM   30  O8  UNL     1      38.463   6.452  14.227  1.00  0.00    -0.616 OA
ENDBRANCH  26  27
ENDBRANCH  23  26
ENDBRANCH  22  23
ENDBRANCH  21  22
ENDBRANCH   3  21
BRANCH   4  31
HETATM   31  O9  UNL     1      41.735   1.043  12.608  1.00  0.00    -0.390 OA
ATOM     32  H9  UNL     1      42.086   0.190  12.379  1.00  0.00     0.210 HD
ENDBRANCH   4  31
TORSDOF 8
ENDMDL
