MODEL 8
REMARK VINA RESULT: -6.960228167      6.149      7.966
REMARK  8 active torsions:
REMARK  status: ('A' for Active; 'I' for Inactive)
REMARK    1  A    between atoms: N5_13  and  C6_14 
REMARK    2  A    between atoms: C7_16  and  C8_17 
REMARK    3  A    between atoms: C8_17  and  O2_18 
REMARK    4  A    between atoms: O2_18  and  P1_19 
REMARK    5  A    between atoms: P1_19  and  O5_22 
REMARK    6  A    between atoms: O5_22  and  P2_23 
REMARK    7  A    between atoms: C9_27  and  O9_28 
REMARK    8  A    between atoms: C10_30  and  O10_31 
ROOT
HETATM    1  C6  UNL     1      39.183  -1.737  14.652  1.00  0.00     0.262 C 
HETATM    2  O1  UNL     1      38.865  -0.409  14.937  1.00  0.00    -0.353 OA
HETATM    3  C7  UNL     1      39.990  -0.023  15.664  1.00  0.00     0.180 C 
HETATM    4  C9  UNL     1      41.181  -0.532  14.899  1.00  0.00     0.182 C 
HETATM    5  C10 UNL     1      40.533  -1.587  13.991  1.00  0.00     0.198 C 
ENDROOT
BRANCH   1   6
HETATM    6  N5  UNL     1      38.212  -2.378  13.812  1.00  0.00    -0.297 N 
HETATM    7  C3  UNL     1      37.517  -1.729  12.854  1.00  0.00     0.142 A 
HETATM    8  N3  UNL     1      37.532  -0.434  12.455  1.00  0.00    -0.336 N 
HETATM    9  C4  UNL     1      36.669  -2.614  12.224  1.00  0.00     0.119 A 
HETATM   10  C2  UNL     1      36.748   0.026  11.461  1.00  0.00     0.183 A 
ATOM     11  H3  UNL     1      38.162   0.217  12.924  1.00  0.00     0.168 HD
HETATM   12  N2  UNL     1      35.931  -0.829  10.856  1.00  0.00    -0.339 N 
HETATM   13  C1  UNL     1      35.874  -2.134  11.214  1.00  0.00     0.148 A 
ATOM     14  H2  UNL     1      35.330  -0.494  10.103  1.00  0.00     0.167 HD
HETATM   15  N1  UNL     1      34.999  -2.997  10.547  1.00  0.00    -0.080 NA
HETATM   16  N4  UNL     1      36.876  -3.797  12.828  1.00  0.00    -0.346 N 
HETATM   17  C5  UNL     1      37.810  -3.642  13.785  1.00  0.00     0.188 A 
ATOM     18  H4  UNL     1      36.403  -4.671  12.598  1.00  0.00     0.167 HD
ENDBRANCH   1   6
BRANCH   5  19
HETATM   19  O10 UNL     1      41.267  -2.750  13.970  1.00  0.00    -0.388 OA
ATOM     20  H10 UNL     1      41.679  -2.923  13.132  1.00  0.00     0.210 HD
ENDBRANCH   5  19
BRANCH   3  21
HETATM   21  C8  UNL     1      40.037   1.472  15.881  1.00  0.00     0.216 C 
BRANCH  21  22
HETATM   22  O2  UNL     1      40.256   2.067  14.678  1.00  0.00    -0.287 OA
BRANCH  22  23
HETATM   23  P1  UNL     1      39.125   3.103  14.107  1.00  0.00     0.418 P 
HETATM   24  O3  UNL     1      38.734   3.612  15.493  1.00  0.00    -0.624 OA
HETATM   25  O4  UNL     1      39.645   4.698  13.734  1.00  0.00    -0.624 OA
BRANCH  23  26
HETATM   26  O5  UNL     1      37.642   2.629  13.703  1.00  0.00    -0.173 OA
BRANCH  26  27
HETATM   27  P2  UNL     1      36.543   3.750  13.212  1.00  0.00     0.431 P 
HETATM   28  O6  UNL     1      36.173   3.911  11.647  1.00  0.00    -0.616 OA
HETATM   29  O7  UNL     1      35.988   4.882  14.339  1.00  0.00    -0.616 OA
HETATM   30  O8  UNL     1      35.383   2.836  13.614  1.00  0.00    -0.616 OA
ENDBRANCH  26  27
ENDBRANCH  23  26
ENDBRANCH  22  23
ENDBRANCH  21  22
ENDBRANCH   3  21
BRANCH   4  31
HETATM   31  O9  UNL     1      42.046  -1.243  15.743  1.00  0.00    -0.390 OA
ATOM     32  H9  UNL     1      42.460  -0.659  16.368  1.00  0.00     0.210 HD
ENDBRANCH   4  31
TORSDOF 8
ENDMDL
