MODEL 5
REMARK VINA RESULT: -7.086796642      1.757      2.869
REMARK  8 active torsions:
REMARK  status: ('A' for Active; 'I' for Inactive)
REMARK    1  A    between atoms: N5_13  and  C6_14 
REMARK    2  A    between atoms: C7_16  and  C8_17 
REMARK    3  A    between atoms: C8_17  and  O2_18 
REMARK    4  A    between atoms: O2_18  and  P1_19 
REMARK    5  A    between atoms: P1_19  and  O5_22 
REMARK    6  A    between atoms: O5_22  and  P2_23 
REMARK    7  A    between atoms: C9_27  and  O9_28 
REMARK    8  A    between atoms: C10_30  and  O10_31 
ROOT
HETATM    1  C6  UNL     1      36.970   7.240  18.361  1.00  0.00     0.262 C 
HETATM    2  O1  UNL     1      37.150   6.485  17.202  1.00  0.00    -0.353 OA
HETATM    3  C7  UNL     1      37.673   7.450  16.342  1.00  0.00     0.180 C 
HETATM    4  C9  UNL     1      38.726   8.186  17.126  1.00  0.00     0.182 C 
HETATM    5  C10 UNL     1      38.355   7.809  18.567  1.00  0.00     0.198 C 
ENDROOT
BRANCH   1   6
HETATM    6  N5  UNL     1      36.511   6.456  19.473  1.00  0.00    -0.297 N 
HETATM    7  C3  UNL     1      36.952   5.207  19.732  1.00  0.00     0.142 A 
HETATM    8  N3  UNL     1      37.851   4.421  19.092  1.00  0.00    -0.336 N 
HETATM    9  C4  UNL     1      36.326   4.726  20.862  1.00  0.00     0.119 A 
HETATM   10  C2  UNL     1      38.159   3.181  19.516  1.00  0.00     0.183 A 
ATOM     11  H3  UNL     1      38.312   4.782  18.256  1.00  0.00     0.168 HD
HETATM   12  N2  UNL     1      37.553   2.719  20.605  1.00  0.00    -0.339 N 
HETATM   13  C1  UNL     1      36.648   3.461  21.285  1.00  0.00     0.148 A 
ATOM     14  H2  UNL     1      37.776   1.780  20.938  1.00  0.00     0.167 HD
HETATM   15  N1  UNL     1      36.037   2.933  22.426  1.00  0.00    -0.080 NA
HETATM   16  N4  UNL     1      35.508   5.715  21.264  1.00  0.00    -0.346 N 
HETATM   17  C5  UNL     1      35.629   6.754  20.418  1.00  0.00     0.188 A 
ATOM     18  H4  UNL     1      34.895   5.682  22.080  1.00  0.00     0.167 HD
ENDBRANCH   1   6
BRANCH   5  19
HETATM   19  O10 UNL     1      38.379   8.907  19.395  1.00  0.00    -0.388 OA
ATOM     20  H10 UNL     1      39.131   8.928  19.974  1.00  0.00     0.210 HD
ENDBRANCH   5  19
BRANCH   3  21
HETATM   21  C8  UNL     1      38.218   6.841  15.071  1.00  0.00     0.216 C 
BRANCH  21  22
HETATM   22  O2  UNL     1      37.354   5.873  14.662  1.00  0.00    -0.287 OA
BRANCH  22  23
HETATM   23  P1  UNL     1      37.046   5.733  13.061  1.00  0.00     0.418 P 
HETATM   24  O3  UNL     1      35.814   6.634  13.108  1.00  0.00    -0.624 OA
HETATM   25  O4  UNL     1      37.778   6.888  12.021  1.00  0.00    -0.624 OA
BRANCH  23  26
HETATM   26  O5  UNL     1      36.274   4.467  12.436  1.00  0.00    -0.173 OA
BRANCH  26  27
HETATM   27  P2  UNL     1      36.747   2.948  12.854  1.00  0.00     0.431 P 
HETATM   28  O6  UNL     1      37.753   2.709  14.097  1.00  0.00    -0.616 OA
HETATM   29  O7  UNL     1      36.355   1.670  11.819  1.00  0.00    -0.616 OA
HETATM   30  O8  UNL     1      35.430   2.705  13.593  1.00  0.00    -0.616 OA
ENDBRANCH  26  27
ENDBRANCH  23  26
ENDBRANCH  22  23
ENDBRANCH  21  22
ENDBRANCH   3  21
BRANCH   4  31
HETATM   31  O9  UNL     1      38.532   9.572  17.037  1.00  0.00    -0.390 OA
ATOM     32  H9  UNL     1      39.130   9.955  16.407  1.00  0.00     0.210 HD
ENDBRANCH   4  31
TORSDOF 8
ENDMDL
