MODEL 3
REMARK VINA RESULT: -7.123779977      5.849      7.528
REMARK  8 active torsions:
REMARK  status: ('A' for Active; 'I' for Inactive)
REMARK    1  A    between atoms: N5_13  and  C6_14 
REMARK    2  A    between atoms: C7_16  and  C8_17 
REMARK    3  A    between atoms: C8_17  and  O2_18 
REMARK    4  A    between atoms: O2_18  and  P1_19 
REMARK    5  A    between atoms: P1_19  and  O5_22 
REMARK    6  A    between atoms: O5_22  and  P2_23 
REMARK    7  A    between atoms: C9_27  and  O9_28 
REMARK    8  A    between atoms: C10_30  and  O10_31 
ROOT
HETATM    1  C6  UNL     1      38.516   0.117  13.903  1.00  0.00     0.262 C 
HETATM    2  O1  UNL     1      38.498   1.508  13.999  1.00  0.00    -0.353 OA
HETATM    3  C7  UNL     1      39.430   1.710  15.016  1.00  0.00     0.180 C 
HETATM    4  C9  UNL     1      40.607   0.832  14.689  1.00  0.00     0.182 C 
HETATM    5  C10 UNL     1      39.987  -0.151  13.686  1.00  0.00     0.198 C 
ENDROOT
BRANCH   1   6
HETATM    6  N5  UNL     1      37.689  -0.381  12.841  1.00  0.00    -0.297 N 
HETATM    7  C3  UNL     1      37.220  -1.646  12.797  1.00  0.00     0.142 A 
HETATM    8  N3  UNL     1      37.375  -2.692  13.645  1.00  0.00    -0.336 N 
HETATM    9  C4  UNL     1      36.461  -1.814  11.659  1.00  0.00     0.119 A 
HETATM   10  C2  UNL     1      36.815  -3.896  13.419  1.00  0.00     0.183 A 
ATOM     11  H3  UNL     1      37.938  -2.562  14.486  1.00  0.00     0.168 HD
HETATM   12  N2  UNL     1      36.085  -4.055  12.321  1.00  0.00    -0.339 N 
HETATM   13  C1  UNL     1      35.895  -3.045  11.439  1.00  0.00     0.148 A 
ATOM     14  H2  UNL     1      35.656  -4.962  12.137  1.00  0.00     0.167 HD
HETATM   15  N1  UNL     1      35.118  -3.259  10.297  1.00  0.00    -0.080 NA
HETATM   16  N4  UNL     1      36.491  -0.625  11.032  1.00  0.00    -0.346 N 
HETATM   17  C5  UNL     1      37.236   0.232  11.755  1.00  0.00     0.188 A 
ATOM     18  H4  UNL     1      36.025  -0.407  10.151  1.00  0.00     0.167 HD
ENDBRANCH   1   6
BRANCH   5  19
HETATM   19  O10 UNL     1      40.356  -1.447  13.960  1.00  0.00    -0.388 OA
ATOM     20  H10 UNL     1      39.691  -1.939  14.427  1.00  0.00     0.210 HD
ENDBRANCH   5  19
BRANCH   3  21
HETATM   21  C8  UNL     1      39.814   3.166  15.152  1.00  0.00     0.216 C 
BRANCH  21  22
HETATM   22  O2  UNL     1      38.716   3.855  15.564  1.00  0.00    -0.287 OA
BRANCH  22  23
HETATM   23  P1  UNL     1      38.173   5.083  14.629  1.00  0.00     0.418 P 
HETATM   24  O3  UNL     1      36.860   5.231  15.395  1.00  0.00    -0.624 OA
HETATM   25  O4  UNL     1      38.574   6.679  15.126  1.00  0.00    -0.624 OA
BRANCH  23  26
HETATM   26  O5  UNL     1      37.478   4.840  13.199  1.00  0.00    -0.173 OA
BRANCH  26  27
HETATM   27  P2  UNL     1      35.908   4.351  13.137  1.00  0.00     0.431 P 
HETATM   28  O6  UNL     1      34.725   5.413  12.848  1.00  0.00    -0.616 OA
HETATM   29  O7  UNL     1      35.538   2.772  13.614  1.00  0.00    -0.616 OA
HETATM   30  O8  UNL     1      36.090   3.837  11.708  1.00  0.00    -0.616 OA
ENDBRANCH  26  27
ENDBRANCH  23  26
ENDBRANCH  22  23
ENDBRANCH  21  22
ENDBRANCH   3  21
BRANCH   4  31
HETATM   31  O9  UNL     1      40.972   0.057  15.799  1.00  0.00    -0.390 OA
ATOM     32  H9  UNL     1      40.907  -0.869  15.598  1.00  0.00     0.210 HD
ENDBRANCH   4  31
TORSDOF 8
ENDMDL
