MODEL 5
REMARK VINA RESULT: -5.946911606      1.449      1.899
REMARK  6 active torsions:
REMARK  status: ('A' for Active; 'I' for Inactive)
REMARK    1  A    between atoms: N1_5  and  C4_6 
REMARK    2  A    between atoms: C5_8  and  C6_9 
REMARK    3  A    between atoms: C6_9  and  O3_10 
REMARK    4  A    between atoms: C7_12  and  O4_13 
REMARK    5  A    between atoms: C8_15  and  O5_16 
REMARK    6  A    between atoms: O5_16  and  P1_17 
ROOT
HETATM    1  C4  UNL     1      37.113   1.991  23.979  1.00  0.00     0.264 C 
HETATM    2  O2  UNL     1      38.174   2.294  24.807  1.00  0.00    -0.353 OA
HETATM    3  C5  UNL     1      39.306   1.706  24.314  1.00  0.00     0.179 C 
HETATM    4  C7  UNL     1      39.110   1.861  22.800  1.00  0.00     0.183 C 
HETATM    5  C8  UNL     1      37.658   1.408  22.723  1.00  0.00     0.216 C 
ENDROOT
BRANCH   1   6
HETATM    6  N1  UNL     1      36.300   3.151  23.825  1.00  0.00    -0.280 N 
HETATM    7  C3  UNL     1      36.516   4.113  22.914  1.00  0.00     0.104 A 
HETATM    8  C2  UNL     1      35.660   5.188  22.861  1.00  0.00     0.092 A 
HETATM    9  C1  UNL     1      34.578   5.327  23.712  1.00  0.00     0.250 A 
HETATM   10  O1  UNL     1      33.791   6.312  23.666  1.00  0.00    -0.268 OA
HETATM   11  N2  UNL     1      34.402   4.333  24.612  1.00  0.00    -0.275 N 
HETATM   12  C9  UNL     1      35.241   3.298  24.650  1.00  0.00     0.331 A 
ATOM     13  H2  UNL     1      33.621   4.376  25.267  1.00  0.00     0.173 HD
HETATM   14  O9  UNL     1      34.993   2.410  25.535  1.00  0.00    -0.246 OA
ENDBRANCH   1   6
BRANCH   5  15
HETATM   15  O5  UNL     1      37.659   0.034  22.834  1.00  0.00    -0.270 OA
BRANCH  15  16
HETATM   16  P1  UNL     1      36.516  -0.723  23.638  1.00  0.00     0.422 P 
HETATM   17  O6  UNL     1      35.414  -1.732  22.880  1.00  0.00    -0.617 OA
HETATM   18  O7  UNL     1      36.268  -0.444  25.289  1.00  0.00    -0.617 OA
HETATM   19  O8  UNL     1      37.357  -1.950  24.032  1.00  0.00    -0.617 OA
ENDBRANCH  15  16
ENDBRANCH   5  15
BRANCH   3  20
HETATM   20  C6  UNL     1      40.570   2.415  24.737  1.00  0.00     0.198 C 
BRANCH  20  21
HETATM   21  O3  UNL     1      40.780   2.248  26.082  1.00  0.00    -0.398 OA
ATOM     22  H3  UNL     1      40.016   2.532  26.571  1.00  0.00     0.209 HD
ENDBRANCH  20  21
ENDBRANCH   3  20
BRANCH   4  23
HETATM   23  O4  UNL     1      39.961   1.040  22.095  1.00  0.00    -0.390 OA
ATOM     24  H4  UNL     1      39.983   1.271  21.174  1.00  0.00     0.210 HD
ENDBRANCH   4  23
TORSDOF 6
ENDMDL
