MODEL 8
REMARK VINA RESULT: -5.683556866      6.738      8.817
REMARK  6 active torsions:
REMARK  status: ('A' for Active; 'I' for Inactive)
REMARK    1  A    between atoms: N1_5  and  C4_6 
REMARK    2  A    between atoms: C5_8  and  C6_9 
REMARK    3  A    between atoms: C6_9  and  O3_10 
REMARK    4  A    between atoms: C7_12  and  O4_13 
REMARK    5  A    between atoms: C8_15  and  O5_16 
REMARK    6  A    between atoms: O5_16  and  P1_17 
ROOT
HETATM    1  C4  UNL     1      37.837  -5.045  20.058  1.00  0.00     0.264 C 
HETATM    2  O2  UNL     1      39.017  -5.681  20.385  1.00  0.00    -0.353 OA
HETATM    3  C5  UNL     1      38.994  -6.006  21.714  1.00  0.00     0.179 C 
HETATM    4  C7  UNL     1      37.525  -6.401  21.919  1.00  0.00     0.183 C 
HETATM    5  C8  UNL     1      36.883  -5.230  21.185  1.00  0.00     0.216 C 
ENDROOT
BRANCH   1   6
HETATM    6  N1  UNL     1      37.397  -5.514  18.786  1.00  0.00    -0.280 N 
HETATM    7  C3  UNL     1      36.768  -6.683  18.585  1.00  0.00     0.104 A 
HETATM    8  C2  UNL     1      36.390  -7.027  17.309  1.00  0.00     0.092 A 
HETATM    9  C1  UNL     1      36.630  -6.219  16.212  1.00  0.00     0.250 A 
HETATM   10  O1  UNL     1      36.285  -6.532  15.040  1.00  0.00    -0.268 OA
HETATM   11  N2  UNL     1      37.266  -5.052  16.464  1.00  0.00    -0.275 N 
HETATM   12  C9  UNL     1      37.626  -4.733  17.708  1.00  0.00     0.331 A 
ATOM     13  H2  UNL     1      37.471  -4.412  15.698  1.00  0.00     0.173 HD
HETATM   14  O9  UNL     1      38.221  -3.611  17.847  1.00  0.00    -0.246 OA
ENDBRANCH   1   6
BRANCH   5  15
HETATM   15  O5  UNL     1      36.965  -4.138  22.021  1.00  0.00    -0.270 OA
BRANCH  15  16
HETATM   16  P1  UNL     1      35.698  -3.635  22.838  1.00  0.00     0.422 P 
HETATM   17  O6  UNL     1      34.561  -4.697  23.459  1.00  0.00    -0.617 OA
HETATM   18  O7  UNL     1      35.359  -1.985  23.009  1.00  0.00    -0.617 OA
HETATM   19  O8  UNL     1      36.383  -3.577  24.214  1.00  0.00    -0.617 OA
ENDBRANCH  15  16
ENDBRANCH   5  15
BRANCH   3  20
HETATM   20  C6  UNL     1      39.885  -7.178  22.049  1.00  0.00     0.198 C 
BRANCH  20  21
HETATM   21  O3  UNL     1      39.143  -8.328  22.138  1.00  0.00    -0.398 OA
ATOM     22  H3  UNL     1      39.523  -8.915  22.781  1.00  0.00     0.209 HD
ENDBRANCH  20  21
ENDBRANCH   3  20
BRANCH   4  23
HETATM   23  O4  UNL     1      37.194  -6.438  23.253  1.00  0.00    -0.390 OA
ATOM     24  H4  UNL     1      36.958  -5.576  23.577  1.00  0.00     0.210 HD
ENDBRANCH   4  23
TORSDOF 6
ENDMDL
