MODEL 6
REMARK VINA RESULT: -5.854550714      1.914      4.888
REMARK  6 active torsions:
REMARK  status: ('A' for Active; 'I' for Inactive)
REMARK    1  A    between atoms: N1_5  and  C4_6 
REMARK    2  A    between atoms: C5_8  and  C6_9 
REMARK    3  A    between atoms: C6_9  and  O3_10 
REMARK    4  A    between atoms: C7_12  and  O4_13 
REMARK    5  A    between atoms: C8_15  and  O5_16 
REMARK    6  A    between atoms: O5_16  and  P1_17 
ROOT
HETATM    1  C4  UNL     1      37.852   0.832  22.877  1.00  0.00     0.264 C 
HETATM    2  O2  UNL     1      37.169   2.008  23.111  1.00  0.00    -0.353 OA
HETATM    3  C5  UNL     1      36.207   1.783  24.057  1.00  0.00     0.179 C 
HETATM    4  C7  UNL     1      36.914   0.802  25.002  1.00  0.00     0.183 C 
HETATM    5  C8  UNL     1      37.490  -0.135  23.948  1.00  0.00     0.216 C 
ENDROOT
BRANCH   1   6
HETATM    6  N1  UNL     1      39.241   1.123  22.744  1.00  0.00    -0.280 N 
HETATM    7  C3  UNL     1      39.878   2.101  23.407  1.00  0.00     0.104 A 
HETATM    8  C2  UNL     1      41.224   2.286  23.196  1.00  0.00     0.092 A 
HETATM    9  C1  UNL     1      41.960   1.504  22.323  1.00  0.00     0.250 A 
HETATM   10  O1  UNL     1      43.194   1.671  22.127  1.00  0.00    -0.268 OA
HETATM   11  N2  UNL     1      41.275   0.532  21.678  1.00  0.00    -0.275 N 
HETATM   12  C9  UNL     1      39.970   0.367  21.895  1.00  0.00     0.331 A 
ATOM     13  H2  UNL     1      41.761  -0.079  21.022  1.00  0.00     0.173 HD
HETATM   14  O9  UNL     1      39.410  -0.577  21.240  1.00  0.00    -0.246 OA
ENDBRANCH   1   6
BRANCH   5  15
HETATM   15  O5  UNL     1      36.452  -0.924  23.502  1.00  0.00    -0.270 OA
BRANCH  15  16
HETATM   16  P1  UNL     1      36.629  -2.495  23.340  1.00  0.00     0.422 P 
HETATM   17  O6  UNL     1      36.179  -3.570  24.542  1.00  0.00    -0.617 OA
HETATM   18  O7  UNL     1      37.408  -3.159  21.991  1.00  0.00    -0.617 OA
HETATM   19  O8  UNL     1      35.293  -2.752  22.620  1.00  0.00    -0.617 OA
ENDBRANCH  15  16
ENDBRANCH   5  15
BRANCH   3  20
HETATM   20  C6  UNL     1      35.825   3.032  24.815  1.00  0.00     0.198 C 
BRANCH  20  21
HETATM   21  O3  UNL     1      34.679   2.815  25.538  1.00  0.00    -0.398 OA
ATOM     22  H3  UNL     1      34.306   1.970  25.315  1.00  0.00     0.209 HD
ENDBRANCH  20  21
ENDBRANCH   3  20
BRANCH   4  23
HETATM   23  O4  UNL     1      36.020   0.176  25.839  1.00  0.00    -0.390 OA
ATOM     24  H4  UNL     1      36.393   0.033  26.701  1.00  0.00     0.210 HD
ENDBRANCH   4  23
TORSDOF 6
ENDMDL
