MODEL 4
REMARK VINA RESULT: -6.150709892      0.741      1.229
REMARK  6 active torsions:
REMARK  status: ('A' for Active; 'I' for Inactive)
REMARK    1  A    between atoms: N1_5  and  C4_6 
REMARK    2  A    between atoms: C5_8  and  C6_9 
REMARK    3  A    between atoms: C6_9  and  O3_10 
REMARK    4  A    between atoms: C7_12  and  O4_13 
REMARK    5  A    between atoms: C8_15  and  O5_16 
REMARK    6  A    between atoms: O5_16  and  P1_17 
ROOT
HETATM    1  C4  UNL     1      37.550   0.565  24.426  1.00  0.00     0.264 C 
HETATM    2  O2  UNL     1      38.873   0.946  24.520  1.00  0.00    -0.353 OA
HETATM    3  C5  UNL     1      39.637   0.086  23.780  1.00  0.00     0.179 C 
HETATM    4  C7  UNL     1      38.731  -0.185  22.571  1.00  0.00     0.183 C 
HETATM    5  C8  UNL     1      37.432  -0.432  23.328  1.00  0.00     0.216 C 
ENDROOT
BRANCH   1   6
HETATM    6  N1  UNL     1      36.741   1.732  24.298  1.00  0.00    -0.280 N 
HETATM    7  C3  UNL     1      37.008   2.753  23.468  1.00  0.00     0.104 A 
HETATM    8  C2  UNL     1      36.151   3.827  23.432  1.00  0.00     0.092 A 
HETATM    9  C1  UNL     1      35.016   3.907  24.220  1.00  0.00     0.250 A 
HETATM   10  O1  UNL     1      34.228   4.891  24.189  1.00  0.00    -0.268 OA
HETATM   11  N2  UNL     1      34.789   2.855  25.039  1.00  0.00    -0.275 N 
HETATM   12  C9  UNL     1      35.631   1.821  25.062  1.00  0.00     0.331 A 
ATOM     13  H2  UNL     1      33.968   2.853  25.644  1.00  0.00     0.173 HD
HETATM   14  O9  UNL     1      35.333   0.875  25.867  1.00  0.00    -0.246 OA
ENDBRANCH   1   6
BRANCH   5  15
HETATM   15  O5  UNL     1      37.514  -1.698  23.865  1.00  0.00    -0.270 OA
BRANCH  15  16
HETATM   16  P1  UNL     1      36.692  -2.906  23.242  1.00  0.00     0.422 P 
HETATM   17  O6  UNL     1      37.390  -4.402  22.952  1.00  0.00    -0.617 OA
HETATM   18  O7  UNL     1      35.097  -2.706  22.711  1.00  0.00    -0.617 OA
HETATM   19  O8  UNL     1      36.121  -3.438  24.568  1.00  0.00    -0.617 OA
ENDBRANCH  15  16
ENDBRANCH   5  15
BRANCH   3  20
HETATM   20  C6  UNL     1      40.934   0.703  23.314  1.00  0.00     0.198 C 
BRANCH  20  21
HETATM   21  O3  UNL     1      40.793   1.195  22.041  1.00  0.00    -0.398 OA
ATOM     22  H3  UNL     1      40.473   2.089  22.068  1.00  0.00     0.209 HD
ENDBRANCH  20  21
ENDBRANCH   3  20
BRANCH   4  23
HETATM   23  O4  UNL     1      39.152  -1.287  21.863  1.00  0.00    -0.390 OA
ATOM     24  H4  UNL     1      38.909  -2.095  22.300  1.00  0.00     0.210 HD
ENDBRANCH   4  23
TORSDOF 6
ENDMDL
