MODEL 1
REMARK VINA RESULT: -6.489053697      0.000      0.000
REMARK  6 active torsions:
REMARK  status: ('A' for Active; 'I' for Inactive)
REMARK    1  A    between atoms: N1_5  and  C4_6 
REMARK    2  A    between atoms: C5_8  and  C6_9 
REMARK    3  A    between atoms: C6_9  and  O3_10 
REMARK    4  A    between atoms: C7_12  and  O4_13 
REMARK    5  A    between atoms: C8_15  and  O5_16 
REMARK    6  A    between atoms: O5_16  and  P1_17 
ROOT
HETATM    1  C4  UNL     1      37.788   1.089  24.199  1.00  0.00     0.264 C 
HETATM    2  O2  UNL     1      39.079   1.574  24.148  1.00  0.00    -0.353 OA
HETATM    3  C5  UNL     1      39.821   0.778  23.319  1.00  0.00     0.179 C 
HETATM    4  C7  UNL     1      38.808   0.436  22.217  1.00  0.00     0.183 C 
HETATM    5  C8  UNL     1      37.626   0.087  23.112  1.00  0.00     0.216 C 
ENDROOT
BRANCH   1   6
HETATM    6  N1  UNL     1      36.880   2.188  24.174  1.00  0.00    -0.280 N 
HETATM    7  C3  UNL     1      37.076   3.318  23.476  1.00  0.00     0.104 A 
HETATM    8  C2  UNL     1      36.126   4.310  23.529  1.00  0.00     0.092 A 
HETATM    9  C1  UNL     1      34.967   4.198  24.277  1.00  0.00     0.250 A 
HETATM   10  O1  UNL     1      34.094   5.107  24.328  1.00  0.00    -0.268 OA
HETATM   11  N2  UNL     1      34.814   3.043  24.963  1.00  0.00    -0.275 N 
HETATM   12  C9  UNL     1      35.745   2.090  24.900  1.00  0.00     0.331 A 
ATOM     13  H2  UNL     1      33.980   2.899  25.532  1.00  0.00     0.173 HD
HETATM   14  O9  UNL     1      35.512   1.035  25.581  1.00  0.00    -0.246 OA
ENDBRANCH   1   6
BRANCH   5  15
HETATM   15  O5  UNL     1      37.868  -1.169  23.625  1.00  0.00    -0.270 OA
BRANCH  15  16
HETATM   16  P1  UNL     1      36.779  -2.321  23.517  1.00  0.00     0.422 P 
HETATM   17  O6  UNL     1      35.285  -2.070  22.802  1.00  0.00    -0.617 OA
HETATM   18  O7  UNL     1      37.020  -3.832  24.242  1.00  0.00    -0.617 OA
HETATM   19  O8  UNL     1      37.295  -2.934  22.204  1.00  0.00    -0.617 OA
ENDBRANCH  15  16
ENDBRANCH   5  15
BRANCH   3  20
HETATM   20  C6  UNL     1      41.003   1.497  22.716  1.00  0.00     0.198 C 
BRANCH  20  21
HETATM   21  O3  UNL     1      40.678   1.987  21.476  1.00  0.00    -0.398 OA
ATOM     22  H3  UNL     1      41.378   1.809  20.859  1.00  0.00     0.209 HD
ENDBRANCH  20  21
ENDBRANCH   3  20
BRANCH   4  23
HETATM   23  O4  UNL     1      39.232  -0.628  21.456  1.00  0.00    -0.390 OA
ATOM     24  H4  UNL     1      38.547  -1.279  21.355  1.00  0.00     0.210 HD
ENDBRANCH   4  23
TORSDOF 6
ENDMDL
