MODEL 2
REMARK VINA RESULT: -6.269977820      1.021      1.269
REMARK  6 active torsions:
REMARK  status: ('A' for Active; 'I' for Inactive)
REMARK    1  A    between atoms: N1_5  and  C4_6 
REMARK    2  A    between atoms: C5_8  and  C6_9 
REMARK    3  A    between atoms: C6_9  and  O3_10 
REMARK    4  A    between atoms: C7_12  and  O4_13 
REMARK    5  A    between atoms: C8_15  and  O5_16 
REMARK    6  A    between atoms: O5_16  and  P1_17 
ROOT
HETATM    1  C4  UNL     1      38.027   0.048  24.131  1.00  0.00     0.264 C 
HETATM    2  O2  UNL     1      39.338   0.481  24.157  1.00  0.00    -0.353 OA
HETATM    3  C5  UNL     1      40.058  -0.227  23.234  1.00  0.00     0.179 C 
HETATM    4  C7  UNL     1      39.048  -0.374  22.088  1.00  0.00     0.183 C 
HETATM    5  C8  UNL     1      37.840  -0.791  22.917  1.00  0.00     0.216 C 
ENDROOT
BRANCH   1   6
HETATM    6  N1  UNL     1      37.165   1.178  24.247  1.00  0.00    -0.280 N 
HETATM    7  C3  UNL     1      37.409   2.377  23.694  1.00  0.00     0.104 A 
HETATM    8  C2  UNL     1      36.500   3.393  23.875  1.00  0.00     0.092 A 
HETATM    9  C1  UNL     1      35.337   3.237  24.608  1.00  0.00     0.250 A 
HETATM   10  O1  UNL     1      34.502   4.167  24.776  1.00  0.00    -0.268 OA
HETATM   11  N2  UNL     1      35.136   2.012  25.145  1.00  0.00    -0.275 N 
HETATM   12  C9  UNL     1      36.027   1.037  24.960  1.00  0.00     0.331 A 
ATOM     13  H2  UNL     1      34.296   1.832  25.695  1.00  0.00     0.173 HD
HETATM   14  O9  UNL     1      35.750  -0.085  25.505  1.00  0.00    -0.246 OA
ENDBRANCH   1   6
BRANCH   5  15
HETATM   15  O5  UNL     1      38.023  -2.114  23.258  1.00  0.00    -0.270 OA
BRANCH  15  16
HETATM   16  P1  UNL     1      36.810  -3.139  23.241  1.00  0.00     0.422 P 
HETATM   17  O6  UNL     1      35.915  -3.481  24.616  1.00  0.00    -0.617 OA
HETATM   18  O7  UNL     1      36.440  -4.044  21.859  1.00  0.00    -0.617 OA
HETATM   19  O8  UNL     1      35.732  -2.134  22.799  1.00  0.00    -0.617 OA
ENDBRANCH  15  16
ENDBRANCH   5  15
BRANCH   3  20
HETATM   20  C6  UNL     1      41.278   0.516  22.744  1.00  0.00     0.198 C 
BRANCH  20  21
HETATM   21  O3  UNL     1      40.987   1.189  21.584  1.00  0.00    -0.398 OA
ATOM     22  H3  UNL     1      41.012   0.594  20.844  1.00  0.00     0.209 HD
ENDBRANCH  20  21
ENDBRANCH   3  20
BRANCH   4  23
HETATM   23  O4  UNL     1      39.439  -1.344  21.193  1.00  0.00    -0.390 OA
ATOM     24  H4  UNL     1      38.952  -2.149  21.319  1.00  0.00     0.210 HD
ENDBRANCH   4  23
TORSDOF 6
ENDMDL
