MODEL 3
REMARK VINA RESULT: -6.235889902      2.484      4.978
REMARK  6 active torsions:
REMARK  status: ('A' for Active; 'I' for Inactive)
REMARK    1  A    between atoms: N1_5  and  C4_6 
REMARK    2  A    between atoms: C5_8  and  C6_9 
REMARK    3  A    between atoms: C6_9  and  O3_10 
REMARK    4  A    between atoms: C7_12  and  O4_13 
REMARK    5  A    between atoms: C8_15  and  O5_16 
REMARK    6  A    between atoms: O5_16  and  P1_17 
ROOT
HETATM    1  C4  UNL     1      38.553  -0.002  23.378  1.00  0.00     0.264 C 
HETATM    2  O2  UNL     1      38.452   1.204  22.714  1.00  0.00    -0.353 OA
HETATM    3  C5  UNL     1      37.160   1.647  22.791  1.00  0.00     0.179 C 
HETATM    4  C7  UNL     1      36.762   1.222  24.211  1.00  0.00     0.183 C 
HETATM    5  C8  UNL     1      37.310  -0.199  24.171  1.00  0.00     0.216 C 
ENDROOT
BRANCH   1   6
HETATM    6  N1  UNL     1      39.772  -0.022  24.117  1.00  0.00    -0.280 N 
HETATM    7  C3  UNL     1      40.150   0.932  24.983  1.00  0.00     0.104 A 
HETATM    8  C2  UNL     1      41.351   0.801  25.638  1.00  0.00     0.092 A 
HETATM    9  C1  UNL     1      42.198  -0.276  25.444  1.00  0.00     0.250 A 
HETATM   10  O1  UNL     1      43.301  -0.398  26.044  1.00  0.00    -0.268 OA
HETATM   11  N2  UNL     1      41.775  -1.210  24.563  1.00  0.00    -0.275 N 
HETATM   12  C9  UNL     1      40.606  -1.068  23.936  1.00  0.00     0.331 A 
ATOM     13  H2  UNL     1      42.353  -2.029  24.377  1.00  0.00     0.173 HD
HETATM   14  O9  UNL     1      40.292  -2.002  23.122  1.00  0.00    -0.246 OA
ENDBRANCH   1   6
BRANCH   5  15
HETATM   15  O5  UNL     1      36.424  -0.950  23.430  1.00  0.00    -0.270 OA
BRANCH  15  16
HETATM   16  P1  UNL     1      36.587  -2.526  23.310  1.00  0.00     0.422 P 
HETATM   17  O6  UNL     1      36.150  -3.563  24.552  1.00  0.00    -0.617 OA
HETATM   18  O7  UNL     1      37.338  -3.235  21.969  1.00  0.00    -0.617 OA
HETATM   19  O8  UNL     1      35.237  -2.795  22.622  1.00  0.00    -0.617 OA
ENDBRANCH  15  16
ENDBRANCH   5  15
BRANCH   3  20
HETATM   20  C6  UNL     1      37.044   3.147  22.659  1.00  0.00     0.198 C 
BRANCH  20  21
HETATM   21  O3  UNL     1      35.731   3.508  22.498  1.00  0.00    -0.398 OA
ATOM     22  H3  UNL     1      35.168   2.928  22.996  1.00  0.00     0.209 HD
ENDBRANCH  20  21
ENDBRANCH   3  20
BRANCH   4  23
HETATM   23  O4  UNL     1      35.398   1.262  24.385  1.00  0.00    -0.390 OA
ATOM     24  H4  UNL     1      35.159   1.119  25.293  1.00  0.00     0.210 HD
ENDBRANCH   4  23
TORSDOF 6
ENDMDL
