MODEL 1
REMARK VINA RESULT: -6.706467946      0.000      0.000
REMARK  6 active torsions:
REMARK  status: ('A' for Active; 'I' for Inactive)
REMARK    1  A    between atoms: N1_5  and  C4_6 
REMARK    2  A    between atoms: C5_8  and  C6_9 
REMARK    3  A    between atoms: C6_9  and  O3_10 
REMARK    4  A    between atoms: C7_12  and  O4_13 
REMARK    5  A    between atoms: O4_13  and  P1_14 
REMARK    6  A    between atoms: C8_18  and  O8_19 
ROOT
HETATM    1  C4  UNL     1      37.130  -2.033  11.412  1.00  0.00     0.264 C 
HETATM    2  O2  UNL     1      38.361  -1.805  12.029  1.00  0.00    -0.353 OA
HETATM    3  C5  UNL     1      38.599  -0.438  11.913  1.00  0.00     0.180 C 
HETATM    4  C7  UNL     1      37.248   0.127  12.289  1.00  0.00     0.199 C 
HETATM    5  C8  UNL     1      36.385  -0.769  11.381  1.00  0.00     0.199 C 
ENDROOT
BRANCH   1   6
HETATM    6  N1  UNL     1      36.515  -3.143  12.060  1.00  0.00    -0.280 N 
HETATM    7  C3  UNL     1      36.892  -3.681  13.224  1.00  0.00     0.104 A 
HETATM    8  C2  UNL     1      36.250  -4.761  13.801  1.00  0.00     0.092 A 
HETATM    9  C1  UNL     1      35.174  -5.316  13.158  1.00  0.00     0.250 A 
HETATM   10  O1  UNL     1      34.545  -6.311  13.640  1.00  0.00    -0.268 OA
HETATM   11  N2  UNL     1      34.807  -4.757  11.978  1.00  0.00    -0.275 N 
HETATM   12  C9  UNL     1      35.455  -3.707  11.448  1.00  0.00     0.331 A 
ATOM     13  H2  UNL     1      34.011  -5.148  11.475  1.00  0.00     0.173 HD
HETATM   14  O9  UNL     1      35.017  -3.273  10.340  1.00  0.00    -0.246 OA
ENDBRANCH   1   6
BRANCH   5  15
HETATM   15  O8  UNL     1      36.498  -0.191  10.104  1.00  0.00    -0.388 OA
ATOM     16  H8  UNL     1      36.708   0.731  10.192  1.00  0.00     0.210 HD
ENDBRANCH   5  15
BRANCH   3  17
HETATM   17  C6  UNL     1      39.715   0.036  12.770  1.00  0.00     0.198 C 
BRANCH  17  18
HETATM   18  O3  UNL     1      40.112   1.294  12.261  1.00  0.00    -0.398 OA
ATOM     19  H3  UNL     1      40.763   1.123  11.590  1.00  0.00     0.209 HD
ENDBRANCH  17  18
ENDBRANCH   3  17
BRANCH   4  20
HETATM   20  O4  UNL     1      37.171   1.422  11.863  1.00  0.00    -0.272 OA
BRANCH  20  21
HETATM   21  P1  UNL     1      36.844   2.410  13.138  1.00  0.00     0.422 P 
HETATM   22  O5  UNL     1      36.997   3.658  12.267  1.00  0.00    -0.617 OA
HETATM   23  O6  UNL     1      35.327   2.733  13.619  1.00  0.00    -0.617 OA
HETATM   24  O7  UNL     1      38.121   2.965  14.084  1.00  0.00    -0.617 OA
ENDBRANCH  20  21
ENDBRANCH   4  20
TORSDOF 6
ENDMDL
