MODEL 3
REMARK VINA RESULT: -5.969284490      4.144      8.320
REMARK  6 active torsions:
REMARK  status: ('A' for Active; 'I' for Inactive)
REMARK    1  A    between atoms: N1_5  and  C4_6 
REMARK    2  A    between atoms: C5_8  and  C6_9 
REMARK    3  A    between atoms: C6_9  and  O3_10 
REMARK    4  A    between atoms: C7_12  and  O4_13 
REMARK    5  A    between atoms: O4_13  and  P1_14 
REMARK    6  A    between atoms: C8_18  and  O8_19 
ROOT
HETATM    1  C4  UNL     1      34.780  -5.360  12.455  1.00  0.00     0.264 C 
HETATM    2  O2  UNL     1      34.957  -6.177  13.572  1.00  0.00    -0.353 OA
HETATM    3  C5  UNL     1      34.185  -7.313  13.341  1.00  0.00     0.180 C 
HETATM    4  C7  UNL     1      34.532  -7.614  11.900  1.00  0.00     0.199 C 
HETATM    5  C8  UNL     1      34.331  -6.194  11.335  1.00  0.00     0.199 C 
ENDROOT
BRANCH   1   6
HETATM    6  N1  UNL     1      35.973  -4.602  12.273  1.00  0.00    -0.280 N 
HETATM    7  C3  UNL     1      37.197  -4.953  12.680  1.00  0.00     0.104 A 
HETATM    8  C2  UNL     1      38.318  -4.171  12.471  1.00  0.00     0.092 A 
HETATM    9  C1  UNL     1      38.180  -2.974  11.816  1.00  0.00     0.250 A 
HETATM   10  O1  UNL     1      39.175  -2.213  11.596  1.00  0.00    -0.268 OA
HETATM   11  N2  UNL     1      36.931  -2.635  11.411  1.00  0.00    -0.275 N 
HETATM   12  C9  UNL     1      35.865  -3.422  11.631  1.00  0.00     0.331 A 
ATOM     13  H2  UNL     1      36.796  -1.751  10.921  1.00  0.00     0.173 HD
HETATM   14  O9  UNL     1      34.750  -2.995  11.204  1.00  0.00    -0.246 OA
ENDBRANCH   1   6
BRANCH   5  15
HETATM   15  O8  UNL     1      32.938  -6.068  11.186  1.00  0.00    -0.388 OA
ATOM     16  H8  UNL     1      32.593  -6.846  10.765  1.00  0.00     0.210 HD
ENDBRANCH   5  15
BRANCH   3  17
HETATM   17  C6  UNL     1      34.483  -8.423  14.281  1.00  0.00     0.198 C 
BRANCH  17  18
HETATM   18  O3  UNL     1      33.516  -9.426  14.043  1.00  0.00    -0.398 OA
ATOM     19  H3  UNL     1      32.764  -9.213  14.585  1.00  0.00     0.209 HD
ENDBRANCH  17  18
ENDBRANCH   3  17
BRANCH   4  20
HETATM   20  O4  UNL     1      33.589  -8.452  11.379  1.00  0.00    -0.272 OA
BRANCH  20  21
HETATM   21  P1  UNL     1      34.295  -9.495  10.320  1.00  0.00     0.422 P 
HETATM   22  O5  UNL     1      34.723 -10.428  11.454  1.00  0.00    -0.617 OA
HETATM   23  O6  UNL     1      33.444 -10.612   9.503  1.00  0.00    -0.617 OA
HETATM   24  O7  UNL     1      35.921  -9.287   9.936  1.00  0.00    -0.617 OA
ENDBRANCH  20  21
ENDBRANCH   4  20
TORSDOF 6
ENDMDL
