MODEL 2
REMARK VINA RESULT: -5.981229631      3.171      7.278
REMARK  6 active torsions:
REMARK  status: ('A' for Active; 'I' for Inactive)
REMARK    1  A    between atoms: N1_5  and  C4_6 
REMARK    2  A    between atoms: C5_8  and  C6_9 
REMARK    3  A    between atoms: C6_9  and  O3_10 
REMARK    4  A    between atoms: C7_12  and  O4_13 
REMARK    5  A    between atoms: O4_13  and  P1_14 
REMARK    6  A    between atoms: C8_18  and  O8_19 
ROOT
HETATM    1  C4  UNL     1      37.212  -4.342  13.470  1.00  0.00     0.264 C 
HETATM    2  O2  UNL     1      38.036  -5.043  12.590  1.00  0.00    -0.353 OA
HETATM    3  C5  UNL     1      37.635  -6.375  12.670  1.00  0.00     0.180 C 
HETATM    4  C7  UNL     1      36.130  -6.230  12.625  1.00  0.00     0.199 C 
HETATM    5  C8  UNL     1      35.993  -5.128  13.693  1.00  0.00     0.199 C 
ENDROOT
BRANCH   1   6
HETATM    6  N1  UNL     1      37.056  -3.018  12.964  1.00  0.00    -0.280 N 
HETATM    7  C3  UNL     1      36.654  -2.691  11.732  1.00  0.00     0.104 A 
HETATM    8  C2  UNL     1      36.523  -1.383  11.302  1.00  0.00     0.092 A 
HETATM    9  C1  UNL     1      36.817  -0.365  12.173  1.00  0.00     0.250 A 
HETATM   10  O1  UNL     1      36.715   0.857  11.833  1.00  0.00    -0.268 OA
HETATM   11  N2  UNL     1      37.223  -0.718  13.418  1.00  0.00    -0.275 N 
HETATM   12  C9  UNL     1      37.338  -2.000  13.800  1.00  0.00     0.331 A 
ATOM     13  H2  UNL     1      37.449   0.017  14.087  1.00  0.00     0.173 HD
HETATM   14  O9  UNL     1      37.727  -2.201  14.990  1.00  0.00    -0.246 OA
ENDBRANCH   1   6
BRANCH   5  15
HETATM   15  O8  UNL     1      36.095  -5.811  14.919  1.00  0.00    -0.388 OA
ATOM     16  H8  UNL     1      35.250  -5.808  15.353  1.00  0.00     0.210 HD
ENDBRANCH   5  15
BRANCH   3  17
HETATM   17  C6  UNL     1      38.196  -7.220  11.586  1.00  0.00     0.198 C 
BRANCH  17  18
HETATM   18  O3  UNL     1      37.774  -8.544  11.844  1.00  0.00    -0.398 OA
ATOM     19  H3  UNL     1      38.549  -9.033  12.095  1.00  0.00     0.209 HD
ENDBRANCH  17  18
ENDBRANCH   3  17
BRANCH   4  20
HETATM   20  O4  UNL     1      35.557  -7.383  13.078  1.00  0.00    -0.272 OA
BRANCH  20  21
HETATM   21  P1  UNL     1      34.041  -7.533  12.456  1.00  0.00     0.422 P 
HETATM   22  O5  UNL     1      33.520  -8.148  13.757  1.00  0.00    -0.617 OA
HETATM   23  O6  UNL     1      32.988  -6.297  12.429  1.00  0.00    -0.617 OA
HETATM   24  O7  UNL     1      33.624  -8.960  11.665  1.00  0.00    -0.617 OA
ENDBRANCH  20  21
ENDBRANCH   4  20
TORSDOF 6
ENDMDL
