MODEL 4
REMARK VINA RESULT: -5.936587473      3.479      5.250
REMARK  6 active torsions:
REMARK  status: ('A' for Active; 'I' for Inactive)
REMARK    1  A    between atoms: N1_5  and  C4_6 
REMARK    2  A    between atoms: C5_8  and  C6_9 
REMARK    3  A    between atoms: C6_9  and  O3_10 
REMARK    4  A    between atoms: C7_12  and  O4_13 
REMARK    5  A    between atoms: O4_13  and  P1_14 
REMARK    6  A    between atoms: C8_18  and  O8_19 
ROOT
HETATM    1  C4  UNL     1      35.094  -5.373  12.473  1.00  0.00     0.264 C 
HETATM    2  O2  UNL     1      34.861  -4.297  11.616  1.00  0.00    -0.353 OA
HETATM    3  C5  UNL     1      35.712  -3.280  12.041  1.00  0.00     0.180 C 
HETATM    4  C7  UNL     1      37.000  -4.045  12.251  1.00  0.00     0.199 C 
HETATM    5  C8  UNL     1      36.421  -5.208  13.077  1.00  0.00     0.199 C 
ENDROOT
BRANCH   1   6
HETATM    6  N1  UNL     1      34.847  -6.574  11.746  1.00  0.00    -0.280 N 
HETATM    7  C3  UNL     1      35.771  -7.336  11.152  1.00  0.00     0.104 A 
HETATM    8  C2  UNL     1      35.465  -8.493  10.459  1.00  0.00     0.092 A 
HETATM    9  C1  UNL     1      34.155  -8.888  10.371  1.00  0.00     0.250 A 
HETATM   10  O1  UNL     1      33.814  -9.943   9.747  1.00  0.00    -0.268 OA
HETATM   11  N2  UNL     1      33.233  -8.102  10.980  1.00  0.00    -0.275 N 
HETATM   12  C9  UNL     1      33.567  -6.984  11.644  1.00  0.00     0.331 A 
ATOM     13  H2  UNL     1      32.250  -8.369  10.931  1.00  0.00     0.173 HD
HETATM   14  O9  UNL     1      32.615  -6.333  12.171  1.00  0.00    -0.246 OA
ENDBRANCH   1   6
BRANCH   5  15
HETATM   15  O8  UNL     1      36.282  -4.685  14.375  1.00  0.00    -0.388 OA
ATOM     16  H8  UNL     1      37.003  -4.093  14.556  1.00  0.00     0.210 HD
ENDBRANCH   5  15
BRANCH   3  17
HETATM   17  C6  UNL     1      35.821  -2.164  11.066  1.00  0.00     0.198 C 
BRANCH  17  18
HETATM   18  O3  UNL     1      34.502  -1.836  10.676  1.00  0.00    -0.398 OA
ATOM     19  H3  UNL     1      34.432  -0.890  10.722  1.00  0.00     0.209 HD
ENDBRANCH  17  18
ENDBRANCH   3  17
BRANCH   4  20
HETATM   20  O4  UNL     1      37.839  -3.301  13.030  1.00  0.00    -0.272 OA
BRANCH  20  21
HETATM   21  P1  UNL     1      39.332  -3.239  12.339  1.00  0.00     0.422 P 
HETATM   22  O5  UNL     1      39.943  -2.641  13.608  1.00  0.00    -0.617 OA
HETATM   23  O6  UNL     1      40.315  -4.531  12.279  1.00  0.00    -0.617 OA
HETATM   24  O7  UNL     1      39.788  -1.844  11.513  1.00  0.00    -0.617 OA
ENDBRANCH  20  21
ENDBRANCH   4  20
TORSDOF 6
ENDMDL
