MODEL 5
REMARK VINA RESULT: -8.120224354      1.958      3.347
REMARK  14 active torsions:
REMARK  status: ('A' for Active; 'I' for Inactive)
REMARK    1  A    between atoms: C2_2  and  C10_19 
REMARK    2  A    between atoms: C3_3  and  C4_4 
REMARK    3  A    between atoms: C4_4  and  C5_5 
REMARK    4  A    between atoms: C5_5  and  C6_6 
REMARK    5  A    between atoms: C8_8  and  C9_9 
REMARK    6  A    between atoms: C9_9  and  O1_10 
REMARK    7  A    between atoms: O1_10  and  P1_11 
REMARK    8  A    between atoms: P1_11  and  O4_14 
REMARK    9  A    between atoms: O4_14  and  P2_15 
REMARK   10  A    between atoms: C10_19  and  O8_20 
REMARK   11  A    between atoms: O8_20  and  C11_21 
REMARK   12  A    between atoms: C11_21  and  C12_22 
REMARK   13  A    between atoms: C16_26  and  C17_27 
REMARK   14  A    between atoms: C17_27  and  C18_29 
ROOT
HETATM    1  C1  UNL     1     183.263 120.436  32.011  1.00  0.00     0.050 C 
HETATM    2  C2  UNL     1     184.253 121.265  31.128  1.00  0.00    -0.044 C 
HETATM    3  C3  UNL     1     183.640 122.014  30.274  1.00  0.00    -0.018 C 
ENDROOT
BRANCH   2   4
HETATM    4  C10 UNL     1     185.658 121.161  31.482  1.00  0.00     0.141 C 
BRANCH   4   5
HETATM    5  O8  UNL     1     186.412 122.238  31.742  1.00  0.00    -0.358 OA
BRANCH   5   6
HETATM    6  C11 UNL     1     186.410 122.699  33.063  1.00  0.00     0.213 C 
BRANCH   6   7
HETATM    7  C12 UNL     1     185.683 124.020  33.086  1.00  0.00    -0.033 A 
HETATM    8  C13 UNL     1     184.359 124.048  33.423  1.00  0.00     0.009 A 
HETATM    9  C14 UNL     1     183.716 125.290  33.426  1.00  0.00     0.002 A 
HETATM   10  C15 UNL     1     184.422 126.418  33.096  1.00  0.00     0.015 A 
HETATM   11  C16 UNL     1     185.751 126.369  32.761  1.00  0.00     0.015 A 
HETATM   12  C24 UNL     1     186.397 125.132  32.756  1.00  0.00     0.024 A 
BRANCH  11  13
HETATM   13  C17 UNL     1     186.525 127.575  32.431  1.00  0.00     0.192 C 
HETATM   14  O9  UNL     1     186.944 127.675  31.246  1.00  0.00    -0.287 OA
BRANCH  13  15
HETATM   15  C18 UNL     1     186.811 128.612  33.386  1.00  0.00     0.015 A 
HETATM   16  C19 UNL     1     187.961 128.668  34.122  1.00  0.00     0.015 A 
HETATM   17  C20 UNL     1     188.171 129.696  35.049  1.00  0.00     0.001 A 
HETATM   18  C21 UNL     1     187.233 130.684  35.248  1.00  0.00     0.000 A 
HETATM   19  C22 UNL     1     186.075 130.629  34.508  1.00  0.00     0.001 A 
HETATM   20  C23 UNL     1     185.869 129.619  33.598  1.00  0.00     0.015 A 
ENDBRANCH  13  15
ENDBRANCH  11  13
ENDBRANCH   6   7
ENDBRANCH   5   6
ENDBRANCH   4   5
ENDBRANCH   2   4
BRANCH   3  21
HETATM   21  C4  UNL     1     184.235 122.919  29.270  1.00  0.00     0.032 C 
BRANCH  21  22
HETATM   22  C5  UNL     1     184.196 124.372  29.784  1.00  0.00     0.037 C 
BRANCH  22  23
HETATM   23  C6  UNL     1     185.276 125.178  29.163  1.00  0.00    -0.085 C 
HETATM   24  C7  UNL     1     186.682 124.747  29.396  1.00  0.00     0.043 C 
HETATM   25  C8  UNL     1     184.981 126.235  28.433  1.00  0.00     0.002 C 
BRANCH  25  26
HETATM   26  C9  UNL     1     185.998 127.091  27.779  1.00  0.00     0.209 C 
BRANCH  26  27
HETATM   27  O1  UNL     1     185.457 127.853  26.827  1.00  0.00    -0.286 OA
BRANCH  27  28
HETATM   28  P1  UNL     1     184.839 127.238  25.452  1.00  0.00     0.418 P 
HETATM   29  O2  UNL     1     185.430 127.742  24.007  1.00  0.00    -0.624 OA
HETATM   30  O3  UNL     1     185.717 125.974  25.552  1.00  0.00    -0.624 OA
BRANCH  28  31
HETATM   31  O4  UNL     1     183.816 128.388  25.477  1.00  0.00    -0.173 OA
BRANCH  31  32
HETATM   32  P2  UNL     1     182.459 128.365  26.181  1.00  0.00     0.431 P 
HETATM   33  O5  UNL     1     181.691 127.734  24.880  1.00  0.00    -0.616 OA
HETATM   34  O6  UNL     1     181.137 128.476  26.977  1.00  0.00    -0.616 OA
HETATM   35  O7  UNL     1     182.605 130.026  26.289  1.00  0.00    -0.616 OA
ENDBRANCH  31  32
ENDBRANCH  28  31
ENDBRANCH  27  28
ENDBRANCH  26  27
ENDBRANCH  25  26
ENDBRANCH  22  23
ENDBRANCH  21  22
ENDBRANCH   3  21
TORSDOF 14
ENDMDL
