MODEL 6
REMARK VINA RESULT: -8.109369359      4.386      6.645
REMARK  14 active torsions:
REMARK  status: ('A' for Active; 'I' for Inactive)
REMARK    1  A    between atoms: C2_2  and  C10_19 
REMARK    2  A    between atoms: C3_3  and  C4_4 
REMARK    3  A    between atoms: C4_4  and  C5_5 
REMARK    4  A    between atoms: C5_5  and  C6_6 
REMARK    5  A    between atoms: C8_8  and  C9_9 
REMARK    6  A    between atoms: C9_9  and  O1_10 
REMARK    7  A    between atoms: O1_10  and  P1_11 
REMARK    8  A    between atoms: P1_11  and  O4_14 
REMARK    9  A    between atoms: O4_14  and  P2_15 
REMARK   10  A    between atoms: C10_19  and  O8_20 
REMARK   11  A    between atoms: O8_20  and  C11_21 
REMARK   12  A    between atoms: C11_21  and  C12_22 
REMARK   13  A    between atoms: C16_26  and  C17_27 
REMARK   14  A    between atoms: C17_27  and  C18_29 
ROOT
HETATM    1  C1  UNL     1     182.570 120.456  32.211  1.00  0.00     0.050 C 
HETATM    2  C2  UNL     1     183.922 120.840  31.525  1.00  0.00    -0.044 C 
HETATM    3  C3  UNL     1     184.945 120.394  32.174  1.00  0.00    -0.018 C 
ENDROOT
BRANCH   2   4
HETATM    4  C10 UNL     1     183.815 121.508  30.239  1.00  0.00     0.141 C 
BRANCH   4   5
HETATM    5  O8  UNL     1     184.450 122.658  29.975  1.00  0.00    -0.358 OA
BRANCH   5   6
HETATM    6  C11 UNL     1     184.551 123.572  31.029  1.00  0.00     0.213 C 
BRANCH   6   7
HETATM    7  C12 UNL     1     185.959 124.113  31.032  1.00  0.00    -0.033 A 
HETATM    8  C13 UNL     1     186.766 123.880  29.953  1.00  0.00     0.009 A 
HETATM    9  C14 UNL     1     188.067 124.391  29.994  1.00  0.00     0.002 A 
HETATM   10  C15 UNL     1     188.483 125.095  31.095  1.00  0.00     0.015 A 
HETATM   11  C16 UNL     1     187.658 125.319  32.166  1.00  0.00     0.015 A 
HETATM   12  C24 UNL     1     186.358 124.811  32.131  1.00  0.00     0.024 A 
BRANCH  11  13
HETATM   13  C17 UNL     1     188.085 126.095  33.340  1.00  0.00     0.192 C 
HETATM   14  O9  UNL     1     188.958 125.568  34.083  1.00  0.00    -0.287 OA
BRANCH  13  15
HETATM   15  C18 UNL     1     187.557 127.394  33.660  1.00  0.00     0.015 A 
HETATM   16  C19 UNL     1     186.282 127.786  33.365  1.00  0.00     0.015 A 
HETATM   17  C20 UNL     1     185.834 129.073  33.688  1.00  0.00     0.001 A 
HETATM   18  C21 UNL     1     186.656 129.982  34.313  1.00  0.00     0.000 A 
HETATM   19  C22 UNL     1     187.940 129.590  34.610  1.00  0.00     0.001 A 
HETATM   20  C23 UNL     1     188.380 128.325  34.292  1.00  0.00     0.015 A 
ENDBRANCH  13  15
ENDBRANCH  11  13
ENDBRANCH   6   7
ENDBRANCH   5   6
ENDBRANCH   4   5
ENDBRANCH   2   4
BRANCH   3  21
HETATM   21  C4  UNL     1     186.374 120.567  31.844  1.00  0.00     0.032 C 
BRANCH  21  22
HETATM   22  C5  UNL     1     187.077 121.370  32.957  1.00  0.00     0.037 C 
BRANCH  22  23
HETATM   23  C6  UNL     1     188.539 121.441  32.710  1.00  0.00    -0.085 C 
HETATM   24  C7  UNL     1     189.402 121.951  33.811  1.00  0.00     0.043 C 
HETATM   25  C8  UNL     1     189.037 121.060  31.551  1.00  0.00     0.002 C 
BRANCH  25  26
HETATM   26  C9  UNL     1     190.482 121.099  31.225  1.00  0.00     0.209 C 
BRANCH  26  27
HETATM   27  O1  UNL     1     190.790 122.170  30.493  1.00  0.00    -0.286 OA
BRANCH  27  28
HETATM   28  P1  UNL     1     192.286 122.812  30.455  1.00  0.00     0.418 P 
HETATM   29  O2  UNL     1     193.579 121.864  30.797  1.00  0.00    -0.624 OA
HETATM   30  O3  UNL     1     192.376 122.662  28.923  1.00  0.00    -0.624 OA
BRANCH  28  31
HETATM   31  O4  UNL     1     192.101 123.160  31.943  1.00  0.00    -0.173 OA
BRANCH  31  32
HETATM   32  P2  UNL     1     192.928 124.174  32.737  1.00  0.00     0.431 P 
HETATM   33  O5  UNL     1     192.191 123.806  34.151  1.00  0.00    -0.616 OA
HETATM   34  O6  UNL     1     193.768 125.290  33.400  1.00  0.00    -0.616 OA
HETATM   35  O7  UNL     1     192.238 125.342  31.760  1.00  0.00    -0.616 OA
ENDBRANCH  31  32
ENDBRANCH  28  31
ENDBRANCH  27  28
ENDBRANCH  26  27
ENDBRANCH  25  26
ENDBRANCH  22  23
ENDBRANCH  21  22
ENDBRANCH   3  21
TORSDOF 14
ENDMDL
