MODEL 1
REMARK VINA RESULT: -8.252857451      0.000      0.000
REMARK  14 active torsions:
REMARK  status: ('A' for Active; 'I' for Inactive)
REMARK    1  A    between atoms: C2_2  and  C10_19 
REMARK    2  A    between atoms: C3_3  and  C4_4 
REMARK    3  A    between atoms: C4_4  and  C5_5 
REMARK    4  A    between atoms: C5_5  and  C6_6 
REMARK    5  A    between atoms: C8_8  and  C9_9 
REMARK    6  A    between atoms: C9_9  and  O1_10 
REMARK    7  A    between atoms: O1_10  and  P1_11 
REMARK    8  A    between atoms: P1_11  and  O4_14 
REMARK    9  A    between atoms: O4_14  and  P2_15 
REMARK   10  A    between atoms: C10_19  and  O8_20 
REMARK   11  A    between atoms: O8_20  and  C11_21 
REMARK   12  A    between atoms: C11_21  and  C12_22 
REMARK   13  A    between atoms: C16_26  and  C17_27 
REMARK   14  A    between atoms: C17_27  and  C18_29 
ROOT
HETATM    1  C1  UNL     1     188.235 121.656  33.711  1.00  0.00     0.050 C 
HETATM    2  C2  UNL     1     187.836 122.399  32.394  1.00  0.00    -0.044 C 
HETATM    3  C3  UNL     1     188.385 123.564  32.303  1.00  0.00    -0.018 C 
ENDROOT
BRANCH   2   4
HETATM    4  C10 UNL     1     187.038 121.635  31.450  1.00  0.00     0.141 C 
BRANCH   4   5
HETATM    5  O8  UNL     1     185.702 121.570  31.531  1.00  0.00    -0.358 OA
BRANCH   5   6
HETATM    6  C11 UNL     1     184.985 122.515  30.790  1.00  0.00     0.213 C 
BRANCH   6   7
HETATM    7  C12 UNL     1     184.541 123.600  31.739  1.00  0.00    -0.033 A 
HETATM    8  C13 UNL     1     184.165 123.263  33.009  1.00  0.00     0.009 A 
HETATM    9  C14 UNL     1     183.752 124.293  33.859  1.00  0.00     0.002 A 
HETATM   10  C15 UNL     1     183.738 125.585  33.398  1.00  0.00     0.015 A 
HETATM   11  C16 UNL     1     184.120 125.903  32.120  1.00  0.00     0.015 A 
HETATM   12  C24 UNL     1     184.532 124.878  31.268  1.00  0.00     0.024 A 
BRANCH  11  13
HETATM   13  C17 UNL     1     184.133 127.287  31.623  1.00  0.00     0.192 C 
HETATM   14  O9  UNL     1     183.340 127.561  30.682  1.00  0.00    -0.287 OA
BRANCH  13  15
HETATM   15  C18 UNL     1     184.994 128.307  32.160  1.00  0.00     0.015 A 
HETATM   16  C19 UNL     1     185.200 129.517  31.559  1.00  0.00     0.015 A 
HETATM   17  C20 UNL     1     186.065 130.462  32.125  1.00  0.00     0.001 A 
HETATM   18  C21 UNL     1     186.734 130.207  33.301  1.00  0.00     0.000 A 
HETATM   19  C22 UNL     1     186.528 128.989  33.906  1.00  0.00     0.001 A 
HETATM   20  C23 UNL     1     185.678 128.062  33.350  1.00  0.00     0.015 A 
ENDBRANCH  13  15
ENDBRANCH  11  13
ENDBRANCH   6   7
ENDBRANCH   5   6
ENDBRANCH   4   5
ENDBRANCH   2   4
BRANCH   3  21
HETATM   21  C4  UNL     1     188.235 124.555  31.217  1.00  0.00     0.032 C 
BRANCH  21  22
HETATM   22  C5  UNL     1     188.121 125.972  31.811  1.00  0.00     0.037 C 
BRANCH  22  23
HETATM   23  C6  UNL     1     188.078 126.992  30.734  1.00  0.00    -0.085 C 
HETATM   24  C7  UNL     1     189.016 128.144  30.834  1.00  0.00     0.043 C 
HETATM   25  C8  UNL     1     187.233 126.864  29.731  1.00  0.00     0.002 C 
BRANCH  25  26
HETATM   26  C9  UNL     1     187.127 127.835  28.617  1.00  0.00     0.209 C 
BRANCH  26  27
HETATM   27  O1  UNL     1     186.714 127.247  27.493  1.00  0.00    -0.286 OA
BRANCH  27  28
HETATM   28  P1  UNL     1     185.169 127.306  26.983  1.00  0.00     0.418 P 
HETATM   29  O2  UNL     1     184.075 126.251  27.599  1.00  0.00    -0.624 OA
HETATM   30  O3  UNL     1     184.834 128.465  27.945  1.00  0.00    -0.624 OA
BRANCH  28  31
HETATM   31  O4  UNL     1     185.565 126.309  25.880  1.00  0.00    -0.173 OA
BRANCH  31  32
HETATM   32  P2  UNL     1     185.531 126.578  24.374  1.00  0.00     0.431 P 
HETATM   33  O5  UNL     1     184.192 127.514  24.478  1.00  0.00    -0.616 OA
HETATM   34  O6  UNL     1     185.563 126.699  22.833  1.00  0.00    -0.616 OA
HETATM   35  O7  UNL     1     185.336 124.928  24.191  1.00  0.00    -0.616 OA
ENDBRANCH  31  32
ENDBRANCH  28  31
ENDBRANCH  27  28
ENDBRANCH  26  27
ENDBRANCH  25  26
ENDBRANCH  22  23
ENDBRANCH  21  22
ENDBRANCH   3  21
TORSDOF 14
ENDMDL
