MODEL 2
REMARK VINA RESULT: -8.258691015      0.874      1.137
REMARK  5 active torsions:
REMARK  status: ('A' for Active; 'I' for Inactive)
REMARK    1  A    between atoms: C1_2  and  C2_6 
REMARK    2  A    between atoms: C6_12  and  C7_13 
REMARK    3  A    between atoms: C11_17  and  O1_18 
REMARK    4  A    between atoms: O1_18  and  C12_19 
REMARK    5  A    between atoms: C17_24  and  O2_25 
ROOT
HETATM    1  C2  UNL     1      44.215  -2.968  26.075  1.00  0.00     0.005 A 
HETATM    2  C3  UNL     1      44.575  -1.645  26.049  1.00  0.00     0.017 A 
HETATM    3  C4  UNL     1      44.535  -0.851  27.171  1.00  0.00     0.031 A 
HETATM    4  C5  UNL     1      44.121  -1.386  28.381  1.00  0.00     0.043 A 
HETATM    5  N3  UNL     1      43.977  -0.877  29.621  1.00  0.00    -0.355 N 
ATOM      6  H3  UNL     1      44.184   0.095  29.856  1.00  0.00     0.166 HD
HETATM    7  C6  UNL     1      43.541  -1.764  30.507  1.00  0.00     0.046 A 
HETATM    8  C18 UNL     1      43.390  -2.949  29.768  1.00  0.00     0.044 A 
HETATM    9  C19 UNL     1      43.749  -2.709  28.458  1.00  0.00    -0.006 A 
HETATM   10  C20 UNL     1      43.805  -3.462  27.312  1.00  0.00     0.028 A 
ENDROOT
BRANCH   7  11
HETATM   11  C7  UNL     1      43.255  -1.634  31.932  1.00  0.00     0.027 A 
HETATM   12  C8  UNL     1      42.180  -2.301  32.504  1.00  0.00     0.017 A 
HETATM   13  C9  UNL     1      41.858  -2.222  33.834  1.00  0.00     0.004 A 
HETATM   14  C10 UNL     1      42.640  -1.431  34.685  1.00  0.00     0.040 A 
HETATM   15  C11 UNL     1      43.708  -0.760  34.153  1.00  0.00     0.103 A 
HETATM   16  C17 UNL     1      44.012  -0.865  32.773  1.00  0.00     0.111 A 
BRANCH  15  17
HETATM   17  O1  UNL     1      44.500   0.026  34.954  1.00  0.00    -0.343 OA
BRANCH  17  18
HETATM   18  C12 UNL     1      44.058   1.011  35.812  1.00  0.00     0.129 C 
HETATM   19  C13 UNL     1      43.924   2.369  35.136  1.00  0.00     0.032 C 
HETATM   20  C14 UNL     1      43.910   3.298  36.331  1.00  0.00     0.002 C 
HETATM   21  C15 UNL     1      44.998   2.748  37.199  1.00  0.00     0.002 C 
HETATM   22  C16 UNL     1      45.169   1.308  36.809  1.00  0.00     0.032 C 
ENDBRANCH  17  18
ENDBRANCH  15  17
BRANCH  16  23
HETATM   23  O2  UNL     1      45.100  -0.164  32.303  1.00  0.00    -0.357 OA
ATOM     24  H2  UNL     1      45.107   0.191  31.421  1.00  0.00     0.217 HD
ENDBRANCH  16  23
ENDBRANCH   7  11
BRANCH   1  25
HETATM   25  C1  UNL     1      44.250  -3.818  24.904  1.00  0.00     0.120 C 
HETATM   26  N1  UNL     1      43.847  -3.285  23.659  1.00  0.00    -0.082 NA
HETATM   27  N2  UNL     1      44.634  -5.026  24.978  1.00  0.00    -0.387 N 
ATOM     28  H22 UNL     1      44.658  -5.625  24.153  1.00  0.00     0.157 HD
ATOM     29  H21 UNL     1      44.925  -5.411  25.876  1.00  0.00     0.157 HD
ENDBRANCH   1  25
TORSDOF 5
ENDMDL
