MODEL 1
REMARK VINA RESULT: -8.640274217      0.000      0.000
REMARK  5 active torsions:
REMARK  status: ('A' for Active; 'I' for Inactive)
REMARK    1  A    between atoms: C1_2  and  C2_6 
REMARK    2  A    between atoms: C6_12  and  C7_13 
REMARK    3  A    between atoms: C11_17  and  O1_18 
REMARK    4  A    between atoms: O1_18  and  C12_19 
REMARK    5  A    between atoms: C17_24  and  O2_25 
ROOT
HETATM    1  C2  UNL     1      44.224  -2.841  26.196  1.00  0.00     0.005 A 
HETATM    2  C3  UNL     1      44.504  -1.501  26.271  1.00  0.00     0.017 A 
HETATM    3  C4  UNL     1      44.396  -0.793  27.445  1.00  0.00     0.031 A 
HETATM    4  C5  UNL     1      43.992  -1.436  28.605  1.00  0.00     0.043 A 
HETATM    5  N3  UNL     1      43.796  -1.027  29.875  1.00  0.00    -0.355 N 
ATOM      6  H3  UNL     1      43.939  -0.064  30.182  1.00  0.00     0.166 HD
HETATM    7  C6  UNL     1      43.397  -1.999  30.685  1.00  0.00     0.046 A 
HETATM    8  C18 UNL     1      43.332  -3.135  29.861  1.00  0.00     0.044 A 
HETATM    9  C19 UNL     1      43.700  -2.781  28.580  1.00  0.00    -0.006 A 
HETATM   10  C20 UNL     1      43.822  -3.446  27.385  1.00  0.00     0.028 A 
ENDROOT
BRANCH   7  11
HETATM   11  C7  UNL     1      43.078  -1.989  32.109  1.00  0.00     0.027 A 
HETATM   12  C8  UNL     1      42.412  -3.057  32.695  1.00  0.00     0.017 A 
HETATM   13  C9  UNL     1      42.083  -3.109  34.024  1.00  0.00     0.004 A 
HETATM   14  C10 UNL     1      42.426  -2.039  34.861  1.00  0.00     0.040 A 
HETATM   15  C11 UNL     1      43.084  -0.971  34.315  1.00  0.00     0.103 A 
HETATM   16  C17 UNL     1      43.409  -0.950  32.936  1.00  0.00     0.111 A 
BRANCH  15  17
HETATM   17  O1  UNL     1      43.439   0.099  35.101  1.00  0.00    -0.343 OA
BRANCH  17  18
HETATM   18  C12 UNL     1      44.304   0.063  36.173  1.00  0.00     0.129 C 
HETATM   19  C13 UNL     1      44.400   1.397  36.902  1.00  0.00     0.032 C 
HETATM   20  C14 UNL     1      45.696   1.229  37.665  1.00  0.00     0.002 C 
HETATM   21  C15 UNL     1      46.607   0.607  36.651  1.00  0.00     0.002 C 
HETATM   22  C16 UNL     1      45.724  -0.061  35.637  1.00  0.00     0.032 C 
ENDBRANCH  17  18
ENDBRANCH  15  17
BRANCH  16  23
HETATM   23  O2  UNL     1      44.071   0.156  32.451  1.00  0.00    -0.357 OA
ATOM     24  H2  UNL     1      44.421   0.813  33.042  1.00  0.00     0.217 HD
ENDBRANCH  16  23
ENDBRANCH   7  11
BRANCH   1  25
HETATM   25  C1  UNL     1      44.332  -3.601  24.969  1.00  0.00     0.120 C 
HETATM   26  N1  UNL     1      44.466  -2.910  23.745  1.00  0.00    -0.082 NA
HETATM   27  N2  UNL     1      44.307  -4.870  24.977  1.00  0.00    -0.387 N 
ATOM     28  H22 UNL     1      44.383  -5.407  24.112  1.00  0.00     0.157 HD
ATOM     29  H21 UNL     1      44.211  -5.370  25.860  1.00  0.00     0.157 HD
ENDBRANCH   1  25
TORSDOF 5
ENDMDL
