MODEL 13
REMARK VINA RESULT: -6.884746830      3.647      9.385
REMARK  5 active torsions:
REMARK  status: ('A' for Active; 'I' for Inactive)
REMARK    1  A    between atoms: C1_2  and  C2_6 
REMARK    2  A    between atoms: C6_12  and  C7_13 
REMARK    3  A    between atoms: C11_17  and  O1_18 
REMARK    4  A    between atoms: O1_18  and  C12_19 
REMARK    5  A    between atoms: C17_24  and  O2_25 
ROOT
HETATM    1  C2  UNL     1      45.858   0.895  38.876  1.00  0.00     0.005 A 
HETATM    2  C3  UNL     1      47.014   0.815  38.143  1.00  0.00     0.017 A 
HETATM    3  C4  UNL     1      47.017   0.480  36.810  1.00  0.00     0.031 A 
HETATM    4  C5  UNL     1      45.820   0.210  36.163  1.00  0.00     0.043 A 
HETATM    5  N3  UNL     1      45.505  -0.137  34.899  1.00  0.00    -0.355 N 
ATOM      6  H3  UNL     1      46.199  -0.260  34.161  1.00  0.00     0.166 HD
HETATM    7  C6  UNL     1      44.201  -0.302  34.708  1.00  0.00     0.046 A 
HETATM    8  C18 UNL     1      43.629  -0.039  35.964  1.00  0.00     0.044 A 
HETATM    9  C19 UNL     1      44.632   0.277  36.856  1.00  0.00    -0.006 A 
HETATM   10  C20 UNL     1      44.679   0.615  38.186  1.00  0.00     0.028 A 
ENDROOT
BRANCH   7  11
HETATM   11  C7  UNL     1      43.447  -0.670  33.514  1.00  0.00     0.027 A 
HETATM   12  C8  UNL     1      42.120  -1.068  33.607  1.00  0.00     0.017 A 
HETATM   13  C9  UNL     1      41.357  -1.426  32.527  1.00  0.00     0.004 A 
HETATM   14  C10 UNL     1      41.923  -1.398  31.246  1.00  0.00     0.040 A 
HETATM   15  C11 UNL     1      43.229  -1.010  31.119  1.00  0.00     0.103 A 
HETATM   16  C17 UNL     1      43.988  -0.646  32.258  1.00  0.00     0.111 A 
BRANCH  15  17
HETATM   17  O1  UNL     1      43.821  -0.969  29.880  1.00  0.00    -0.343 OA
BRANCH  17  18
HETATM   18  C12 UNL     1      43.386  -1.633  28.753  1.00  0.00     0.129 C 
HETATM   19  C13 UNL     1      43.798  -3.100  28.734  1.00  0.00     0.032 C 
HETATM   20  C14 UNL     1      43.639  -3.436  27.267  1.00  0.00     0.002 C 
HETATM   21  C15 UNL     1      44.241  -2.249  26.581  1.00  0.00     0.002 C 
HETATM   22  C16 UNL     1      44.172  -1.111  27.558  1.00  0.00     0.032 C 
ENDBRANCH  17  18
ENDBRANCH  15  17
BRANCH  16  23
HETATM   23  O2  UNL     1      45.297  -0.266  32.060  1.00  0.00    -0.357 OA
ATOM     24  H2  UNL     1      45.629  -0.099  31.185  1.00  0.00     0.217 HD
ENDBRANCH  16  23
ENDBRANCH   7  11
BRANCH   1  25
HETATM   25  C1  UNL     1      45.836   1.245  40.280  1.00  0.00     0.120 C 
HETATM   26  N1  UNL     1      45.142   2.406  40.685  1.00  0.00    -0.082 NA
HETATM   27  N2  UNL     1      46.428   0.530  41.146  1.00  0.00    -0.387 N 
ATOM     28  H22 UNL     1      46.414   0.777  42.136  1.00  0.00     0.157 HD
ATOM     29  H21 UNL     1      46.929  -0.309  40.854  1.00  0.00     0.157 HD
ENDBRANCH   1  25
TORSDOF 5
ENDMDL
