MODEL 3
REMARK VINA RESULT: -8.105885800      1.116      1.635
REMARK  5 active torsions:
REMARK  status: ('A' for Active; 'I' for Inactive)
REMARK    1  A    between atoms: C1_2  and  C2_6 
REMARK    2  A    between atoms: C6_12  and  C7_13 
REMARK    3  A    between atoms: C11_17  and  O1_18 
REMARK    4  A    between atoms: O1_18  and  C12_19 
REMARK    5  A    between atoms: C17_24  and  O2_25 
ROOT
HETATM    1  C2  UNL     1      44.232  -2.830  26.221  1.00  0.00     0.005 A 
HETATM    2  C3  UNL     1      44.539  -1.497  26.313  1.00  0.00     0.017 A 
HETATM    3  C4  UNL     1      44.433  -0.797  27.492  1.00  0.00     0.031 A 
HETATM    4  C5  UNL     1      44.000  -1.442  28.640  1.00  0.00     0.043 A 
HETATM    5  N3  UNL     1      43.797  -1.040  29.912  1.00  0.00    -0.355 N 
ATOM      6  H3  UNL     1      43.958  -0.084  30.229  1.00  0.00     0.166 HD
HETATM    7  C6  UNL     1      43.367  -2.012  30.708  1.00  0.00     0.046 A 
HETATM    8  C18 UNL     1      43.287  -3.138  29.873  1.00  0.00     0.044 A 
HETATM    9  C19 UNL     1      43.679  -2.780  28.600  1.00  0.00    -0.006 A 
HETATM   10  C20 UNL     1      43.801  -3.437  27.400  1.00  0.00     0.028 A 
ENDROOT
BRANCH   7  11
HETATM   11  C7  UNL     1      43.031  -2.007  32.128  1.00  0.00     0.027 A 
HETATM   12  C8  UNL     1      42.367  -3.082  32.704  1.00  0.00     0.017 A 
HETATM   13  C9  UNL     1      42.023  -3.141  34.028  1.00  0.00     0.004 A 
HETATM   14  C10 UNL     1      42.346  -2.070  34.871  1.00  0.00     0.040 A 
HETATM   15  C11 UNL     1      43.001  -0.994  34.336  1.00  0.00     0.103 A 
HETATM   16  C17 UNL     1      43.342  -0.967  32.961  1.00  0.00     0.111 A 
BRANCH  15  17
HETATM   17  O1  UNL     1      43.336   0.077  35.128  1.00  0.00    -0.343 OA
BRANCH  17  18
HETATM   18  C12 UNL     1      42.591   0.572  36.177  1.00  0.00     0.129 C 
HETATM   19  C13 UNL     1      41.447   1.469  35.720  1.00  0.00     0.032 C 
HETATM   20  C14 UNL     1      41.129   2.221  36.994  1.00  0.00     0.002 C 
HETATM   21  C15 UNL     1      42.484   2.570  37.527  1.00  0.00     0.002 C 
HETATM   22  C16 UNL     1      43.444   1.579  36.935  1.00  0.00     0.032 C 
ENDBRANCH  17  18
ENDBRANCH  15  17
BRANCH  16  23
HETATM   23  O2  UNL     1      44.000   0.145  32.486  1.00  0.00    -0.357 OA
ATOM     24  H2  UNL     1      44.052   0.939  33.006  1.00  0.00     0.217 HD
ENDBRANCH  16  23
ENDBRANCH   7  11
BRANCH   1  25
HETATM   25  C1  UNL     1      44.338  -3.581  24.989  1.00  0.00     0.120 C 
HETATM   26  N1  UNL     1      44.473  -2.880  23.770  1.00  0.00    -0.082 NA
HETATM   27  N2  UNL     1      44.311  -4.850  24.987  1.00  0.00    -0.387 N 
ATOM     28  H22 UNL     1      44.385  -5.380  24.118  1.00  0.00     0.157 HD
ATOM     29  H21 UNL     1      44.214  -5.356  25.867  1.00  0.00     0.157 HD
ENDBRANCH   1  25
TORSDOF 5
ENDMDL
