MODEL 11
REMARK VINA RESULT: -6.999329893      4.272      8.815
REMARK  5 active torsions:
REMARK  status: ('A' for Active; 'I' for Inactive)
REMARK    1  A    between atoms: C1_2  and  C2_6 
REMARK    2  A    between atoms: C6_12  and  C7_13 
REMARK    3  A    between atoms: C11_17  and  O1_18 
REMARK    4  A    between atoms: O1_18  and  C12_19 
REMARK    5  A    between atoms: C17_24  and  O2_25 
ROOT
HETATM    1  C2  UNL     1      38.440   2.040  34.692  1.00  0.00     0.005 A 
HETATM    2  C3  UNL     1      37.699   1.977  33.541  1.00  0.00     0.017 A 
HETATM    3  C4  UNL     1      38.049   1.168  32.485  1.00  0.00     0.031 A 
HETATM    4  C5  UNL     1      39.187   0.381  32.567  1.00  0.00     0.043 A 
HETATM    5  N3  UNL     1      39.777  -0.491  31.723  1.00  0.00    -0.355 N 
ATOM      6  H3  UNL     1      39.410  -0.709  30.796  1.00  0.00     0.166 HD
HETATM    7  C6  UNL     1      40.881  -1.037  32.218  1.00  0.00     0.046 A 
HETATM    8  C18 UNL     1      41.012  -0.464  33.493  1.00  0.00     0.044 A 
HETATM    9  C19 UNL     1      39.965   0.409  33.702  1.00  0.00    -0.006 A 
HETATM   10  C20 UNL     1      39.575   1.232  34.730  1.00  0.00     0.028 A 
ENDROOT
BRANCH   7  11
HETATM   11  C7  UNL     1      41.806  -2.010  31.647  1.00  0.00     0.027 A 
HETATM   12  C8  UNL     1      41.946  -3.272  32.211  1.00  0.00     0.017 A 
HETATM   13  C9  UNL     1      42.796  -4.230  31.726  1.00  0.00     0.004 A 
HETATM   14  C10 UNL     1      43.578  -3.949  30.598  1.00  0.00     0.040 A 
HETATM   15  C11 UNL     1      43.463  -2.716  30.017  1.00  0.00     0.103 A 
HETATM   16  C17 UNL     1      42.574  -1.748  30.546  1.00  0.00     0.111 A 
BRANCH  15  17
HETATM   17  O1  UNL     1      44.212  -2.400  28.909  1.00  0.00    -0.343 OA
BRANCH  17  18
HETATM   18  C12 UNL     1      43.771  -2.417  27.603  1.00  0.00     0.129 C 
HETATM   19  C13 UNL     1      44.371  -3.557  26.790  1.00  0.00     0.032 C 
HETATM   20  C14 UNL     1      44.129  -3.077  25.376  1.00  0.00     0.002 C 
HETATM   21  C15 UNL     1      44.503  -1.629  25.442  1.00  0.00     0.002 C 
HETATM   22  C16 UNL     1      44.370  -1.219  26.881  1.00  0.00     0.032 C 
ENDBRANCH  17  18
ENDBRANCH  15  17
BRANCH  16  23
HETATM   23  O2  UNL     1      42.507  -0.526  29.913  1.00  0.00    -0.357 OA
ATOM     24  H2  UNL     1      42.021  -0.423  29.103  1.00  0.00     0.217 HD
ENDBRANCH  16  23
ENDBRANCH   7  11
BRANCH   1  25
HETATM   25  C1  UNL     1      38.087   2.885  35.813  1.00  0.00     0.120 C 
HETATM   26  N1  UNL     1      36.988   2.524  36.623  1.00  0.00    -0.082 NA
HETATM   27  N2  UNL     1      38.744   3.940  36.075  1.00  0.00    -0.387 N 
ATOM     28  H22 UNL     1      38.495   4.536  36.864  1.00  0.00     0.157 HD
ATOM     29  H21 UNL     1      39.537   4.201  35.490  1.00  0.00     0.157 HD
ENDBRANCH   1  25
TORSDOF 5
ENDMDL
