MODEL 4
REMARK VINA RESULT: -7.783106826      1.236      1.670
REMARK  5 active torsions:
REMARK  status: ('A' for Active; 'I' for Inactive)
REMARK    1  A    between atoms: C1_2  and  C2_6 
REMARK    2  A    between atoms: C6_12  and  C7_13 
REMARK    3  A    between atoms: C11_17  and  O1_18 
REMARK    4  A    between atoms: O1_18  and  C12_19 
REMARK    5  A    between atoms: C17_24  and  O2_25 
ROOT
HETATM    1  C2  UNL     1      44.133  -2.723  26.338  1.00  0.00     0.005 A 
HETATM    2  C3  UNL     1      44.100  -3.967  26.915  1.00  0.00     0.017 A 
HETATM    3  C4  UNL     1      43.874  -4.147  28.259  1.00  0.00     0.031 A 
HETATM    4  C5  UNL     1      43.668  -3.047  29.078  1.00  0.00     0.043 A 
HETATM    5  N3  UNL     1      43.428  -2.902  30.397  1.00  0.00    -0.355 N 
ATOM      6  H3  UNL     1      43.359  -3.689  31.044  1.00  0.00     0.166 HD
HETATM    7  C6  UNL     1      43.292  -1.636  30.771  1.00  0.00     0.046 A 
HETATM    8  C18 UNL     1      43.460  -0.902  29.586  1.00  0.00     0.044 A 
HETATM    9  C19 UNL     1      43.691  -1.778  28.546  1.00  0.00    -0.006 A 
HETATM   10  C20 UNL     1      43.922  -1.647  27.198  1.00  0.00     0.028 A 
ENDROOT
BRANCH   7  11
HETATM   11  C7  UNL     1      43.029  -1.047  32.080  1.00  0.00     0.027 A 
HETATM   12  C8  UNL     1      41.771  -1.142  32.662  1.00  0.00     0.017 A 
HETATM   13  C9  UNL     1      41.459  -0.613  33.886  1.00  0.00     0.004 A 
HETATM   14  C10 UNL     1      42.444   0.068  34.613  1.00  0.00     0.040 A 
HETATM   15  C11 UNL     1      43.695   0.179  34.069  1.00  0.00     0.103 A 
HETATM   16  C17 UNL     1      43.983  -0.381  32.800  1.00  0.00     0.111 A 
BRANCH  15  17
HETATM   17  O1  UNL     1      44.690   0.838  34.749  1.00  0.00    -0.343 OA
BRANCH  17  18
HETATM   18  C12 UNL     1      45.199   0.485  35.981  1.00  0.00     0.129 C 
HETATM   19  C13 UNL     1      45.583   1.689  36.831  1.00  0.00     0.032 C 
HETATM   20  C14 UNL     1      46.509   1.056  37.846  1.00  0.00     0.002 C 
HETATM   21  C15 UNL     1      47.356   0.146  37.010  1.00  0.00     0.002 C 
HETATM   22  C16 UNL     1      46.566  -0.149  35.768  1.00  0.00     0.032 C 
ENDBRANCH  17  18
ENDBRANCH  15  17
BRANCH  16  23
HETATM   23  O2  UNL     1      45.262  -0.233  32.310  1.00  0.00    -0.357 OA
ATOM     24  H2  UNL     1      46.004  -0.617  32.762  1.00  0.00     0.217 HD
ENDBRANCH  16  23
ENDBRANCH   7  11
BRANCH   1  25
HETATM   25  C1  UNL     1      44.371  -2.516  24.925  1.00  0.00     0.120 C 
HETATM   26  N1  UNL     1      44.298  -1.204  24.405  1.00  0.00    -0.082 NA
HETATM   27  N2  UNL     1      44.640  -3.486  24.153  1.00  0.00    -0.387 N 
ATOM     28  H22 UNL     1      44.807  -3.340  23.157  1.00  0.00     0.157 HD
ATOM     29  H21 UNL     1      44.693  -4.433  24.528  1.00  0.00     0.157 HD
ENDBRANCH   1  25
TORSDOF 5
ENDMDL
