MODEL 10
REMARK VINA RESULT: -7.052209998      3.404      8.920
REMARK  5 active torsions:
REMARK  status: ('A' for Active; 'I' for Inactive)
REMARK    1  A    between atoms: C1_2  and  C2_6 
REMARK    2  A    between atoms: C6_12  and  C7_13 
REMARK    3  A    between atoms: C11_17  and  O1_18 
REMARK    4  A    between atoms: O1_18  and  C12_19 
REMARK    5  A    between atoms: C17_24  and  O2_25 
ROOT
HETATM    1  C2  UNL     1      43.415   2.838  36.867  1.00  0.00     0.005 A 
HETATM    2  C3  UNL     1      44.713   2.834  36.426  1.00  0.00     0.017 A 
HETATM    3  C4  UNL     1      45.154   1.970  35.451  1.00  0.00     0.031 A 
HETATM    4  C5  UNL     1      44.273   1.065  34.880  1.00  0.00     0.043 A 
HETATM    5  N3  UNL     1      44.401   0.116  33.930  1.00  0.00    -0.355 N 
ATOM      6  H3  UNL     1      45.279  -0.080  33.448  1.00  0.00     0.166 HD
HETATM    7  C6  UNL     1      43.272  -0.538  33.685  1.00  0.00     0.046 A 
HETATM    8  C18 UNL     1      42.336   0.043  34.556  1.00  0.00     0.044 A 
HETATM    9  C19 UNL     1      42.959   1.030  35.290  1.00  0.00    -0.006 A 
HETATM   10  C20 UNL     1      42.564   1.911  36.266  1.00  0.00     0.028 A 
ENDROOT
BRANCH   7  11
HETATM   11  C7  UNL     1      42.976  -1.619  32.750  1.00  0.00     0.027 A 
HETATM   12  C8  UNL     1      42.674  -2.894  33.212  1.00  0.00     0.017 A 
HETATM   13  C9  UNL     1      42.387  -3.951  32.389  1.00  0.00     0.004 A 
HETATM   14  C10 UNL     1      42.391  -3.763  31.001  1.00  0.00     0.040 A 
HETATM   15  C11 UNL     1      42.683  -2.519  30.513  1.00  0.00     0.103 A 
HETATM   16  C17 UNL     1      42.976  -1.448  31.393  1.00  0.00     0.111 A 
BRANCH  15  17
HETATM   17  O1  UNL     1      42.697  -2.293  29.158  1.00  0.00    -0.343 OA
BRANCH  17  18
HETATM   18  C12 UNL     1      43.779  -2.463  28.321  1.00  0.00     0.129 C 
HETATM   19  C13 UNL     1      44.067  -1.234  27.467  1.00  0.00     0.032 C 
HETATM   20  C14 UNL     1      44.921  -1.827  26.368  1.00  0.00     0.002 C 
HETATM   21  C15 UNL     1      44.205  -3.098  26.032  1.00  0.00     0.002 C 
HETATM   22  C16 UNL     1      43.395  -3.465  27.241  1.00  0.00     0.032 C 
ENDBRANCH  17  18
ENDBRANCH  15  17
BRANCH  16  23
HETATM   23  O2  UNL     1      43.262  -0.221  30.836  1.00  0.00    -0.357 OA
ATOM     24  H2  UNL     1      44.076  -0.076  30.368  1.00  0.00     0.217 HD
ENDBRANCH  16  23
ENDBRANCH   7  11
BRANCH   1  25
HETATM   25  C1  UNL     1      42.933   3.740  37.892  1.00  0.00     0.120 C 
HETATM   26  N1  UNL     1      42.738   3.245  39.201  1.00  0.00    -0.082 NA
HETATM   27  N2  UNL     1      42.684   4.958  37.634  1.00  0.00    -0.387 N 
ATOM     28  H22 UNL     1      42.344   5.593  38.357  1.00  0.00     0.157 HD
ATOM     29  H21 UNL     1      42.825   5.315  36.690  1.00  0.00     0.157 HD
ENDBRANCH   1  25
TORSDOF 5
ENDMDL
