MODEL 6
REMARK VINA RESULT: -7.710061833      1.168      1.528
REMARK  5 active torsions:
REMARK  status: ('A' for Active; 'I' for Inactive)
REMARK    1  A    between atoms: C1_2  and  C2_6 
REMARK    2  A    between atoms: C6_12  and  C7_13 
REMARK    3  A    between atoms: C11_17  and  O1_18 
REMARK    4  A    between atoms: O1_18  and  C12_19 
REMARK    5  A    between atoms: C17_24  and  O2_25 
ROOT
HETATM    1  C2  UNL     1      44.102  -2.806  26.087  1.00  0.00     0.005 A 
HETATM    2  C3  UNL     1      44.621  -1.539  26.167  1.00  0.00     0.017 A 
HETATM    3  C4  UNL     1      44.460  -0.749  27.281  1.00  0.00     0.031 A 
HETATM    4  C5  UNL     1      43.752  -1.229  28.372  1.00  0.00     0.043 A 
HETATM    5  N3  UNL     1      43.431  -0.709  29.574  1.00  0.00    -0.355 N 
ATOM      6  H3  UNL     1      43.706   0.227  29.871  1.00  0.00     0.166 HD
HETATM    7  C6  UNL     1      42.722  -1.536  30.332  1.00  0.00     0.046 A 
HETATM    8  C18 UNL     1      42.573  -2.690  29.546  1.00  0.00     0.044 A 
HETATM    9  C19 UNL     1      43.211  -2.495  28.339  1.00  0.00    -0.006 A 
HETATM   10  C20 UNL     1      43.398  -3.247  27.206  1.00  0.00     0.028 A 
ENDROOT
BRANCH   7  11
HETATM   11  C7  UNL     1      42.179  -1.374  31.678  1.00  0.00     0.027 A 
HETATM   12  C8  UNL     1      40.873  -1.750  31.966  1.00  0.00     0.017 A 
HETATM   13  C9  UNL     1      40.304  -1.624  33.206  1.00  0.00     0.004 A 
HETATM   14  C10 UNL     1      41.058  -1.090  34.259  1.00  0.00     0.040 A 
HETATM   15  C11 UNL     1      42.349  -0.710  34.008  1.00  0.00     0.103 A 
HETATM   16  C17 UNL     1      42.906  -0.854  32.713  1.00  0.00     0.111 A 
BRANCH  15  17
HETATM   17  O1  UNL     1      43.122  -0.181  35.013  1.00  0.00    -0.343 OA
BRANCH  17  18
HETATM   18  C12 UNL     1      43.554   1.125  35.100  1.00  0.00     0.129 C 
HETATM   19  C13 UNL     1      44.859   1.268  35.871  1.00  0.00     0.032 C 
HETATM   20  C14 UNL     1      44.841   2.740  36.221  1.00  0.00     0.002 C 
HETATM   21  C15 UNL     1      43.426   2.967  36.655  1.00  0.00     0.002 C 
HETATM   22  C16 UNL     1      42.605   1.881  36.020  1.00  0.00     0.032 C 
ENDBRANCH  17  18
ENDBRANCH  15  17
BRANCH  16  23
HETATM   23  O2  UNL     1      44.210  -0.451  32.529  1.00  0.00    -0.357 OA
ATOM     24  H2  UNL     1      44.724  -0.781  31.801  1.00  0.00     0.217 HD
ENDBRANCH  16  23
ENDBRANCH   7  11
BRANCH   1  25
HETATM   25  C1  UNL     1      44.261  -3.651  24.922  1.00  0.00     0.120 C 
HETATM   26  N1  UNL     1      44.179  -3.069  23.638  1.00  0.00    -0.082 NA
HETATM   27  N2  UNL     1      44.472  -4.898  25.038  1.00  0.00    -0.387 N 
ATOM     28  H22 UNL     1      44.584  -5.494  24.217  1.00  0.00     0.157 HD
ATOM     29  H21 UNL     1      44.532  -5.318  25.964  1.00  0.00     0.157 HD
ENDBRANCH   1  25
TORSDOF 5
ENDMDL
