MODEL 1
REMARK VINA RESULT: -7.703014626      0.000      0.000
REMARK  6 active torsions:
REMARK  status: ('A' for Active; 'I' for Inactive)
REMARK    1  A    between atoms: C2_2  and  C4_4 
REMARK    2  A    between atoms: C4_4  and  O1_5 
REMARK    3  A    between atoms: O1_5  and  C5_6 
REMARK    4  A    between atoms: C9_10  and  C10_11 
REMARK    5  A    between atoms: C13_16  and  C14_17 
REMARK    6  A    between atoms: C18_27  and  O2_28 
ROOT
HETATM    1  C10 UNL     1      43.707  -2.159  31.317  1.00  0.00     0.119 A 
HETATM    2  N1  UNL     1      43.944  -1.375  30.254  1.00  0.00    -0.340 N 
ATOM      3  H1  UNL     1      44.035  -0.359  30.286  1.00  0.00     0.167 HD
HETATM    4  C11 UNL     1      44.046  -2.129  29.131  1.00  0.00     0.061 A 
HETATM    5  C12 UNL     1      44.275  -1.853  27.808  1.00  0.00     0.046 A 
HETATM    6  C13 UNL     1      44.332  -2.838  26.829  1.00  0.00     0.007 A 
HETATM    7  C15 UNL     1      44.150  -4.135  27.226  1.00  0.00     0.017 A 
HETATM    8  C16 UNL     1      43.917  -4.429  28.564  1.00  0.00     0.033 A 
HETATM    9  C17 UNL     1      43.862  -3.448  29.527  1.00  0.00     0.060 A 
HETATM   10  N4  UNL     1      43.662  -3.416  30.851  1.00  0.00    -0.340 N 
ATOM     11  H4  UNL     1      43.496  -4.240  31.428  1.00  0.00     0.167 HD
ENDROOT
BRANCH   1  12
HETATM   12  C9  UNL     1      43.536  -1.709  32.711  1.00  0.00     0.044 A 
HETATM   13  C8  UNL     1      42.515  -2.194  33.495  1.00  0.00     0.018 A 
HETATM   14  C7  UNL     1      42.366  -1.773  34.775  1.00  0.00     0.004 A 
HETATM   15  C6  UNL     1      43.264  -0.841  35.283  1.00  0.00     0.040 A 
HETATM   16  C5  UNL     1      44.305  -0.316  34.557  1.00  0.00     0.102 A 
HETATM   17  C18 UNL     1      44.406  -0.790  33.242  1.00  0.00     0.113 A 
BRANCH  16  18
HETATM   18  O1  UNL     1      45.165   0.553  34.997  1.00  0.00    -0.348 OA
BRANCH  18  19
HETATM   19  C4  UNL     1      45.830   1.114  36.004  1.00  0.00     0.179 C 
BRANCH  19  20
HETATM   20  C2  UNL     1      45.371   2.398  36.604  1.00  0.00     0.002 C 
HETATM   21  C1  UNL     1      44.089   2.960  36.076  1.00  0.00     0.011 C 
HETATM   22  C3  UNL     1      45.290   2.325  38.117  1.00  0.00     0.011 C 
ENDBRANCH  19  20
ENDBRANCH  18  19
ENDBRANCH  16  18
BRANCH  17  23
HETATM   23  O2  UNL     1      45.424  -0.308  32.457  1.00  0.00    -0.357 OA
ATOM     24  H2  UNL     1      45.273  -0.235  31.521  1.00  0.00     0.217 HD
ENDBRANCH  17  23
ENDBRANCH   1  12
BRANCH   6  25
HETATM   25  C14 UNL     1      44.578  -2.472  25.448  1.00  0.00     0.120 C 
HETATM   26  N2  UNL     1      44.529  -1.091  25.099  1.00  0.00    -0.082 NA
HETATM   27  N3  UNL     1      44.835  -3.329  24.542  1.00  0.00    -0.387 N 
ATOM     28  H32 UNL     1      44.870  -4.317  24.793  1.00  0.00     0.157 HD
ATOM     29  H31 UNL     1      45.008  -3.071  23.571  1.00  0.00     0.157 HD
ENDBRANCH   6  25
TORSDOF 6
ENDMDL
