MODEL 12
REMARK VINA RESULT: -6.677943156      3.142      8.451
REMARK  6 active torsions:
REMARK  status: ('A' for Active; 'I' for Inactive)
REMARK    1  A    between atoms: C2_2  and  C4_4 
REMARK    2  A    between atoms: C4_4  and  O1_5 
REMARK    3  A    between atoms: O1_5  and  C5_6 
REMARK    4  A    between atoms: C9_10  and  C10_11 
REMARK    5  A    between atoms: C13_16  and  C14_17 
REMARK    6  A    between atoms: C18_27  and  O2_28 
ROOT
HETATM    1  C10 UNL     1      43.541  -1.675  32.552  1.00  0.00     0.119 A 
HETATM    2  N1  UNL     1      42.607  -1.405  33.477  1.00  0.00    -0.340 N 
ATOM      3  H1  UNL     1      41.815  -2.007  33.699  1.00  0.00     0.167 HD
HETATM    4  C11 UNL     1      42.872  -0.215  34.074  1.00  0.00     0.061 A 
HETATM    5  C12 UNL     1      42.263   0.520  35.057  1.00  0.00     0.046 A 
HETATM    6  C13 UNL     1      42.753   1.744  35.497  1.00  0.00     0.007 A 
HETATM    7  C15 UNL     1      43.895   2.217  34.910  1.00  0.00     0.017 A 
HETATM    8  C16 UNL     1      44.522   1.480  33.913  1.00  0.00     0.033 A 
HETATM    9  C17 UNL     1      44.031   0.270  33.483  1.00  0.00     0.060 A 
HETATM   10  N4  UNL     1      44.397  -0.642  32.573  1.00  0.00    -0.340 N 
ATOM     11  H4  UNL     1      45.219  -0.562  31.974  1.00  0.00     0.167 HD
ENDROOT
BRANCH   1  12
HETATM   12  C9  UNL     1      43.597  -2.873  31.694  1.00  0.00     0.044 A 
HETATM   13  C8  UNL     1      43.304  -4.121  32.194  1.00  0.00     0.018 A 
HETATM   14  C7  UNL     1      43.359  -5.216  31.397  1.00  0.00     0.004 A 
HETATM   15  C6  UNL     1      43.718  -5.057  30.063  1.00  0.00     0.040 A 
HETATM   16  C5  UNL     1      44.022  -3.843  29.499  1.00  0.00     0.102 A 
HETATM   17  C18 UNL     1      43.948  -2.749  30.373  1.00  0.00     0.113 A 
BRANCH  16  18
HETATM   18  O1  UNL     1      44.358  -3.654  28.258  1.00  0.00    -0.348 OA
BRANCH  18  19
HETATM   19  C4  UNL     1      44.114  -3.803  26.958  1.00  0.00     0.179 C 
BRANCH  19  20
HETATM   20  C2  UNL     1      44.696  -2.867  25.956  1.00  0.00     0.002 C 
HETATM   21  C1  UNL     1      44.346  -3.119  24.525  1.00  0.00     0.011 C 
HETATM   22  C3  UNL     1      44.398  -1.417  26.288  1.00  0.00     0.011 C 
ENDBRANCH  19  20
ENDBRANCH  18  19
ENDBRANCH  16  18
BRANCH  17  23
HETATM   23  O2  UNL     1      44.240  -1.503  29.877  1.00  0.00    -0.357 OA
ATOM     24  H2  UNL     1      44.280  -0.776  30.487  1.00  0.00     0.217 HD
ENDBRANCH  17  23
ENDBRANCH   1  12
BRANCH   6  25
HETATM   25  C14 UNL     1      42.055   2.468  36.543  1.00  0.00     0.120 C 
HETATM   26  N2  UNL     1      40.882   1.882  37.100  1.00  0.00    -0.082 NA
HETATM   27  N3  UNL     1      42.447   3.598  36.978  1.00  0.00    -0.387 N 
ATOM     28  H32 UNL     1      43.287   4.018  36.579  1.00  0.00     0.157 HD
ATOM     29  H31 UNL     1      41.956   4.108  37.713  1.00  0.00     0.157 HD
ENDBRANCH   6  25
TORSDOF 6
ENDMDL
