MODEL 11
REMARK VINA RESULT: -6.771695051      4.698      6.624
REMARK  6 active torsions:
REMARK  status: ('A' for Active; 'I' for Inactive)
REMARK    1  A    between atoms: C2_2  and  C4_4 
REMARK    2  A    between atoms: C4_4  and  O1_5 
REMARK    3  A    between atoms: O1_5  and  C5_6 
REMARK    4  A    between atoms: C9_10  and  C10_11 
REMARK    5  A    between atoms: C13_16  and  C14_17 
REMARK    6  A    between atoms: C18_27  and  O2_28 
ROOT
HETATM    1  C10 UNL     1      43.744  -4.425  30.467  1.00  0.00     0.119 A 
HETATM    2  N1  UNL     1      43.803  -4.858  29.198  1.00  0.00    -0.340 N 
ATOM      3  H1  UNL     1      43.704  -5.831  28.908  1.00  0.00     0.167 HD
HETATM    4  C11 UNL     1      44.015  -3.814  28.358  1.00  0.00     0.061 A 
HETATM    5  C12 UNL     1      44.154  -3.689  27.000  1.00  0.00     0.046 A 
HETATM    6  C13 UNL     1      44.370  -2.468  26.372  1.00  0.00     0.007 A 
HETATM    7  C15 UNL     1      44.441  -1.353  27.163  1.00  0.00     0.017 A 
HETATM    8  C16 UNL     1      44.300  -1.467  28.541  1.00  0.00     0.033 A 
HETATM    9  C17 UNL     1      44.088  -2.679  29.155  1.00  0.00     0.060 A 
HETATM   10  N4  UNL     1      43.919  -3.096  30.416  1.00  0.00    -0.340 N 
ATOM     11  H4  UNL     1      43.923  -2.483  31.231  1.00  0.00     0.167 HD
ENDROOT
BRANCH   1  12
HETATM   12  C9  UNL     1      43.527  -5.260  31.663  1.00  0.00     0.044 A 
HETATM   13  C8  UNL     1      42.660  -4.869  32.657  1.00  0.00     0.018 A 
HETATM   14  C7  UNL     1      42.469  -5.644  33.752  1.00  0.00     0.004 A 
HETATM   15  C6  UNL     1      43.165  -6.842  33.855  1.00  0.00     0.040 A 
HETATM   16  C5  UNL     1      44.045  -7.294  32.902  1.00  0.00     0.102 A 
HETATM   17  C18 UNL     1      44.200  -6.449  31.794  1.00  0.00     0.113 A 
BRANCH  16  18
HETATM   18  O1  UNL     1      44.711  -8.407  32.961  1.00  0.00    -0.348 OA
BRANCH  18  19
HETATM   19  C4  UNL     1      44.776  -9.726  32.792  1.00  0.00     0.179 C 
BRANCH  19  20
HETATM   20  C2  UNL     1      45.518 -10.315  31.642  1.00  0.00     0.002 C 
HETATM   21  C1  UNL     1      44.842 -10.251  30.309  1.00  0.00     0.011 C 
HETATM   22  C3  UNL     1      46.917  -9.744  31.511  1.00  0.00     0.011 C 
ENDBRANCH  19  20
ENDBRANCH  18  19
ENDBRANCH  16  18
BRANCH  17  23
HETATM   23  O2  UNL     1      45.065  -6.837  30.801  1.00  0.00    -0.357 OA
ATOM     24  H2  UNL     1      45.110  -6.306  30.014  1.00  0.00     0.217 HD
ENDBRANCH  17  23
ENDBRANCH   1  12
BRANCH   6  25
HETATM   25  C14 UNL     1      44.509  -2.412  24.929  1.00  0.00     0.120 C 
HETATM   26  N2  UNL     1      44.317  -1.157  24.283  1.00  0.00    -0.082 NA
HETATM   27  N3  UNL     1      44.794  -3.433  24.224  1.00  0.00    -0.387 N 
ATOM     28  H32 UNL     1      44.931  -4.331  24.687  1.00  0.00     0.157 HD
ATOM     29  H31 UNL     1      44.892  -3.393  23.209  1.00  0.00     0.157 HD
ENDBRANCH   6  25
TORSDOF 6
ENDMDL
