MODEL 13
REMARK VINA RESULT: -6.614626672      3.169      8.383
REMARK  6 active torsions:
REMARK  status: ('A' for Active; 'I' for Inactive)
REMARK    1  A    between atoms: C2_2  and  C4_4 
REMARK    2  A    between atoms: C4_4  and  O1_5 
REMARK    3  A    between atoms: O1_5  and  C5_6 
REMARK    4  A    between atoms: C9_10  and  C10_11 
REMARK    5  A    between atoms: C13_16  and  C14_17 
REMARK    6  A    between atoms: C18_27  and  O2_28 
ROOT
HETATM    1  C10 UNL     1      42.613  -1.234  32.337  1.00  0.00     0.119 A 
HETATM    2  N1  UNL     1      43.841  -1.403  32.851  1.00  0.00    -0.340 N 
ATOM      3  H1  UNL     1      44.531  -2.072  32.509  1.00  0.00     0.167 HD
HETATM    4  C11 UNL     1      44.031  -0.553  33.891  1.00  0.00     0.061 A 
HETATM    5  C12 UNL     1      45.070  -0.307  34.751  1.00  0.00     0.046 A 
HETATM    6  C13 UNL     1      45.006   0.646  35.761  1.00  0.00     0.007 A 
HETATM    7  C15 UNL     1      43.846   1.360  35.884  1.00  0.00     0.017 A 
HETATM    8  C16 UNL     1      42.785   1.121  35.018  1.00  0.00     0.033 A 
HETATM    9  C17 UNL     1      42.856   0.176  34.022  1.00  0.00     0.060 A 
HETATM   10  N4  UNL     1      42.032  -0.269  33.065  1.00  0.00    -0.340 N 
ATOM     11  H4  UNL     1      41.086   0.081  32.910  1.00  0.00     0.167 HD
ENDROOT
BRANCH   1  12
HETATM   12  C9  UNL     1      42.037  -1.974  31.198  1.00  0.00     0.044 A 
HETATM   13  C8  UNL     1      40.783  -2.534  31.274  1.00  0.00     0.018 A 
HETATM   14  C7  UNL     1      40.263  -3.212  30.222  1.00  0.00     0.004 A 
HETATM   15  C6  UNL     1      41.020  -3.332  29.062  1.00  0.00     0.040 A 
HETATM   16  C5  UNL     1      42.276  -2.798  28.917  1.00  0.00     0.102 A 
HETATM   17  C18 UNL     1      42.759  -2.110  30.039  1.00  0.00     0.113 A 
BRANCH  16  18
HETATM   18  O1  UNL     1      43.012  -2.886  27.850  1.00  0.00    -0.348 OA
BRANCH  18  19
HETATM   19  C4  UNL     1      43.779  -3.602  27.029  1.00  0.00     0.179 C 
BRANCH  19  20
HETATM   20  C2  UNL     1      44.583  -2.942  25.963  1.00  0.00     0.002 C 
HETATM   21  C1  UNL     1      44.320  -3.385  24.559  1.00  0.00     0.011 C 
HETATM   22  C3  UNL     1      44.488  -1.430  26.028  1.00  0.00     0.011 C 
ENDBRANCH  19  20
ENDBRANCH  18  19
ENDBRANCH  16  18
BRANCH  17  23
HETATM   23  O2  UNL     1      44.010  -1.550  29.965  1.00  0.00    -0.357 OA
ATOM     24  H2  UNL     1      44.283  -0.970  30.667  1.00  0.00     0.217 HD
ENDBRANCH  17  23
ENDBRANCH   1  12
BRANCH   6  25
HETATM   25  C14 UNL     1      46.146   0.851  36.635  1.00  0.00     0.120 C 
HETATM   26  N2  UNL     1      45.935   1.536  37.866  1.00  0.00    -0.082 NA
HETATM   27  N3  UNL     1      47.318   0.445  36.346  1.00  0.00    -0.387 N 
ATOM     28  H32 UNL     1      47.468  -0.046  35.464  1.00  0.00     0.157 HD
ATOM     29  H31 UNL     1      48.119   0.589  36.961  1.00  0.00     0.157 HD
ENDBRANCH   6  25
TORSDOF 6
ENDMDL
