MODEL 4
REMARK VINA RESULT: -7.402119086      1.670      2.337
REMARK  6 active torsions:
REMARK  status: ('A' for Active; 'I' for Inactive)
REMARK    1  A    between atoms: C2_2  and  C4_4 
REMARK    2  A    between atoms: C4_4  and  O1_5 
REMARK    3  A    between atoms: O1_5  and  C5_6 
REMARK    4  A    between atoms: C9_10  and  C10_11 
REMARK    5  A    between atoms: C13_16  and  C14_17 
REMARK    6  A    between atoms: C18_27  and  O2_28 
ROOT
HETATM    1  C10 UNL     1      42.446  -1.632  30.468  1.00  0.00     0.119 A 
HETATM    2  N1  UNL     1      42.500  -2.755  29.736  1.00  0.00    -0.340 N 
ATOM      3  H1  UNL     1      42.114  -3.655  30.018  1.00  0.00     0.167 HD
HETATM    4  C11 UNL     1      43.144  -2.519  28.565  1.00  0.00     0.061 A 
HETATM    5  C12 UNL     1      43.470  -3.287  27.478  1.00  0.00     0.046 A 
HETATM    6  C13 UNL     1      44.153  -2.786  26.376  1.00  0.00     0.007 A 
HETATM    7  C15 UNL     1      44.505  -1.464  26.397  1.00  0.00     0.017 A 
HETATM    8  C16 UNL     1      44.179  -0.674  27.493  1.00  0.00     0.033 A 
HETATM    9  C17 UNL     1      43.503  -1.177  28.580  1.00  0.00     0.060 A 
HETATM   10  N4  UNL     1      43.063  -0.685  29.744  1.00  0.00    -0.340 N 
ATOM     11  H4  UNL     1      43.181   0.284  30.043  1.00  0.00     0.167 HD
ENDROOT
BRANCH   1  12
HETATM   12  C9  UNL     1      41.828  -1.488  31.799  1.00  0.00     0.044 A 
HETATM   13  C8  UNL     1      40.707  -2.207  32.145  1.00  0.00     0.018 A 
HETATM   14  C7  UNL     1      40.147  -2.067  33.371  1.00  0.00     0.004 A 
HETATM   15  C6  UNL     1      40.724  -1.183  34.275  1.00  0.00     0.040 A 
HETATM   16  C5  UNL     1      41.842  -0.435  33.997  1.00  0.00     0.102 A 
HETATM   17  C18 UNL     1      42.375  -0.623  32.714  1.00  0.00     0.113 A 
BRANCH  16  18
HETATM   18  O1  UNL     1      42.411   0.398  34.815  1.00  0.00    -0.348 OA
BRANCH  18  19
HETATM   19  C4  UNL     1      42.485   1.606  35.370  1.00  0.00     0.179 C 
BRANCH  19  20
HETATM   20  C2  UNL     1      43.733   2.415  35.280  1.00  0.00     0.002 C 
HETATM   21  C1  UNL     1      43.909   3.487  36.308  1.00  0.00     0.011 C 
HETATM   22  C3  UNL     1      44.977   1.548  35.256  1.00  0.00     0.011 C 
ENDBRANCH  19  20
ENDBRANCH  18  19
ENDBRANCH  16  18
BRANCH  17  23
HETATM   23  O2  UNL     1      43.493   0.093  32.367  1.00  0.00    -0.357 OA
ATOM     24  H2  UNL     1      43.785   0.056  31.463  1.00  0.00     0.217 HD
ENDBRANCH  17  23
ENDBRANCH   1  12
BRANCH   6  25
HETATM   25  C14 UNL     1      44.465  -3.659  25.261  1.00  0.00     0.120 C 
HETATM   26  N2  UNL     1      44.509  -3.093  23.954  1.00  0.00    -0.082 NA
HETATM   27  N3  UNL     1      44.701  -4.902  25.403  1.00  0.00    -0.387 N 
ATOM     28  H32 UNL     1      44.670  -5.307  26.339  1.00  0.00     0.157 HD
ATOM     29  H31 UNL     1      44.920  -5.516  24.619  1.00  0.00     0.157 HD
ENDBRANCH   6  25
TORSDOF 6
ENDMDL
