MODEL 2
REMARK VINA RESULT: -8.496534880      0.466      1.042
REMARK  4 active torsions:
REMARK  status: ('A' for Active; 'I' for Inactive)
REMARK    1  A    between atoms: C1_2  and  C2_6 
REMARK    2  A    between atoms: C5_11  and  C6_12 
REMARK    3  A    between atoms: C10_16  and  C11_17 
REMARK    4  A    between atoms: C17_23  and  O1_24 
ROOT
HETATM    1  C2  UNL     1      43.933  -2.801  25.728  1.00  0.00     0.029 A 
HETATM    2  C3  UNL     1      43.801  -3.502  26.942  1.00  0.00     0.048 A 
HETATM    3  C4  UNL     1      43.644  -2.891  28.150  1.00  0.00     0.061 A 
HETATM    4  N3  UNL     1      43.498  -3.316  29.428  1.00  0.00    -0.340 N 
ATOM      5  H3  UNL     1      43.483  -4.294  29.717  1.00  0.00     0.167 HD
HETATM    6  C5  UNL     1      43.380  -2.286  30.250  1.00  0.00     0.119 A 
HETATM    7  N4  UNL     1      43.451  -1.186  29.473  1.00  0.00    -0.340 N 
ATOM      8  H4  UNL     1      43.391  -0.228  29.819  1.00  0.00     0.167 HD
HETATM    9  C18 UNL     1      43.613  -1.521  28.184  1.00  0.00     0.062 A 
HETATM   10  C19 UNL     1      43.735  -0.799  27.051  1.00  0.00     0.056 A 
HETATM   11  C20 UNL     1      43.895  -1.442  25.823  1.00  0.00     0.050 A 
HETATM   12 CL1  UNL     1      44.044  -0.398  24.408  1.00  0.00    -0.083 Cl
ENDROOT
BRANCH   6  13
HETATM   13  C6  UNL     1      43.204  -2.217  31.695  1.00  0.00     0.042 A 
HETATM   14  C7  UNL     1      42.911  -3.362  32.426  1.00  0.00     0.018 A 
HETATM   15  C8  UNL     1      42.733  -3.351  33.801  1.00  0.00     0.002 A 
HETATM   16  C9  UNL     1      42.864  -2.129  34.427  1.00  0.00     0.015 A 
HETATM   17  C10 UNL     1      43.151  -0.971  33.744  1.00  0.00     0.008 A 
HETATM   18  C17 UNL     1      43.326  -1.013  32.351  1.00  0.00     0.090 A 
BRANCH  17  19
HETATM   19  C11 UNL     1      43.284   0.317  34.423  1.00  0.00    -0.023 A 
HETATM   20  C12 UNL     1      44.523   0.814  34.780  1.00  0.00     0.012 A 
HETATM   21  C13 UNL     1      44.714   2.014  35.420  1.00  0.00     0.001 A 
HETATM   22  C14 UNL     1      43.603   2.770  35.726  1.00  0.00     0.000 A 
HETATM   23  C15 UNL     1      42.345   2.316  35.390  1.00  0.00     0.001 A 
HETATM   24  C16 UNL     1      42.195   1.106  34.747  1.00  0.00     0.012 A 
ENDBRANCH  17  19
BRANCH  18  25
HETATM   25  O1  UNL     1      43.611   0.197  31.760  1.00  0.00    -0.359 OA
ATOM     26  H1  UNL     1      44.391   0.717  31.912  1.00  0.00     0.217 HD
ENDBRANCH  18  25
ENDBRANCH   6  13
BRANCH   1  27
HETATM   27  C1  UNL     1      44.095  -3.520  24.498  1.00  0.00     0.122 C 
HETATM   28  N1  UNL     1      43.114  -4.569  24.241  1.00  0.00    -0.082 NA
HETATM   29  N2  UNL     1      44.974  -3.361  23.615  1.00  0.00    -0.387 N 
ATOM     30  H22 UNL     1      45.089  -3.872  22.740  1.00  0.00     0.157 HD
ATOM     31  H21 UNL     1      45.660  -2.628  23.795  1.00  0.00     0.157 HD
ENDBRANCH   1  27
TORSDOF 4
ENDMDL
