MODEL 5
REMARK VINA RESULT: -7.513159908      3.822      8.650
REMARK  4 active torsions:
REMARK  status: ('A' for Active; 'I' for Inactive)
REMARK    1  A    between atoms: C1_2  and  C2_6 
REMARK    2  A    between atoms: C5_11  and  C6_12 
REMARK    3  A    between atoms: C10_16  and  C11_17 
REMARK    4  A    between atoms: C17_23  and  O1_24 
ROOT
HETATM    1  C2  UNL     1      43.703   1.426  35.051  1.00  0.00     0.029 A 
HETATM    2  C3  UNL     1      43.925   1.169  33.685  1.00  0.00     0.048 A 
HETATM    3  C4  UNL     1      43.707  -0.045  33.103  1.00  0.00     0.061 A 
HETATM    4  N3  UNL     1      43.836  -0.545  31.850  1.00  0.00    -0.340 N 
ATOM      5  H3  UNL     1      44.159  -0.013  31.043  1.00  0.00     0.167 HD
HETATM    6  C5  UNL     1      43.483  -1.819  31.820  1.00  0.00     0.119 A 
HETATM    7  N4  UNL     1      43.123  -2.131  33.082  1.00  0.00    -0.340 N 
ATOM      8  H4  UNL     1      42.799  -3.051  33.381  1.00  0.00     0.167 HD
HETATM    9  C18 UNL     1      43.249  -1.068  33.891  1.00  0.00     0.062 A 
HETATM   10  C19 UNL     1      43.020  -0.878  35.206  1.00  0.00     0.056 A 
HETATM   11  C20 UNL     1      43.248   0.371  35.785  1.00  0.00     0.050 A 
HETATM   12 CL1  UNL     1      42.913   0.505  37.513  1.00  0.00    -0.083 Cl
ENDROOT
BRANCH   6  13
HETATM   13  C6  UNL     1      43.444  -2.786  30.731  1.00  0.00     0.042 A 
HETATM   14  C7  UNL     1      43.245  -4.136  30.993  1.00  0.00     0.018 A 
HETATM   15  C8  UNL     1      43.201  -5.098  29.994  1.00  0.00     0.002 A 
HETATM   16  C9  UNL     1      43.365  -4.647  28.701  1.00  0.00     0.015 A 
HETATM   17  C10 UNL     1      43.564  -3.321  28.396  1.00  0.00     0.008 A 
HETATM   18  C17 UNL     1      43.604  -2.370  29.428  1.00  0.00     0.090 A 
BRANCH  17  19
HETATM   19  C11 UNL     1      43.738  -2.860  27.019  1.00  0.00    -0.023 A 
HETATM   20  C12 UNL     1      43.827  -3.755  25.970  1.00  0.00     0.012 A 
HETATM   21  C13 UNL     1      43.992  -3.386  24.656  1.00  0.00     0.001 A 
HETATM   22  C14 UNL     1      44.074  -2.041  24.367  1.00  0.00     0.000 A 
HETATM   23  C15 UNL     1      43.992  -1.110  25.380  1.00  0.00     0.001 A 
HETATM   24  C16 UNL     1      43.826  -1.520  26.686  1.00  0.00     0.012 A 
ENDBRANCH  17  19
BRANCH  18  25
HETATM   25  O1  UNL     1      43.808  -1.071  29.021  1.00  0.00    -0.359 OA
ATOM     26  H1  UNL     1      43.293  -0.607  28.372  1.00  0.00     0.217 HD
ENDBRANCH  18  25
ENDBRANCH   6  13
BRANCH   1  27
HETATM   27  C1  UNL     1      43.957   2.732  35.586  1.00  0.00     0.122 C 
HETATM   28  N1  UNL     1      45.209   2.888  36.317  1.00  0.00    -0.082 NA
HETATM   29  N2  UNL     1      43.237   3.759  35.503  1.00  0.00    -0.387 N 
ATOM     30  H22 UNL     1      43.418   4.688  35.883  1.00  0.00     0.157 HD
ATOM     31  H21 UNL     1      42.361   3.650  34.992  1.00  0.00     0.157 HD
ENDBRANCH   1  27
TORSDOF 4
ENDMDL
