MODEL 8
REMARK VINA RESULT: -7.255071144      4.453      8.908
REMARK  4 active torsions:
REMARK  status: ('A' for Active; 'I' for Inactive)
REMARK    1  A    between atoms: C1_2  and  C2_6 
REMARK    2  A    between atoms: C5_11  and  C6_12 
REMARK    3  A    between atoms: C10_16  and  C11_17 
REMARK    4  A    between atoms: C17_23  and  O1_24 
ROOT
HETATM    1  C2  UNL     1      45.666   0.966  36.913  1.00  0.00     0.029 A 
HETATM    2  C3  UNL     1      45.424  -0.018  35.936  1.00  0.00     0.048 A 
HETATM    3  C4  UNL     1      44.476   0.106  34.964  1.00  0.00     0.061 A 
HETATM    4  N3  UNL     1      44.052  -0.666  33.934  1.00  0.00    -0.340 N 
ATOM      5  H3  UNL     1      44.432  -1.583  33.700  1.00  0.00     0.167 HD
HETATM    6  C5  UNL     1      43.075  -0.066  33.274  1.00  0.00     0.119 A 
HETATM    7  N4  UNL     1      42.879   1.113  33.901  1.00  0.00    -0.340 N 
ATOM      8  H4  UNL     1      42.185   1.807  33.623  1.00  0.00     0.167 HD
HETATM    9  C18 UNL     1      43.719   1.248  34.938  1.00  0.00     0.062 A 
HETATM   10  C19 UNL     1      43.909   2.223  35.851  1.00  0.00     0.056 A 
HETATM   11  C20 UNL     1      44.884   2.080  36.839  1.00  0.00     0.050 A 
HETATM   12 CL1  UNL     1      45.044   3.417  37.979  1.00  0.00    -0.083 Cl
ENDROOT
BRANCH   6  13
HETATM   13  C6  UNL     1      42.300  -0.475  32.111  1.00  0.00     0.042 A 
HETATM   14  C7  UNL     1      40.915  -0.360  32.110  1.00  0.00     0.018 A 
HETATM   15  C8  UNL     1      40.129  -0.737  31.031  1.00  0.00     0.002 A 
HETATM   16  C9  UNL     1      40.795  -1.239  29.933  1.00  0.00     0.015 A 
HETATM   17  C10 UNL     1      42.164  -1.370  29.890  1.00  0.00     0.008 A 
HETATM   18  C17 UNL     1      42.933  -0.981  30.998  1.00  0.00     0.090 A 
BRANCH  17  19
HETATM   19  C11 UNL     1      42.855  -1.907  28.718  1.00  0.00    -0.023 A 
HETATM   20  C12 UNL     1      42.809  -3.255  28.415  1.00  0.00     0.012 A 
HETATM   21  C13 UNL     1      43.437  -3.820  27.332  1.00  0.00     0.001 A 
HETATM   22  C14 UNL     1      44.158  -2.994  26.496  1.00  0.00     0.000 A 
HETATM   23  C15 UNL     1      44.234  -1.643  26.758  1.00  0.00     0.001 A 
HETATM   24  C16 UNL     1      43.588  -1.113  27.855  1.00  0.00     0.012 A 
ENDBRANCH  17  19
BRANCH  18  25
HETATM   25  O1  UNL     1      44.292  -1.152  30.858  1.00  0.00    -0.359 OA
ATOM     26  H1  UNL     1      44.949  -0.907  31.498  1.00  0.00     0.217 HD
ENDBRANCH  18  25
ENDBRANCH   6  13
BRANCH   1  27
HETATM   27  C1  UNL     1      46.683   0.759  37.903  1.00  0.00     0.122 C 
HETATM   28  N1  UNL     1      47.999   0.388  37.394  1.00  0.00    -0.082 NA
HETATM   29  N2  UNL     1      46.584   0.857  39.152  1.00  0.00    -0.387 N 
ATOM     30  H22 UNL     1      47.308   0.710  39.855  1.00  0.00     0.157 HD
ATOM     31  H21 UNL     1      45.664   1.116  39.507  1.00  0.00     0.157 HD
ENDBRANCH   1  27
TORSDOF 4
ENDMDL
