MODEL 4
REMARK VINA RESULT: -7.579434914      1.346      1.763
REMARK  4 active torsions:
REMARK  status: ('A' for Active; 'I' for Inactive)
REMARK    1  A    between atoms: C1_2  and  C2_6 
REMARK    2  A    between atoms: C5_11  and  C6_12 
REMARK    3  A    between atoms: C10_16  and  C11_17 
REMARK    4  A    between atoms: C17_23  and  O1_24 
ROOT
HETATM    1  C2  UNL     1      43.875  -2.862  25.724  1.00  0.00     0.029 A 
HETATM    2  C3  UNL     1      43.644  -3.605  26.897  1.00  0.00     0.048 A 
HETATM    3  C4  UNL     1      43.443  -3.037  28.120  1.00  0.00     0.061 A 
HETATM    4  N3  UNL     1      43.207  -3.506  29.369  1.00  0.00    -0.340 N 
ATOM      5  H3  UNL     1      43.132  -4.493  29.614  1.00  0.00     0.167 HD
HETATM    6  C5  UNL     1      43.085  -2.506  30.226  1.00  0.00     0.119 A 
HETATM    7  N4  UNL     1      43.248  -1.380  29.502  1.00  0.00    -0.340 N 
ATOM      8  H4  UNL     1      43.209  -0.435  29.885  1.00  0.00     0.167 HD
HETATM    9  C18 UNL     1      43.469  -1.670  28.211  1.00  0.00     0.062 A 
HETATM   10  C19 UNL     1      43.687  -0.908  27.119  1.00  0.00     0.056 A 
HETATM   11  C20 UNL     1      43.890  -1.508  25.875  1.00  0.00     0.050 A 
HETATM   12 CL1  UNL     1      44.165  -0.415  24.517  1.00  0.00    -0.083 Cl
ENDROOT
BRANCH   6  13
HETATM   13  C6  UNL     1      42.830  -2.488  31.661  1.00  0.00     0.042 A 
HETATM   14  C7  UNL     1      43.076  -3.614  32.436  1.00  0.00     0.018 A 
HETATM   15  C8  UNL     1      42.849  -3.651  33.803  1.00  0.00     0.002 A 
HETATM   16  C9  UNL     1      42.360  -2.495  34.375  1.00  0.00     0.015 A 
HETATM   17  C10 UNL     1      42.100  -1.358  33.646  1.00  0.00     0.008 A 
HETATM   18  C17 UNL     1      42.339  -1.351  32.263  1.00  0.00     0.090 A 
BRANCH  17  19
HETATM   19  C11 UNL     1      41.579  -0.141  34.268  1.00  0.00    -0.023 A 
HETATM   20  C12 UNL     1      40.224   0.134  34.277  1.00  0.00     0.012 A 
HETATM   21  C13 UNL     1      39.672   1.259  34.842  1.00  0.00     0.001 A 
HETATM   22  C14 UNL     1      40.521   2.169  35.434  1.00  0.00     0.000 A 
HETATM   23  C15 UNL     1      41.880   1.939  35.449  1.00  0.00     0.001 A 
HETATM   24  C16 UNL     1      42.395   0.798  34.872  1.00  0.00     0.012 A 
ENDBRANCH  17  19
BRANCH  18  25
HETATM   25  O1  UNL     1      42.049  -0.167  31.624  1.00  0.00    -0.359 OA
ATOM     26  H1  UNL     1      41.351   0.433  31.860  1.00  0.00     0.217 HD
ENDBRANCH  18  25
ENDBRANCH   6  13
BRANCH   1  27
HETATM   27  C1  UNL     1      44.077  -3.538  24.475  1.00  0.00     0.122 C 
HETATM   28  N1  UNL     1      43.073  -4.536  24.123  1.00  0.00    -0.082 NA
HETATM   29  N2  UNL     1      45.007  -3.377  23.647  1.00  0.00    -0.387 N 
ATOM     30  H22 UNL     1      45.151  -3.858  22.758  1.00  0.00     0.157 HD
ATOM     31  H21 UNL     1      45.709  -2.679  23.893  1.00  0.00     0.157 HD
ENDBRANCH   1  27
TORSDOF 4
ENDMDL
