MODEL 6
REMARK VINA RESULT: -7.461228349      3.819      8.600
REMARK  4 active torsions:
REMARK  status: ('A' for Active; 'I' for Inactive)
REMARK    1  A    between atoms: C1_2  and  C2_6 
REMARK    2  A    between atoms: C5_11  and  C6_12 
REMARK    3  A    between atoms: C10_16  and  C11_17 
REMARK    4  A    between atoms: C17_23  and  O1_24 
ROOT
HETATM    1  C2  UNL     1      41.994   1.656  35.151  1.00  0.00     0.029 A 
HETATM    2  C3  UNL     1      41.542   0.508  34.474  1.00  0.00     0.048 A 
HETATM    3  C4  UNL     1      42.258  -0.120  33.498  1.00  0.00     0.061 A 
HETATM    4  N3  UNL     1      42.062  -1.206  32.712  1.00  0.00    -0.340 N 
ATOM      5  H3  UNL     1      41.233  -1.799  32.738  1.00  0.00     0.167 HD
HETATM    6  C5  UNL     1      43.095  -1.390  31.907  1.00  0.00     0.119 A 
HETATM    7  N4  UNL     1      43.964  -0.398  32.191  1.00  0.00    -0.340 N 
ATOM      8  H4  UNL     1      44.865  -0.269  31.731  1.00  0.00     0.167 HD
HETATM    9  C18 UNL     1      43.482   0.396  33.159  1.00  0.00     0.062 A 
HETATM   10  C19 UNL     1      43.963   1.495  33.776  1.00  0.00     0.056 A 
HETATM   11  C20 UNL     1      43.217   2.124  34.773  1.00  0.00     0.050 A 
HETATM   12 CL1  UNL     1      43.944   3.552  35.510  1.00  0.00    -0.083 Cl
ENDROOT
BRANCH   6  13
HETATM   13  C6  UNL     1      43.362  -2.402  30.892  1.00  0.00     0.042 A 
HETATM   14  C7  UNL     1      43.524  -3.734  31.251  1.00  0.00     0.018 A 
HETATM   15  C8  UNL     1      43.782  -4.735  30.326  1.00  0.00     0.002 A 
HETATM   16  C9  UNL     1      43.870  -4.344  29.006  1.00  0.00     0.015 A 
HETATM   17  C10 UNL     1      43.718  -3.037  28.608  1.00  0.00     0.008 A 
HETATM   18  C17 UNL     1      43.458  -2.045  29.566  1.00  0.00     0.090 A 
BRANCH  17  19
HETATM   19  C11 UNL     1      43.816  -2.638  27.204  1.00  0.00    -0.023 A 
HETATM   20  C12 UNL     1      43.823  -3.579  26.191  1.00  0.00     0.012 A 
HETATM   21  C13 UNL     1      43.915  -3.270  24.856  1.00  0.00     0.001 A 
HETATM   22  C14 UNL     1      44.008  -1.940  24.503  1.00  0.00     0.000 A 
HETATM   23  C15 UNL     1      44.007  -0.965  25.478  1.00  0.00     0.001 A 
HETATM   24  C16 UNL     1      43.912  -1.317  26.808  1.00  0.00     0.012 A 
ENDBRANCH  17  19
BRANCH  18  25
HETATM   25  O1  UNL     1      43.321  -0.769  29.068  1.00  0.00    -0.359 OA
ATOM     26  H1  UNL     1      43.075  -0.547  28.177  1.00  0.00     0.217 HD
ENDBRANCH  18  25
ENDBRANCH   6  13
BRANCH   1  27
HETATM   27  C1  UNL     1      41.179   2.256  36.167  1.00  0.00     0.122 C 
HETATM   28  N1  UNL     1      41.549   1.949  37.544  1.00  0.00    -0.082 NA
HETATM   29  N2  UNL     1      40.187   3.014  36.021  1.00  0.00    -0.387 N 
ATOM     30  H22 UNL     1      39.607   3.441  36.743  1.00  0.00     0.157 HD
ATOM     31  H21 UNL     1      39.927   3.228  35.058  1.00  0.00     0.157 HD
ENDBRANCH   1  27
TORSDOF 4
ENDMDL
