MODEL 3
REMARK VINA RESULT: -8.302065783      1.290      2.037
REMARK  4 active torsions:
REMARK  status: ('A' for Active; 'I' for Inactive)
REMARK    1  A    between atoms: C1_2  and  C2_6 
REMARK    2  A    between atoms: C5_11  and  C6_12 
REMARK    3  A    between atoms: C10_16  and  C11_17 
REMARK    4  A    between atoms: C17_23  and  O1_24 
ROOT
HETATM    1  C2  UNL     1      43.864  -1.996  26.203  1.00  0.00     0.029 A 
HETATM    2  C3  UNL     1      43.675  -1.160  27.320  1.00  0.00     0.048 A 
HETATM    3  C4  UNL     1      43.571  -1.625  28.597  1.00  0.00     0.061 A 
HETATM    4  N3  UNL     1      43.393  -1.055  29.814  1.00  0.00    -0.340 N 
ATOM      5  H3  UNL     1      43.296  -0.053  29.977  1.00  0.00     0.167 HD
HETATM    6  C5  UNL     1      43.361  -1.979  30.760  1.00  0.00     0.119 A 
HETATM    7  N4  UNL     1      43.524  -3.159  30.127  1.00  0.00    -0.340 N 
ATOM      8  H4  UNL     1      43.545  -4.067  30.591  1.00  0.00     0.167 HD
HETATM    9  C18 UNL     1      43.655  -2.977  28.804  1.00  0.00     0.062 A 
HETATM   10  C19 UNL     1      43.836  -3.824  27.770  1.00  0.00     0.056 A 
HETATM   11  C20 UNL     1      43.940  -3.331  26.468  1.00  0.00     0.050 A 
HETATM   12 CL1  UNL     1      44.175  -4.529  25.195  1.00  0.00    -0.083 Cl
ENDROOT
BRANCH   6  13
HETATM   13  C6  UNL     1      43.195  -1.879  32.204  1.00  0.00     0.042 A 
HETATM   14  C7  UNL     1      42.507  -2.862  32.904  1.00  0.00     0.018 A 
HETATM   15  C8  UNL     1      42.319  -2.815  34.278  1.00  0.00     0.002 A 
HETATM   16  C9  UNL     1      42.857  -1.728  34.934  1.00  0.00     0.015 A 
HETATM   17  C10 UNL     1      43.545  -0.732  34.281  1.00  0.00     0.008 A 
HETATM   18  C17 UNL     1      43.719  -0.806  32.890  1.00  0.00     0.090 A 
BRANCH  17  19
HETATM   19  C11 UNL     1      44.108   0.416  34.991  1.00  0.00    -0.023 A 
HETATM   20  C12 UNL     1      45.316   0.323  35.657  1.00  0.00     0.012 A 
HETATM   21  C13 UNL     1      45.896   1.362  36.344  1.00  0.00     0.001 A 
HETATM   22  C14 UNL     1      45.234   2.571  36.371  1.00  0.00     0.000 A 
HETATM   23  C15 UNL     1      44.026   2.712  35.722  1.00  0.00     0.001 A 
HETATM   24  C16 UNL     1      43.476   1.645  35.043  1.00  0.00     0.012 A 
ENDBRANCH  17  19
BRANCH  18  25
HETATM   25  O1  UNL     1      44.421   0.237  32.330  1.00  0.00    -0.359 OA
ATOM     26  H1  UNL     1      44.335   1.152  32.568  1.00  0.00     0.217 HD
ENDBRANCH  18  25
ENDBRANCH   6  13
BRANCH   1  27
HETATM   27  C1  UNL     1      43.963  -1.427  24.890  1.00  0.00     0.122 C 
HETATM   28  N1  UNL     1      43.722   0.009  24.799  1.00  0.00    -0.082 NA
HETATM   29  N2  UNL     1      44.233  -2.009  23.809  1.00  0.00    -0.387 N 
ATOM     30  H22 UNL     1      44.304  -1.604  22.876  1.00  0.00     0.157 HD
ATOM     31  H21 UNL     1      44.401  -3.013  23.873  1.00  0.00     0.157 HD
ENDBRANCH   1  27
TORSDOF 4
ENDMDL
