MODEL 1
REMARK VINA RESULT: -8.725472487      0.000      0.000
REMARK  4 active torsions:
REMARK  status: ('A' for Active; 'I' for Inactive)
REMARK    1  A    between atoms: C1_2  and  C2_6 
REMARK    2  A    between atoms: C5_11  and  C6_12 
REMARK    3  A    between atoms: C10_16  and  C11_17 
REMARK    4  A    between atoms: C17_23  and  O1_24 
ROOT
HETATM    1  C2  UNL     1      43.964  -2.899  25.819  1.00  0.00     0.029 A 
HETATM    2  C3  UNL     1      43.854  -3.595  27.037  1.00  0.00     0.048 A 
HETATM    3  C4  UNL     1      43.675  -2.979  28.241  1.00  0.00     0.061 A 
HETATM    4  N3  UNL     1      43.541  -3.399  29.522  1.00  0.00    -0.340 N 
ATOM      5  H3  UNL     1      43.556  -4.374  29.819  1.00  0.00     0.167 HD
HETATM    6  C5  UNL     1      43.388  -2.367  30.336  1.00  0.00     0.119 A 
HETATM    7  N4  UNL     1      43.425  -1.271  29.550  1.00  0.00    -0.340 N 
ATOM      8  H4  UNL     1      43.333  -0.313  29.888  1.00  0.00     0.167 HD
HETATM    9  C18 UNL     1      43.600  -1.611  28.264  1.00  0.00     0.062 A 
HETATM   10  C19 UNL     1      43.700  -0.894  27.126  1.00  0.00     0.056 A 
HETATM   11  C20 UNL     1      43.883  -1.541  25.902  1.00  0.00     0.050 A 
HETATM   12 CL1  UNL     1      44.000  -0.504  24.480  1.00  0.00    -0.083 Cl
ENDROOT
BRANCH   6  13
HETATM   13  C6  UNL     1      43.208  -2.292  31.780  1.00  0.00     0.042 A 
HETATM   14  C7  UNL     1      42.612  -3.339  32.471  1.00  0.00     0.018 A 
HETATM   15  C8  UNL     1      42.416  -3.318  33.844  1.00  0.00     0.002 A 
HETATM   16  C9  UNL     1      42.849  -2.190  34.509  1.00  0.00     0.015 A 
HETATM   17  C10 UNL     1      43.442  -1.130  33.864  1.00  0.00     0.008 A 
HETATM   18  C17 UNL     1      43.628  -1.179  32.474  1.00  0.00     0.090 A 
BRANCH  17  19
HETATM   19  C11 UNL     1      43.894   0.061  34.584  1.00  0.00    -0.023 A 
HETATM   20  C12 UNL     1      43.090   1.181  34.690  1.00  0.00     0.012 A 
HETATM   21  C13 UNL     1      43.457   2.329  35.349  1.00  0.00     0.001 A 
HETATM   22  C14 UNL     1      44.701   2.368  35.941  1.00  0.00     0.000 A 
HETATM   23  C15 UNL     1      45.539   1.276  35.861  1.00  0.00     0.001 A 
HETATM   24  C16 UNL     1      45.134   0.141  35.191  1.00  0.00     0.012 A 
ENDBRANCH  17  19
BRANCH  18  25
HETATM   25  O1  UNL     1      44.231  -0.071  31.922  1.00  0.00    -0.359 OA
ATOM     26  H1  UNL     1      45.167   0.054  31.816  1.00  0.00     0.217 HD
ENDBRANCH  18  25
ENDBRANCH   6  13
BRANCH   1  27
HETATM   27  C1  UNL     1      44.151  -3.623  24.594  1.00  0.00     0.122 C 
HETATM   28  N1  UNL     1      43.196  -4.695  24.337  1.00  0.00    -0.082 NA
HETATM   29  N2  UNL     1      45.033  -3.449  23.716  1.00  0.00    -0.387 N 
ATOM     30  H22 UNL     1      45.166  -3.964  22.845  1.00  0.00     0.157 HD
ATOM     31  H21 UNL     1      45.701  -2.700  23.896  1.00  0.00     0.157 HD
ENDBRANCH   1  27
TORSDOF 4
ENDMDL
