MODEL 9
REMARK VINA RESULT: -7.295439194      1.284      1.498
REMARK  6 active torsions:
REMARK  status: ('A' for Active; 'I' for Inactive)
REMARK    1  A    between atoms: C2_2  and  C4_4 
REMARK    2  A    between atoms: C4_4  and  O1_5 
REMARK    3  A    between atoms: O1_5  and  C5_6 
REMARK    4  A    between atoms: C9_10  and  C10_11 
REMARK    5  A    between atoms: C13_16  and  C14_17 
REMARK    6  A    between atoms: C18_28  and  O2_29 
ROOT
HETATM    1  C10 UNL     1      42.420  -1.701  30.271  1.00  0.00     0.119 A 
HETATM    2  N1  UNL     1      42.244  -2.719  29.393  1.00  0.00    -0.340 N 
ATOM      3  H1  UNL     1      41.587  -3.490  29.517  1.00  0.00     0.167 HD
HETATM    4  C11 UNL     1      43.058  -2.564  28.338  1.00  0.00     0.061 A 
HETATM    5  C12 UNL     1      43.318  -3.239  27.185  1.00  0.00     0.050 A 
HETATM    6  C13 UNL     1      44.255  -2.838  26.220  1.00  0.00     0.045 A 
HETATM    7  C15 UNL     1      44.937  -1.690  26.484  1.00  0.00     0.132 A 
HETATM    8  F1  UNL     1      45.862  -1.213  25.621  1.00  0.00    -0.205 F 
HETATM    9  C16 UNL     1      44.688  -0.969  27.670  1.00  0.00     0.075 A 
HETATM   10  C17 UNL     1      43.760  -1.407  28.579  1.00  0.00     0.063 A 
HETATM   11  N4  UNL     1      43.354  -0.887  29.777  1.00  0.00    -0.340 N 
ATOM     12  H4  UNL     1      43.702  -0.032  30.213  1.00  0.00     0.167 HD
ENDROOT
BRANCH   1  13
HETATM   13  C9  UNL     1      41.714  -1.526  31.536  1.00  0.00     0.044 A 
HETATM   14  C8  UNL     1      40.527  -2.249  31.729  1.00  0.00     0.018 A 
HETATM   15  C7  UNL     1      39.789  -2.153  32.884  1.00  0.00     0.004 A 
HETATM   16  C6  UNL     1      40.225  -1.314  33.904  1.00  0.00     0.040 A 
HETATM   17  C5  UNL     1      41.382  -0.583  33.763  1.00  0.00     0.102 A 
HETATM   18  C18 UNL     1      42.110  -0.715  32.554  1.00  0.00     0.113 A 
BRANCH  17  19
HETATM   19  O1  UNL     1      41.847   0.234  34.695  1.00  0.00    -0.348 OA
BRANCH  19  20
HETATM   20  C4  UNL     1      42.361   0.449  35.892  1.00  0.00     0.179 C 
BRANCH  20  21
HETATM   21  C2  UNL     1      43.751   0.980  36.061  1.00  0.00     0.002 C 
HETATM   22  C1  UNL     1      44.787   0.097  35.492  1.00  0.00     0.011 C 
HETATM   23  C3  UNL     1      43.793   2.300  35.278  1.00  0.00     0.011 C 
ENDBRANCH  20  21
ENDBRANCH  19  20
ENDBRANCH  17  19
BRANCH  18  24
HETATM   24  O2  UNL     1      43.263   0.016  32.422  1.00  0.00    -0.357 OA
ATOM     25  H2  UNL     1      43.417   0.450  31.592  1.00  0.00     0.217 HD
ENDBRANCH  18  24
ENDBRANCH   1  13
BRANCH   6  26
HETATM   26  C14 UNL     1      44.446  -3.633  25.037  1.00  0.00     0.123 C 
HETATM   27  N2  UNL     1      44.337  -2.995  23.735  1.00  0.00    -0.082 NA
HETATM   28  N3  UNL     1      44.708  -4.870  25.023  1.00  0.00    -0.387 N 
ATOM     29  H32 UNL     1      44.784  -5.318  25.936  1.00  0.00     0.157 HD
ATOM     30  H31 UNL     1      44.843  -5.434  24.183  1.00  0.00     0.157 HD
ENDBRANCH   6  26
TORSDOF 6
ENDMDL
