MODEL 7
REMARK VINA RESULT: -7.374916412      3.940      8.674
REMARK  6 active torsions:
REMARK  status: ('A' for Active; 'I' for Inactive)
REMARK    1  A    between atoms: C2_2  and  C4_4 
REMARK    2  A    between atoms: C4_4  and  O1_5 
REMARK    3  A    between atoms: O1_5  and  C5_6 
REMARK    4  A    between atoms: C9_10  and  C10_11 
REMARK    5  A    between atoms: C13_16  and  C14_17 
REMARK    6  A    between atoms: C18_28  and  O2_29 
ROOT
HETATM    1  C10 UNL     1      42.827  -0.931  32.210  1.00  0.00     0.119 A 
HETATM    2  N1  UNL     1      42.085  -0.466  33.245  1.00  0.00    -0.340 N 
ATOM      3  H1  UNL     1      41.091  -0.649  33.380  1.00  0.00     0.167 HD
HETATM    4  C11 UNL     1      42.849   0.271  34.067  1.00  0.00     0.061 A 
HETATM    5  C12 UNL     1      42.669   0.966  35.223  1.00  0.00     0.050 A 
HETATM    6  C13 UNL     1      43.680   1.672  35.894  1.00  0.00     0.045 A 
HETATM    7  C15 UNL     1      44.916   1.642  35.324  1.00  0.00     0.132 A 
HETATM    8  F1  UNL     1      45.961   2.288  35.889  1.00  0.00    -0.205 F 
HETATM    9  C16 UNL     1      45.131   0.929  34.127  1.00  0.00     0.075 A 
HETATM   10  C17 UNL     1      44.108   0.256  33.513  1.00  0.00     0.063 A 
HETATM   11  N4  UNL     1      44.076  -0.490  32.367  1.00  0.00    -0.340 N 
ATOM     12  H4  UNL     1      44.864  -0.677  31.746  1.00  0.00     0.167 HD
ENDROOT
BRANCH   1  13
HETATM   13  C9  UNL     1      42.345  -1.766  31.116  1.00  0.00     0.044 A 
HETATM   14  C8  UNL     1      41.135  -2.451  31.298  1.00  0.00     0.018 A 
HETATM   15  C7  UNL     1      40.597  -3.262  30.328  1.00  0.00     0.004 A 
HETATM   16  C6  UNL     1      41.266  -3.415  29.119  1.00  0.00     0.040 A 
HETATM   17  C5  UNL     1      42.458  -2.765  28.891  1.00  0.00     0.102 A 
HETATM   18  C18 UNL     1      42.973  -1.939  29.921  1.00  0.00     0.113 A 
BRANCH  17  19
HETATM   19  O1  UNL     1      43.143  -2.873  27.764  1.00  0.00    -0.348 OA
BRANCH  19  20
HETATM   20  C4  UNL     1      43.683  -3.600  26.804  1.00  0.00     0.179 C 
BRANCH  20  21
HETATM   21  C2  UNL     1      44.578  -2.990  25.770  1.00  0.00     0.002 C 
HETATM   22  C1  UNL     1      44.247  -3.404  24.393  1.00  0.00     0.011 C 
HETATM   23  C3  UNL     1      44.347  -1.474  25.860  1.00  0.00     0.011 C 
ENDBRANCH  20  21
ENDBRANCH  19  20
ENDBRANCH  17  19
BRANCH  18  24
HETATM   24  O2  UNL     1      44.160  -1.294  29.685  1.00  0.00    -0.357 OA
ATOM     25  H2  UNL     1      44.186  -0.355  29.821  1.00  0.00     0.217 HD
ENDBRANCH  18  24
ENDBRANCH   1  13
BRANCH   6  26
HETATM   26  C14 UNL     1      43.373   2.372  37.112  1.00  0.00     0.123 C 
HETATM   27  N2  UNL     1      43.790   1.797  38.379  1.00  0.00    -0.082 NA
HETATM   28  N3  UNL     1      42.755   3.474  37.185  1.00  0.00    -0.387 N 
ATOM     29  H32 UNL     1      42.462   3.877  36.296  1.00  0.00     0.157 HD
ATOM     30  H31 UNL     1      42.537   3.971  38.049  1.00  0.00     0.157 HD
ENDBRANCH   6  26
TORSDOF 6
ENDMDL
