MODEL 10
REMARK VINA RESULT: -7.267883236      3.986      8.653
REMARK  6 active torsions:
REMARK  status: ('A' for Active; 'I' for Inactive)
REMARK    1  A    between atoms: C2_2  and  C4_4 
REMARK    2  A    between atoms: C4_4  and  O1_5 
REMARK    3  A    between atoms: O1_5  and  C5_6 
REMARK    4  A    between atoms: C9_10  and  C10_11 
REMARK    5  A    between atoms: C13_16  and  C14_17 
REMARK    6  A    between atoms: C18_28  and  O2_29 
ROOT
HETATM    1  C10 UNL     1      43.333  -1.382  32.568  1.00  0.00     0.119 A 
HETATM    2  N1  UNL     1      42.466  -1.232  33.598  1.00  0.00    -0.340 N 
ATOM      3  H1  UNL     1      41.707  -1.877  33.822  1.00  0.00     0.167 HD
HETATM    4  C11 UNL     1      42.749  -0.112  34.281  1.00  0.00     0.061 A 
HETATM    5  C12 UNL     1      42.246   0.535  35.368  1.00  0.00     0.050 A 
HETATM    6  C13 UNL     1      42.756   1.736  35.887  1.00  0.00     0.045 A 
HETATM    7  C15 UNL     1      43.828   2.266  35.237  1.00  0.00     0.132 A 
HETATM    8  F1  UNL     1      44.396   3.419  35.655  1.00  0.00    -0.205 F 
HETATM    9  C16 UNL     1      44.370   1.617  34.109  1.00  0.00     0.075 A 
HETATM   10  C17 UNL     1      43.833   0.445  33.644  1.00  0.00     0.063 A 
HETATM   11  N4  UNL     1      44.181  -0.352  32.588  1.00  0.00    -0.340 N 
ATOM     12  H4  UNL     1      44.948  -0.189  31.936  1.00  0.00     0.167 HD
ENDROOT
BRANCH   1  13
HETATM   13  C9  UNL     1      43.341  -2.478  31.605  1.00  0.00     0.044 A 
HETATM   14  C8  UNL     1      43.055  -3.767  32.076  1.00  0.00     0.018 A 
HETATM   15  C7  UNL     1      43.038  -4.864  31.249  1.00  0.00     0.004 A 
HETATM   16  C6  UNL     1      43.310  -4.702  29.895  1.00  0.00     0.040 A 
HETATM   17  C5  UNL     1      43.597  -3.457  29.383  1.00  0.00     0.102 A 
HETATM   18  C18 UNL     1      43.603  -2.356  30.274  1.00  0.00     0.113 A 
BRANCH  17  19
HETATM   19  O1  UNL     1      43.867  -3.239  28.106  1.00  0.00    -0.348 OA
BRANCH  19  20
HETATM   20  C4  UNL     1      43.874  -3.623  26.843  1.00  0.00     0.179 C 
BRANCH  20  21
HETATM   21  C2  UNL     1      44.651  -2.877  25.803  1.00  0.00     0.002 C 
HETATM   22  C1  UNL     1      44.293  -3.256  24.423  1.00  0.00     0.011 C 
HETATM   23  C3  UNL     1      44.277  -1.398  25.983  1.00  0.00     0.011 C 
ENDBRANCH  20  21
ENDBRANCH  19  20
ENDBRANCH  17  19
BRANCH  18  24
HETATM   24  O2  UNL     1      43.889  -1.119  29.756  1.00  0.00    -0.357 OA
ATOM     25  H2  UNL     1      44.714  -0.718  30.000  1.00  0.00     0.217 HD
ENDBRANCH  18  24
ENDBRANCH   1  13
BRANCH   6  26
HETATM   26  C14 UNL     1      42.141   2.330  37.043  1.00  0.00     0.123 C 
HETATM   27  N2  UNL     1      42.740   2.113  38.349  1.00  0.00    -0.082 NA
HETATM   28  N3  UNL     1      41.097   3.045  37.030  1.00  0.00    -0.387 N 
ATOM     29  H32 UNL     1      40.677   3.197  36.113  1.00  0.00     0.157 HD
ATOM     30  H31 UNL     1      40.661   3.467  37.850  1.00  0.00     0.157 HD
ENDBRANCH   6  26
TORSDOF 6
ENDMDL
