MODEL 1
REMARK VINA RESULT: -8.146773211      0.000      0.000
REMARK  6 active torsions:
REMARK  status: ('A' for Active; 'I' for Inactive)
REMARK    1  A    between atoms: C2_2  and  C4_4 
REMARK    2  A    between atoms: C4_4  and  O1_5 
REMARK    3  A    between atoms: O1_5  and  C5_6 
REMARK    4  A    between atoms: C9_10  and  C10_11 
REMARK    5  A    between atoms: C13_16  and  C14_17 
REMARK    6  A    between atoms: C18_28  and  O2_29 
ROOT
HETATM    1  C10 UNL     1      43.341  -2.112  30.516  1.00  0.00     0.119 A 
HETATM    2  N1  UNL     1      43.457  -3.218  29.741  1.00  0.00    -0.340 N 
ATOM      3  H1  UNL     1      43.334  -4.177  30.069  1.00  0.00     0.167 HD
HETATM    4  C11 UNL     1      43.757  -2.870  28.480  1.00  0.00     0.061 A 
HETATM    5  C12 UNL     1      43.986  -3.518  27.305  1.00  0.00     0.050 A 
HETATM    6  C13 UNL     1      44.290  -2.882  26.091  1.00  0.00     0.045 A 
HETATM    7  C15 UNL     1      44.355  -1.523  26.122  1.00  0.00     0.132 A 
HETATM    8  F1  UNL     1      44.640  -0.812  25.009  1.00  0.00    -0.205 F 
HETATM    9  C16 UNL     1      44.122  -0.826  27.326  1.00  0.00     0.075 A 
HETATM   10  C17 UNL     1      43.828  -1.497  28.484  1.00  0.00     0.063 A 
HETATM   11  N4  UNL     1      43.569  -1.045  29.748  1.00  0.00    -0.340 N 
ATOM     12  H4  UNL     1      43.552  -0.070  30.050  1.00  0.00     0.167 HD
ENDROOT
BRANCH   1  13
HETATM   13  C9  UNL     1      43.025  -2.091  31.940  1.00  0.00     0.044 A 
HETATM   14  C8  UNL     1      42.480  -3.252  32.507  1.00  0.00     0.018 A 
HETATM   15  C7  UNL     1      42.147  -3.332  33.838  1.00  0.00     0.004 A 
HETATM   16  C6  UNL     1      42.355  -2.230  34.660  1.00  0.00     0.040 A 
HETATM   17  C5  UNL     1      42.886  -1.067  34.151  1.00  0.00     0.102 A 
HETATM   18  C18 UNL     1      43.213  -1.031  32.773  1.00  0.00     0.113 A 
BRANCH  17  19
HETATM   19  O1  UNL     1      43.104   0.016  34.881  1.00  0.00    -0.348 OA
BRANCH  19  20
HETATM   20  C4  UNL     1      43.822   0.695  35.756  1.00  0.00     0.179 C 
BRANCH  20  21
HETATM   21  C2  UNL     1      45.156   1.271  35.394  1.00  0.00     0.002 C 
HETATM   22  C1  UNL     1      45.605   2.330  36.318  1.00  0.00     0.011 C 
HETATM   23  C3  UNL     1      46.156   0.112  35.504  1.00  0.00     0.011 C 
ENDBRANCH  20  21
ENDBRANCH  19  20
ENDBRANCH  17  19
BRANCH  18  24
HETATM   24  O2  UNL     1      43.743   0.131  32.275  1.00  0.00    -0.357 OA
ATOM     25  H2  UNL     1      44.134   0.102  31.410  1.00  0.00     0.217 HD
ENDBRANCH  18  24
ENDBRANCH   1  13
BRANCH   6  26
HETATM   26  C14 UNL     1      44.513  -3.671  24.910  1.00  0.00     0.123 C 
HETATM   27  N2  UNL     1      44.518  -3.013  23.614  1.00  0.00    -0.082 NA
HETATM   28  N3  UNL     1      44.712  -4.921  24.892  1.00  0.00    -0.387 N 
ATOM     29  H32 UNL     1      44.708  -5.382  25.801  1.00  0.00     0.157 HD
ATOM     30  H31 UNL     1      44.870  -5.480  24.054  1.00  0.00     0.157 HD
ENDBRANCH   6  26
TORSDOF 6
ENDMDL
