MODEL 8
REMARK VINA RESULT: -7.304166628      4.088      5.542
REMARK  6 active torsions:
REMARK  status: ('A' for Active; 'I' for Inactive)
REMARK    1  A    between atoms: C2_2  and  C4_4 
REMARK    2  A    between atoms: C4_4  and  O1_5 
REMARK    3  A    between atoms: O1_5  and  C5_6 
REMARK    4  A    between atoms: C9_10  and  C10_11 
REMARK    5  A    between atoms: C13_16  and  C14_17 
REMARK    6  A    between atoms: C18_28  and  O2_29 
ROOT
HETATM    1  C10 UNL     1      43.599  -4.478  30.175  1.00  0.00     0.119 A 
HETATM    2  N1  UNL     1      43.775  -4.940  28.913  1.00  0.00    -0.340 N 
ATOM      3  H1  UNL     1      43.789  -5.925  28.647  1.00  0.00     0.167 HD
HETATM    4  C11 UNL     1      43.927  -3.913  28.062  1.00  0.00     0.061 A 
HETATM    5  C12 UNL     1      44.129  -3.760  26.724  1.00  0.00     0.050 A 
HETATM    6  C13 UNL     1      44.256  -2.523  26.073  1.00  0.00     0.045 A 
HETATM    7  C15 UNL     1      44.168  -1.417  26.861  1.00  0.00     0.132 A 
HETATM    8  F1  UNL     1      44.276  -0.176  26.335  1.00  0.00    -0.205 F 
HETATM    9  C16 UNL     1      43.958  -1.545  28.249  1.00  0.00     0.075 A 
HETATM   10  C17 UNL     1      43.841  -2.778  28.834  1.00  0.00     0.063 A 
HETATM   11  N4  UNL     1      43.638  -3.145  30.136  1.00  0.00    -0.340 N 
ATOM     12  H4  UNL     1      43.536  -2.515  30.932  1.00  0.00     0.167 HD
ENDROOT
BRANCH   1  13
HETATM   13  C9  UNL     1      43.402  -5.294  31.368  1.00  0.00     0.044 A 
HETATM   14  C8  UNL     1      42.647  -4.750  32.416  1.00  0.00     0.018 A 
HETATM   15  C7  UNL     1      42.405  -5.438  33.581  1.00  0.00     0.004 A 
HETATM   16  C6  UNL     1      42.921  -6.720  33.735  1.00  0.00     0.040 A 
HETATM   17  C5  UNL     1      43.669  -7.298  32.736  1.00  0.00     0.102 A 
HETATM   18  C18 UNL     1      43.892  -6.551  31.553  1.00  0.00     0.113 A 
BRANCH  17  19
HETATM   19  O1  UNL     1      44.190  -8.512  32.824  1.00  0.00    -0.348 OA
BRANCH  19  20
HETATM   20  C4  UNL     1      45.002  -9.384  33.393  1.00  0.00     0.179 C 
BRANCH  20  21
HETATM   21  C2  UNL     1      46.386  -9.617  32.871  1.00  0.00     0.002 C 
HETATM   22  C1  UNL     1      46.413 -10.073  31.468  1.00  0.00     0.011 C 
HETATM   23  C3  UNL     1      47.088  -8.252  32.923  1.00  0.00     0.011 C 
ENDBRANCH  20  21
ENDBRANCH  19  20
ENDBRANCH  17  19
BRANCH  18  24
HETATM   24  O2  UNL     1      44.638  -7.135  30.562  1.00  0.00    -0.357 OA
ATOM     25  H2  UNL     1      44.899  -8.040  30.681  1.00  0.00     0.217 HD
ENDBRANCH  18  24
ENDBRANCH   1  13
BRANCH   6  26
HETATM   26  C14 UNL     1      44.467  -2.484  24.652  1.00  0.00     0.123 C 
HETATM   27  N2  UNL     1      44.243  -1.237  23.941  1.00  0.00    -0.082 NA
HETATM   28  N3  UNL     1      44.842  -3.462  23.941  1.00  0.00    -0.387 N 
ATOM     29  H32 UNL     1      44.998  -4.338  24.440  1.00  0.00     0.157 HD
ATOM     30  H31 UNL     1      44.992  -3.435  22.933  1.00  0.00     0.157 HD
ENDBRANCH   6  26
TORSDOF 6
ENDMDL
