MODEL 4
REMARK VINA RESULT: -7.595183948      1.025      1.556
REMARK  6 active torsions:
REMARK  status: ('A' for Active; 'I' for Inactive)
REMARK    1  A    between atoms: C2_2  and  C4_4 
REMARK    2  A    between atoms: C4_4  and  O1_5 
REMARK    3  A    between atoms: O1_5  and  C5_6 
REMARK    4  A    between atoms: C9_10  and  C10_11 
REMARK    5  A    between atoms: C13_16  and  C14_17 
REMARK    6  A    between atoms: C18_28  and  O2_29 
ROOT
HETATM    1  C10 UNL     1      43.366  -2.087  30.499  1.00  0.00     0.119 A 
HETATM    2  N1  UNL     1      43.477  -3.197  29.729  1.00  0.00    -0.340 N 
ATOM      3  H1  UNL     1      43.358  -4.154  30.063  1.00  0.00     0.167 HD
HETATM    4  C11 UNL     1      43.766  -2.855  28.464  1.00  0.00     0.061 A 
HETATM    5  C12 UNL     1      43.986  -3.509  27.291  1.00  0.00     0.050 A 
HETATM    6  C13 UNL     1      44.279  -2.880  26.070  1.00  0.00     0.045 A 
HETATM    7  C15 UNL     1      44.342  -1.521  26.093  1.00  0.00     0.132 A 
HETATM    8  F1  UNL     1      44.617  -0.816  24.973  1.00  0.00    -0.205 F 
HETATM    9  C16 UNL     1      44.118  -0.817  27.295  1.00  0.00     0.075 A 
HETATM   10  C17 UNL     1      43.835  -1.482  28.459  1.00  0.00     0.063 A 
HETATM   11  N4  UNL     1      43.585  -1.023  29.723  1.00  0.00    -0.340 N 
ATOM     12  H4  UNL     1      43.570  -0.047  30.019  1.00  0.00     0.167 HD
ENDROOT
BRANCH   1  13
HETATM   13  C9  UNL     1      43.061  -2.058  31.925  1.00  0.00     0.044 A 
HETATM   14  C8  UNL     1      42.471  -3.197  32.492  1.00  0.00     0.018 A 
HETATM   15  C7  UNL     1      42.146  -3.268  33.825  1.00  0.00     0.004 A 
HETATM   16  C6  UNL     1      42.406  -2.179  34.650  1.00  0.00     0.040 A 
HETATM   17  C5  UNL     1      42.983  -1.038  34.142  1.00  0.00     0.102 A 
HETATM   18  C18 UNL     1      43.301  -1.011  32.761  1.00  0.00     0.113 A 
BRANCH  17  19
HETATM   19  O1  UNL     1      43.252   0.031  34.874  1.00  0.00    -0.348 OA
BRANCH  19  20
HETATM   20  C4  UNL     1      43.015   1.280  35.227  1.00  0.00     0.179 C 
BRANCH  20  21
HETATM   21  C2  UNL     1      41.887   1.631  36.149  1.00  0.00     0.002 C 
HETATM   22  C1  UNL     1      40.556   1.410  35.553  1.00  0.00     0.011 C 
HETATM   23  C3  UNL     1      42.016   0.680  37.347  1.00  0.00     0.011 C 
ENDBRANCH  20  21
ENDBRANCH  19  20
ENDBRANCH  17  19
BRANCH  18  24
HETATM   24  O2  UNL     1      43.876   0.130  32.263  1.00  0.00    -0.357 OA
ATOM     25  H2  UNL     1      44.599   0.508  32.748  1.00  0.00     0.217 HD
ENDBRANCH  18  24
ENDBRANCH   1  13
BRANCH   6  26
HETATM   26  C14 UNL     1      44.493  -3.675  24.892  1.00  0.00     0.123 C 
HETATM   27  N2  UNL     1      44.476  -3.026  23.592  1.00  0.00    -0.082 NA
HETATM   28  N3  UNL     1      44.702  -4.923  24.880  1.00  0.00    -0.387 N 
ATOM     29  H32 UNL     1      44.713  -5.379  25.792  1.00  0.00     0.157 HD
ATOM     30  H31 UNL     1      44.854  -5.487  24.043  1.00  0.00     0.157 HD
ENDBRANCH   6  26
TORSDOF 6
ENDMDL
