MODEL 3
REMARK VINA RESULT: -7.872505857      4.235      9.238
REMARK  5 active torsions:
REMARK  status: ('A' for Active; 'I' for Inactive)
REMARK    1  A    between atoms: C1_2  and  C2_6 
REMARK    2  A    between atoms: C6_10  and  C7_11 
REMARK    3  A    between atoms: C11_15  and  O1_16 
REMARK    4  A    between atoms: O1_16  and  C12_17 
REMARK    5  A    between atoms: C17_22  and  O2_23 
ROOT
HETATM    1  C2  UNL     1      42.500   2.305  36.425  1.00  0.00     0.027 A 
HETATM    2  C3  UNL     1      41.881   1.230  35.806  1.00  0.00     0.030 A 
HETATM    3  C4  UNL     1      42.454   0.623  34.683  1.00  0.00    -0.006 A 
HETATM    4  C5  UNL     1      42.095  -0.422  33.878  1.00  0.00     0.044 A 
HETATM    5  C6  UNL     1      43.051  -0.599  32.888  1.00  0.00     0.046 A 
HETATM    6  N3  UNL     1      43.962   0.333  33.110  1.00  0.00    -0.355 N 
ATOM      7  H3  UNL     1      44.799   0.462  32.543  1.00  0.00     0.166 HD
HETATM    8  C18 UNL     1      43.644   1.103  34.193  1.00  0.00     0.044 A 
HETATM    9  C19 UNL     1      44.256   2.172  34.811  1.00  0.00     0.055 A 
HETATM   10  C20 UNL     1      43.711   2.785  35.918  1.00  0.00     0.049 A 
HETATM   11 CL1  UNL     1      44.469   4.139  36.714  1.00  0.00    -0.083 Cl
ENDROOT
BRANCH   5  12
HETATM   12  C7  UNL     1      42.996  -1.621  31.852  1.00  0.00     0.027 A 
HETATM   13  C8  UNL     1      42.952  -2.970  32.207  1.00  0.00     0.017 A 
HETATM   14  C9  UNL     1      42.899  -3.981  31.281  1.00  0.00     0.004 A 
HETATM   15  C10 UNL     1      42.887  -3.671  29.916  1.00  0.00     0.040 A 
HETATM   16  C11 UNL     1      42.929  -2.359  29.528  1.00  0.00     0.103 A 
HETATM   17  C17 UNL     1      42.982  -1.367  30.513  1.00  0.00     0.111 A 
BRANCH  16  18
HETATM   18  O1  UNL     1      42.917  -2.032  28.195  1.00  0.00    -0.343 OA
BRANCH  18  19
HETATM   19  C12 UNL     1      43.841  -2.258  27.211  1.00  0.00     0.129 C 
HETATM   20  C13 UNL     1      43.455  -3.498  26.384  1.00  0.00     0.032 C 
HETATM   21  C14 UNL     1      44.433  -3.332  25.213  1.00  0.00     0.002 C 
HETATM   22  C15 UNL     1      44.146  -1.879  24.834  1.00  0.00     0.002 C 
HETATM   23  C16 UNL     1      43.790  -1.186  26.132  1.00  0.00     0.032 C 
ENDBRANCH  18  19
ENDBRANCH  16  18
BRANCH  17  24
HETATM   24  O2  UNL     1      43.022  -0.068  30.056  1.00  0.00    -0.357 OA
ATOM     25  H2  UNL     1      43.476   0.138  29.248  1.00  0.00     0.217 HD
ENDBRANCH  17  24
ENDBRANCH   5  12
BRANCH   1  26
HETATM   26  C1  UNL     1      41.933   2.960  37.594  1.00  0.00     0.121 C 
HETATM   27  N1  UNL     1      42.299   2.536  38.905  1.00  0.00    -0.082 NA
HETATM   28  N2  UNL     1      41.101   3.924  37.486  1.00  0.00    -0.387 N 
ATOM     29  H22 UNL     1      40.703   4.383  38.306  1.00  0.00     0.157 HD
ATOM     30  H21 UNL     1      40.839   4.227  36.548  1.00  0.00     0.157 HD
ENDBRANCH   1  26
TORSDOF 5
ENDMDL
