MODEL 6
REMARK VINA RESULT: -7.507711791      4.583      9.451
REMARK  5 active torsions:
REMARK  status: ('A' for Active; 'I' for Inactive)
REMARK    1  A    between atoms: C1_2  and  C2_6 
REMARK    2  A    between atoms: C6_10  and  C7_11 
REMARK    3  A    between atoms: C11_15  and  O1_16 
REMARK    4  A    between atoms: O1_16  and  C12_17 
REMARK    5  A    between atoms: C17_22  and  O2_23 
ROOT
HETATM    1  C2  UNL     1      42.771   2.844  37.056  1.00  0.00     0.027 A 
HETATM    2  C3  UNL     1      42.013   2.137  36.135  1.00  0.00     0.030 A 
HETATM    3  C4  UNL     1      42.595   1.142  35.342  1.00  0.00    -0.006 A 
HETATM    4  C5  UNL     1      42.126   0.298  34.375  1.00  0.00     0.044 A 
HETATM    5  C6  UNL     1      43.160  -0.501  33.909  1.00  0.00     0.046 A 
HETATM    6  N3  UNL     1      44.226  -0.129  34.596  1.00  0.00    -0.355 N 
ATOM      7  H3  UNL     1      45.154  -0.536  34.478  1.00  0.00     0.166 HD
HETATM    8  C18 UNL     1      43.935   0.869  35.482  1.00  0.00     0.044 A 
HETATM    9  C19 UNL     1      44.684   1.575  36.398  1.00  0.00     0.055 A 
HETATM   10  C20 UNL     1      44.132   2.557  37.191  1.00  0.00     0.049 A 
HETATM   11 CL1  UNL     1      45.063   3.462  38.355  1.00  0.00    -0.083 Cl
ENDROOT
BRANCH   5  12
HETATM   12  C7  UNL     1      43.024  -1.517  32.875  1.00  0.00     0.027 A 
HETATM   13  C8  UNL     1      42.837  -2.854  33.232  1.00  0.00     0.017 A 
HETATM   14  C9  UNL     1      42.703  -3.858  32.308  1.00  0.00     0.004 A 
HETATM   15  C10 UNL     1      42.750  -3.555  30.942  1.00  0.00     0.040 A 
HETATM   16  C11 UNL     1      42.932  -2.255  30.552  1.00  0.00     0.103 A 
HETATM   17  C17 UNL     1      43.064  -1.269  31.535  1.00  0.00     0.111 A 
BRANCH  16  18
HETATM   18  O1  UNL     1      42.981  -1.935  29.218  1.00  0.00    -0.343 OA
BRANCH  18  19
HETATM   19  C12 UNL     1      43.876  -2.291  28.246  1.00  0.00     0.129 C 
HETATM   20  C13 UNL     1      43.242  -3.305  27.275  1.00  0.00     0.032 C 
HETATM   21  C14 UNL     1      44.298  -3.279  26.162  1.00  0.00     0.002 C 
HETATM   22  C15 UNL     1      44.407  -1.770  25.936  1.00  0.00     0.002 C 
HETATM   23  C16 UNL     1      44.159  -1.141  27.290  1.00  0.00     0.032 C 
ENDBRANCH  18  19
ENDBRANCH  16  18
BRANCH  17  24
HETATM   24  O2  UNL     1      43.244   0.016  31.075  1.00  0.00    -0.357 OA
ATOM     25  H2  UNL     1      43.883   0.195  30.396  1.00  0.00     0.217 HD
ENDBRANCH  17  24
ENDBRANCH   5  12
BRANCH   1  26
HETATM   26  C1  UNL     1      42.197   3.884  37.898  1.00  0.00     0.121 C 
HETATM   27  N1  UNL     1      41.640   3.556  39.168  1.00  0.00    -0.082 NA
HETATM   28  N2  UNL     1      42.176   5.108  37.531  1.00  0.00    -0.387 N 
ATOM     29  H22 UNL     1      41.774   5.837  38.121  1.00  0.00     0.157 HD
ATOM     30  H21 UNL     1      42.575   5.342  36.621  1.00  0.00     0.157 HD
ENDBRANCH   1  26
TORSDOF 5
ENDMDL
