MODEL 12
REMARK VINA RESULT: -7.108181877      1.948      2.369
REMARK  5 active torsions:
REMARK  status: ('A' for Active; 'I' for Inactive)
REMARK    1  A    between atoms: C1_2  and  C2_6 
REMARK    2  A    between atoms: C6_10  and  C7_11 
REMARK    3  A    between atoms: C11_15  and  O1_16 
REMARK    4  A    between atoms: O1_16  and  C12_17 
REMARK    5  A    between atoms: C17_22  and  O2_23 
ROOT
HETATM    1  C2  UNL     1      43.803  -2.927  25.548  1.00  0.00     0.027 A 
HETATM    2  C3  UNL     1      43.471  -3.568  26.732  1.00  0.00     0.030 A 
HETATM    3  C4  UNL     1      43.207  -2.834  27.894  1.00  0.00    -0.006 A 
HETATM    4  C5  UNL     1      42.864  -3.168  29.174  1.00  0.00     0.044 A 
HETATM    5  C6  UNL     1      42.722  -2.016  29.936  1.00  0.00     0.046 A 
HETATM    6  N3  UNL     1      42.980  -1.017  29.110  1.00  0.00    -0.355 N 
ATOM      7  H3  UNL     1      42.959  -0.033  29.378  1.00  0.00     0.166 HD
HETATM    8  C18 UNL     1      43.280  -1.463  27.854  1.00  0.00     0.044 A 
HETATM    9  C19 UNL     1      43.611  -0.830  26.676  1.00  0.00     0.055 A 
HETATM   10  C20 UNL     1      43.874  -1.532  25.519  1.00  0.00     0.049 A 
HETATM   11 CL1  UNL     1      44.295  -0.750  24.018  1.00  0.00    -0.083 Cl
ENDROOT
BRANCH   5  12
HETATM   12  C7  UNL     1      42.363  -1.993  31.347  1.00  0.00     0.027 A 
HETATM   13  C8  UNL     1      42.915  -2.929  32.222  1.00  0.00     0.017 A 
HETATM   14  C9  UNL     1      42.616  -2.960  33.560  1.00  0.00     0.004 A 
HETATM   15  C10 UNL     1      41.724  -2.024  34.095  1.00  0.00     0.040 A 
HETATM   16  C11 UNL     1      41.161  -1.089  33.268  1.00  0.00     0.103 A 
HETATM   17  C17 UNL     1      41.499  -1.100  31.911  1.00  0.00     0.111 A 
BRANCH  16  18
HETATM   18  O1  UNL     1      40.284  -0.161  33.771  1.00  0.00    -0.343 OA
BRANCH  18  19
HETATM   19  C12 UNL     1      40.161   0.363  35.029  1.00  0.00     0.129 C 
HETATM   20  C13 UNL     1      41.391   1.225  35.376  1.00  0.00     0.032 C 
HETATM   21  C14 UNL     1      40.862   1.915  36.640  1.00  0.00     0.002 C 
HETATM   22  C15 UNL     1      39.523   2.436  36.117  1.00  0.00     0.002 C 
HETATM   23  C16 UNL     1      39.065   1.417  35.097  1.00  0.00     0.032 C 
ENDBRANCH  18  19
ENDBRANCH  16  18
BRANCH  17  24
HETATM   24  O2  UNL     1      40.899  -0.134  31.135  1.00  0.00    -0.357 OA
ATOM     25  H2  UNL     1      41.273   0.737  31.085  1.00  0.00     0.217 HD
ENDBRANCH  17  24
ENDBRANCH   5  12
BRANCH   1  26
HETATM   26  C1  UNL     1      44.082  -3.659  24.322  1.00  0.00     0.121 C 
HETATM   27  N1  UNL     1      43.158  -4.629  23.835  1.00  0.00    -0.082 NA
HETATM   28  N2  UNL     1      45.150  -3.457  23.649  1.00  0.00    -0.387 N 
ATOM     29  H22 UNL     1      45.346  -3.970  22.789  1.00  0.00     0.157 HD
ATOM     30  H21 UNL     1      45.811  -2.762  23.997  1.00  0.00     0.157 HD
ENDBRANCH   1  26
TORSDOF 5
ENDMDL
