MODEL 4
REMARK VINA RESULT: -7.755660704      0.761      1.127
REMARK  5 active torsions:
REMARK  status: ('A' for Active; 'I' for Inactive)
REMARK    1  A    between atoms: C1_2  and  C2_6 
REMARK    2  A    between atoms: C6_10  and  C7_11 
REMARK    3  A    between atoms: C11_15  and  O1_16 
REMARK    4  A    between atoms: O1_16  and  C12_17 
REMARK    5  A    between atoms: C17_22  and  O2_23 
ROOT
HETATM    1  C2  UNL     1      43.853  -2.671  25.937  1.00  0.00     0.027 A 
HETATM    2  C3  UNL     1      43.690  -3.291  27.167  1.00  0.00     0.030 A 
HETATM    3  C4  UNL     1      43.531  -2.536  28.334  1.00  0.00    -0.006 A 
HETATM    4  C5  UNL     1      43.355  -2.847  29.653  1.00  0.00     0.044 A 
HETATM    5  C6  UNL     1      43.251  -1.681  30.399  1.00  0.00     0.046 A 
HETATM    6  N3  UNL     1      43.366  -0.696  29.525  1.00  0.00    -0.355 N 
ATOM      7  H3  UNL     1      43.331   0.294  29.770  1.00  0.00     0.166 HD
HETATM    8  C18 UNL     1      43.537  -1.165  28.253  1.00  0.00     0.044 A 
HETATM    9  C19 UNL     1      43.701  -0.553  27.030  1.00  0.00     0.055 A 
HETATM   10  C20 UNL     1      43.858  -1.275  25.867  1.00  0.00     0.049 A 
HETATM   11 CL1  UNL     1      44.066  -0.520  24.309  1.00  0.00    -0.083 Cl
ENDROOT
BRANCH   5  12
HETATM   12  C7  UNL     1      43.057  -1.632  31.841  1.00  0.00     0.027 A 
HETATM   13  C8  UNL     1      42.018  -2.354  32.429  1.00  0.00     0.017 A 
HETATM   14  C9  UNL     1      41.781  -2.349  33.780  1.00  0.00     0.004 A 
HETATM   15  C10 UNL     1      42.604  -1.597  34.626  1.00  0.00     0.040 A 
HETATM   16  C11 UNL     1      43.634  -0.874  34.087  1.00  0.00     0.103 A 
HETATM   17  C17 UNL     1      43.832  -0.913  32.702  1.00  0.00     0.111 A 
BRANCH  16  18
HETATM   18  O1  UNL     1      44.454  -0.129  34.897  1.00  0.00    -0.343 OA
BRANCH  18  19
HETATM   19  C12 UNL     1      44.602   1.226  35.015  1.00  0.00     0.129 C 
HETATM   20  C13 UNL     1      43.259   1.885  35.385  1.00  0.00     0.032 C 
HETATM   21  C14 UNL     1      43.762   3.286  35.755  1.00  0.00     0.002 C 
HETATM   22  C15 UNL     1      44.877   2.917  36.733  1.00  0.00     0.002 C 
HETATM   23  C16 UNL     1      45.431   1.600  36.236  1.00  0.00     0.032 C 
ENDBRANCH  18  19
ENDBRANCH  16  18
BRANCH  17  24
HETATM   24  O2  UNL     1      44.885  -0.165  32.225  1.00  0.00    -0.357 OA
ATOM     25  H2  UNL     1      45.673  -0.064  32.746  1.00  0.00     0.217 HD
ENDBRANCH  17  24
ENDBRANCH   5  12
BRANCH   1  26
HETATM   26  C1  UNL     1      44.021  -3.425  24.704  1.00  0.00     0.121 C 
HETATM   27  N1  UNL     1      42.985  -4.287  24.240  1.00  0.00    -0.082 NA
HETATM   28  N2  UNL     1      45.088  -3.340  24.005  1.00  0.00    -0.387 N 
ATOM     29  H22 UNL     1      45.205  -3.868  23.140  1.00  0.00     0.157 HD
ATOM     30  H21 UNL     1      45.829  -2.723  24.337  1.00  0.00     0.157 HD
ENDBRANCH   1  26
TORSDOF 5
ENDMDL
