MODEL 1
REMARK VINA RESULT: -8.888837911      0.000      0.000
REMARK  5 active torsions:
REMARK  status: ('A' for Active; 'I' for Inactive)
REMARK    1  A    between atoms: C1_2  and  C2_6 
REMARK    2  A    between atoms: C6_10  and  C7_11 
REMARK    3  A    between atoms: C11_15  and  O1_16 
REMARK    4  A    between atoms: O1_16  and  C12_17 
REMARK    5  A    between atoms: C17_22  and  O2_23 
ROOT
HETATM    1  C2  UNL     1      43.902  -2.862  25.681  1.00  0.00     0.027 A 
HETATM    2  C3  UNL     1      43.733  -3.523  26.889  1.00  0.00     0.030 A 
HETATM    3  C4  UNL     1      43.567  -2.806  28.079  1.00  0.00    -0.006 A 
HETATM    4  C5  UNL     1      43.384  -3.161  29.387  1.00  0.00     0.044 A 
HETATM    5  C6  UNL     1      43.276  -2.020  30.170  1.00  0.00     0.046 A 
HETATM    6  N3  UNL     1      43.395  -1.006  29.330  1.00  0.00    -0.355 N 
ATOM      7  H3  UNL     1      43.358  -0.026  29.607  1.00  0.00     0.166 HD
HETATM    8  C18 UNL     1      43.573  -1.433  28.044  1.00  0.00     0.044 A 
HETATM    9  C19 UNL     1      43.743  -0.781  26.842  1.00  0.00     0.055 A 
HETATM   10  C20 UNL     1      43.907  -1.465  25.658  1.00  0.00     0.049 A 
HETATM   11 CL1  UNL     1      44.122  -0.658  24.126  1.00  0.00    -0.083 Cl
ENDROOT
BRANCH   5  12
HETATM   12  C7  UNL     1      43.074  -2.019  31.612  1.00  0.00     0.027 A 
HETATM   13  C8  UNL     1      42.735  -3.202  32.269  1.00  0.00     0.017 A 
HETATM   14  C9  UNL     1      42.530  -3.267  33.623  1.00  0.00     0.004 A 
HETATM   15  C10 UNL     1      42.663  -2.112  34.402  1.00  0.00     0.040 A 
HETATM   16  C11 UNL     1      42.995  -0.931  33.794  1.00  0.00     0.103 A 
HETATM   17  C17 UNL     1      43.193  -0.918  32.409  1.00  0.00     0.111 A 
BRANCH  16  18
HETATM   18  O1  UNL     1      43.131   0.215  34.538  1.00  0.00    -0.343 OA
BRANCH  18  19
HETATM   19  C12 UNL     1      43.945   0.499  35.600  1.00  0.00     0.129 C 
HETATM   20  C13 UNL     1      45.422   0.274  35.223  1.00  0.00     0.032 C 
HETATM   21  C14 UNL     1      46.093   0.947  36.428  1.00  0.00     0.002 C 
HETATM   22  C15 UNL     1      45.362   2.290  36.421  1.00  0.00     0.002 C 
HETATM   23  C16 UNL     1      43.970   1.990  35.910  1.00  0.00     0.032 C 
ENDBRANCH  18  19
ENDBRANCH  16  18
BRANCH  17  24
HETATM   24  O2  UNL     1      43.524   0.300  31.861  1.00  0.00    -0.357 OA
ATOM     25  H2  UNL     1      44.412   0.464  31.565  1.00  0.00     0.217 HD
ENDBRANCH  17  24
ENDBRANCH   5  12
BRANCH   1  26
HETATM   26  C1  UNL     1      44.077  -3.575  24.425  1.00  0.00     0.121 C 
HETATM   27  N1  UNL     1      43.092  -4.506  23.982  1.00  0.00    -0.082 NA
HETATM   28  N2  UNL     1      45.104  -3.392  23.686  1.00  0.00    -0.387 N 
ATOM     29  H22 UNL     1      45.226  -3.892  22.805  1.00  0.00     0.157 HD
ATOM     30  H21 UNL     1      45.809  -2.726  24.003  1.00  0.00     0.157 HD
ENDBRANCH   1  26
TORSDOF 5
ENDMDL
