MODEL 2
REMARK VINA RESULT: -8.015242099      1.037      1.242
REMARK  5 active torsions:
REMARK  status: ('A' for Active; 'I' for Inactive)
REMARK    1  A    between atoms: C1_2  and  C2_6 
REMARK    2  A    between atoms: C6_10  and  C7_11 
REMARK    3  A    between atoms: C11_15  and  O1_16 
REMARK    4  A    between atoms: O1_16  and  C12_17 
REMARK    5  A    between atoms: C17_22  and  O2_23 
ROOT
HETATM    1  C2  UNL     1      43.842  -3.008  26.483  1.00  0.00     0.027 A 
HETATM    2  C3  UNL     1      43.634  -3.551  27.742  1.00  0.00     0.030 A 
HETATM    3  C4  UNL     1      43.511  -2.727  28.866  1.00  0.00    -0.006 A 
HETATM    4  C5  UNL     1      43.308  -2.957  30.198  1.00  0.00     0.044 A 
HETATM    5  C6  UNL     1      43.269  -1.748  30.880  1.00  0.00     0.046 A 
HETATM    6  N3  UNL     1      43.448  -0.819  29.957  1.00  0.00    -0.355 N 
ATOM      7  H3  UNL     1      43.470   0.182  30.149  1.00  0.00     0.166 HD
HETATM    8  C18 UNL     1      43.600  -1.364  28.714  1.00  0.00     0.044 A 
HETATM    9  C19 UNL     1      43.807  -0.829  27.461  1.00  0.00     0.055 A 
HETATM   10  C20 UNL     1      43.930  -1.620  26.340  1.00  0.00     0.049 A 
HETATM   11 CL1  UNL     1      44.193  -0.962  24.747  1.00  0.00    -0.083 Cl
ENDROOT
BRANCH   5  12
HETATM   12  C7  UNL     1      43.068  -1.611  32.316  1.00  0.00     0.027 A 
HETATM   13  C8  UNL     1      42.065  -2.344  32.952  1.00  0.00     0.017 A 
HETATM   14  C9  UNL     1      41.825  -2.260  34.300  1.00  0.00     0.004 A 
HETATM   15  C10 UNL     1      42.605  -1.411  35.092  1.00  0.00     0.040 A 
HETATM   16  C11 UNL     1      43.600  -0.675  34.505  1.00  0.00     0.103 A 
HETATM   17  C17 UNL     1      43.804  -0.798  33.126  1.00  0.00     0.111 A 
BRANCH  16  18
HETATM   18  O1  UNL     1      44.378   0.164  35.263  1.00  0.00    -0.343 OA
BRANCH  18  19
HETATM   19  C12 UNL     1      44.033   1.181  36.110  1.00  0.00     0.129 C 
HETATM   20  C13 UNL     1      45.290   1.797  36.754  1.00  0.00     0.032 C 
HETATM   21  C14 UNL     1      44.665   3.056  37.368  1.00  0.00     0.002 C 
HETATM   22  C15 UNL     1      43.923   3.605  36.148  1.00  0.00     0.002 C 
HETATM   23  C16 UNL     1      43.497   2.389  35.354  1.00  0.00     0.032 C 
ENDBRANCH  18  19
ENDBRANCH  16  18
BRANCH  17  24
HETATM   24  O2  UNL     1      44.818  -0.031  32.599  1.00  0.00    -0.357 OA
ATOM     25  H2  UNL     1      45.718  -0.333  32.647  1.00  0.00     0.217 HD
ENDBRANCH  17  24
ENDBRANCH   5  12
BRANCH   1  26
HETATM   26  C1  UNL     1      43.973  -3.835  25.293  1.00  0.00     0.121 C 
HETATM   27  N1  UNL     1      43.082  -3.660  24.193  1.00  0.00    -0.082 NA
HETATM   28  N2  UNL     1      44.878  -4.731  25.195  1.00  0.00    -0.387 N 
ATOM     29  H22 UNL     1      44.970  -5.311  24.360  1.00  0.00     0.157 HD
ATOM     30  H21 UNL     1      45.515  -4.856  25.982  1.00  0.00     0.157 HD
ENDBRANCH   1  26
TORSDOF 5
ENDMDL
