MODEL 5
REMARK VINA RESULT: -7.644269946      4.499      9.505
REMARK  5 active torsions:
REMARK  status: ('A' for Active; 'I' for Inactive)
REMARK    1  A    between atoms: C1_2  and  C2_6 
REMARK    2  A    between atoms: C6_10  and  C7_11 
REMARK    3  A    between atoms: C11_15  and  O1_16 
REMARK    4  A    between atoms: O1_16  and  C12_17 
REMARK    5  A    between atoms: C17_22  and  O2_23 
ROOT
HETATM    1  C2  UNL     1      44.205   2.193  37.782  1.00  0.00     0.027 A 
HETATM    2  C3  UNL     1      44.144   0.864  37.390  1.00  0.00     0.030 A 
HETATM    3  C4  UNL     1      43.804   0.519  36.077  1.00  0.00    -0.006 A 
HETATM    4  C5  UNL     1      43.664  -0.665  35.409  1.00  0.00     0.044 A 
HETATM    5  C6  UNL     1      43.303  -0.418  34.091  1.00  0.00     0.046 A 
HETATM    6  N3  UNL     1      43.231   0.898  33.989  1.00  0.00    -0.355 N 
ATOM      7  H3  UNL     1      42.983   1.393  33.132  1.00  0.00     0.166 HD
HETATM    8  C18 UNL     1      43.528   1.515  35.171  1.00  0.00     0.044 A 
HETATM    9  C19 UNL     1      43.589   2.833  35.565  1.00  0.00     0.055 A 
HETATM   10  C20 UNL     1      43.922   3.196  36.852  1.00  0.00     0.049 A 
HETATM   11 CL1  UNL     1      44.005   4.860  37.370  1.00  0.00    -0.083 Cl
ENDROOT
BRANCH   5  12
HETATM   12  C7  UNL     1      43.068  -1.447  33.088  1.00  0.00     0.027 A 
HETATM   13  C8  UNL     1      42.787  -2.755  33.485  1.00  0.00     0.017 A 
HETATM   14  C9  UNL     1      42.558  -3.769  32.590  1.00  0.00     0.004 A 
HETATM   15  C10 UNL     1      42.601  -3.506  31.216  1.00  0.00     0.040 A 
HETATM   16  C11 UNL     1      42.874  -2.235  30.787  1.00  0.00     0.103 A 
HETATM   17  C17 UNL     1      43.100  -1.237  31.741  1.00  0.00     0.111 A 
BRANCH  16  18
HETATM   18  O1  UNL     1      42.921  -1.954  29.445  1.00  0.00    -0.343 OA
BRANCH  18  19
HETATM   19  C12 UNL     1      43.808  -2.348  28.480  1.00  0.00     0.129 C 
HETATM   20  C13 UNL     1      43.109  -3.246  27.441  1.00  0.00     0.032 C 
HETATM   21  C14 UNL     1      44.198  -3.269  26.360  1.00  0.00     0.002 C 
HETATM   22  C15 UNL     1      44.458  -1.769  26.215  1.00  0.00     0.002 C 
HETATM   23  C16 UNL     1      44.230  -1.185  27.592  1.00  0.00     0.032 C 
ENDBRANCH  18  19
ENDBRANCH  16  18
BRANCH  17  24
HETATM   24  O2  UNL     1      43.369   0.019  31.244  1.00  0.00    -0.357 OA
ATOM     25  H2  UNL     1      43.193   0.218  30.332  1.00  0.00     0.217 HD
ENDBRANCH  17  24
ENDBRANCH   5  12
BRANCH   1  26
HETATM   26  C1  UNL     1      44.556   2.587  39.138  1.00  0.00     0.121 C 
HETATM   27  N1  UNL     1      45.919   2.796  39.497  1.00  0.00    -0.082 NA
HETATM   28  N2  UNL     1      43.665   2.757  40.039  1.00  0.00    -0.387 N 
ATOM     29  H22 UNL     1      43.911   3.033  40.990  1.00  0.00     0.157 HD
ATOM     30  H21 UNL     1      42.689   2.606  39.782  1.00  0.00     0.157 HD
ENDBRANCH   1  26
TORSDOF 5
ENDMDL
