MODEL 17
REMARK VINA RESULT: -7.771975428      2.114      4.056
REMARK  5 active torsions:
REMARK  status: ('A' for Active; 'I' for Inactive)
REMARK    1  A    between atoms: C7_7  and  O1_8 
REMARK    2  A    between atoms: O1_8  and  C8_9 
REMARK    3  A    between atoms: C12_13  and  C13_14 
REMARK    4  A    between atoms: C16_19  and  C17_20 
REMARK    5  A    between atoms: C21_31  and  O2_32 
ROOT
HETATM    1  C13 UNL     1      43.288  -2.100  30.395  1.00  0.00     0.119 A 
HETATM    2  N1  UNL     1      43.368  -3.196  29.637  1.00  0.00    -0.340 N 
ATOM      3  H1  UNL     1      43.296  -4.151  29.988  1.00  0.00     0.167 HD
HETATM    4  C14 UNL     1      43.556  -2.869  28.350  1.00  0.00     0.061 A 
HETATM    5  C15 UNL     1      43.704  -3.590  27.177  1.00  0.00     0.050 A 
HETATM    6  C16 UNL     1      43.889  -3.003  25.954  1.00  0.00     0.045 A 
HETATM    7  C18 UNL     1      43.927  -1.598  25.931  1.00  0.00     0.132 A 
HETATM    8  F1  UNL     1      44.113  -1.025  24.699  1.00  0.00    -0.205 F 
HETATM    9  C19 UNL     1      43.786  -0.845  27.062  1.00  0.00     0.075 A 
HETATM   10  C20 UNL     1      43.602  -1.487  28.268  1.00  0.00     0.063 A 
HETATM   11  N4  UNL     1      43.434  -1.050  29.535  1.00  0.00    -0.340 N 
ATOM     12  H4  UNL     1      43.419  -0.069  29.812  1.00  0.00     0.167 HD
ENDROOT
BRANCH   1  13
HETATM   13  C12 UNL     1      43.089  -1.943  31.841  1.00  0.00     0.044 A 
HETATM   14  C11 UNL     1      43.515  -0.812  32.500  1.00  0.00     0.018 A 
HETATM   15  C10 UNL     1      43.342  -0.635  33.855  1.00  0.00     0.004 A 
HETATM   16  C9  UNL     1      42.730  -1.609  34.581  1.00  0.00     0.040 A 
HETATM   17  C8  UNL     1      42.275  -2.784  33.958  1.00  0.00     0.103 A 
HETATM   18  C21 UNL     1      42.470  -2.927  32.573  1.00  0.00     0.113 A 
BRANCH  17  19
HETATM   19  O1  UNL     1      41.679  -3.712  34.719  1.00  0.00    -0.343 OA
BRANCH  19  20
HETATM   20  C7  UNL     1      42.022  -4.519  35.757  1.00  0.00     0.132 C 
HETATM   21  C2  UNL     1      42.370  -5.896  35.209  1.00  0.00     0.011 C 
HETATM   22  C1  UNL     1      42.876  -6.756  36.335  1.00  0.00     0.012 C 
HETATM   23  C3  UNL     1      41.273  -6.506  34.416  1.00  0.00     0.007 C 
HETATM   24  C4  UNL     1      39.907  -6.336  34.974  1.00  0.00     0.001 C 
HETATM   25  C5  UNL     1      39.644  -4.990  35.582  1.00  0.00     0.002 C 
HETATM   26  C6  UNL     1      40.759  -4.748  36.608  1.00  0.00     0.033 C 
ENDBRANCH  19  20
ENDBRANCH  17  19
BRANCH  18  27
HETATM   27  O2  UNL     1      42.017  -4.078  32.012  1.00  0.00    -0.357 OA
ATOM     28  H2  UNL     1      41.578  -3.998  31.173  1.00  0.00     0.217 HD
ENDBRANCH  18  27
ENDBRANCH   1  13
BRANCH   6  29
HETATM   29  C17 UNL     1      44.045  -3.735  24.719  1.00  0.00     0.123 C 
HETATM   30  N2  UNL     1      43.118  -4.763  24.367  1.00  0.00    -0.082 NA
HETATM   31  N3  UNL     1      44.992  -3.503  23.908  1.00  0.00    -0.387 N 
ATOM     32  H32 UNL     1      45.655  -2.770  24.160  1.00  0.00     0.157 HD
ATOM     33  H31 UNL     1      45.102  -4.020  23.036  1.00  0.00     0.157 HD
ENDBRANCH   6  29
TORSDOF 5
ENDMDL
