MODEL 3
REMARK VINA RESULT: -8.709056602      0.820      1.690
REMARK  5 active torsions:
REMARK  status: ('A' for Active; 'I' for Inactive)
REMARK    1  A    between atoms: C7_7  and  O1_8 
REMARK    2  A    between atoms: O1_8  and  C8_9 
REMARK    3  A    between atoms: C12_13  and  C13_14 
REMARK    4  A    between atoms: C16_19  and  C17_20 
REMARK    5  A    between atoms: C21_31  and  O2_32 
ROOT
HETATM    1  C13 UNL     1      43.162  -2.218  30.876  1.00  0.00     0.119 A 
HETATM    2  N1  UNL     1      43.304  -3.294  30.100  1.00  0.00    -0.340 N 
ATOM      3  H1  UNL     1      43.226  -4.257  30.424  1.00  0.00     0.167 HD
HETATM    4  C14 UNL     1      43.563  -2.934  28.834  1.00  0.00     0.061 A 
HETATM    5  C15 UNL     1      43.791  -3.626  27.656  1.00  0.00     0.050 A 
HETATM    6  C16 UNL     1      44.040  -3.007  26.460  1.00  0.00     0.045 A 
HETATM    7  C18 UNL     1      44.057  -1.602  26.471  1.00  0.00     0.132 A 
HETATM    8  F1  UNL     1      44.308  -0.998  25.266  1.00  0.00    -0.205 F 
HETATM    9  C19 UNL     1      43.838  -0.877  27.608  1.00  0.00     0.075 A 
HETATM   10  C20 UNL     1      43.593  -1.550  28.786  1.00  0.00     0.063 A 
HETATM   11  N4  UNL     1      43.343  -1.146  30.050  1.00  0.00    -0.340 N 
ATOM     12  H4  UNL     1      43.297  -0.172  30.348  1.00  0.00     0.167 HD
ENDROOT
BRANCH   1  13
HETATM   13  C12 UNL     1      42.876  -2.097  32.311  1.00  0.00     0.044 A 
HETATM   14  C11 UNL     1      42.420  -3.174  33.038  1.00  0.00     0.018 A 
HETATM   15  C10 UNL     1      42.142  -3.093  34.385  1.00  0.00     0.004 A 
HETATM   16  C9  UNL     1      42.321  -1.910  35.033  1.00  0.00     0.040 A 
HETATM   17  C8  UNL     1      42.786  -0.779  34.337  1.00  0.00     0.103 A 
HETATM   18  C21 UNL     1      43.058  -0.902  32.963  1.00  0.00     0.113 A 
BRANCH  17  19
HETATM   19  O1  UNL     1      42.945   0.361  35.022  1.00  0.00    -0.343 OA
BRANCH  19  20
HETATM   20  C7  UNL     1      42.628   0.835  36.254  1.00  0.00     0.132 C 
HETATM   21  C2  UNL     1      42.372   2.333  36.150  1.00  0.00     0.011 C 
HETATM   22  C1  UNL     1      41.893   2.840  37.483  1.00  0.00     0.012 C 
HETATM   23  C3  UNL     1      43.519   3.085  35.583  1.00  0.00     0.007 C 
HETATM   24  C4  UNL     1      44.861   2.670  36.066  1.00  0.00     0.001 C 
HETATM   25  C5  UNL     1      45.032   1.189  36.238  1.00  0.00     0.002 C 
HETATM   26  C6  UNL     1      43.883   0.717  37.139  1.00  0.00     0.033 C 
ENDBRANCH  19  20
ENDBRANCH  17  19
BRANCH  18  27
HETATM   27  O2  UNL     1      43.504   0.214  32.330  1.00  0.00    -0.357 OA
ATOM     28  H2  UNL     1      44.065   0.792  32.833  1.00  0.00     0.217 HD
ENDBRANCH  18  27
ENDBRANCH   1  13
BRANCH   6  29
HETATM   29  C17 UNL     1      44.280  -3.708  25.220  1.00  0.00     0.123 C 
HETATM   30  N2  UNL     1      44.255  -3.005  23.976  1.00  0.00    -0.082 NA
HETATM   31  N3  UNL     1      44.519  -4.953  25.180  1.00  0.00    -0.387 N 
ATOM     32  H32 UNL     1      44.536  -5.454  26.068  1.00  0.00     0.157 HD
ATOM     33  H31 UNL     1      44.688  -5.448  24.304  1.00  0.00     0.157 HD
ENDBRANCH   6  29
TORSDOF 5
ENDMDL
