MODEL 6
REMARK VINA RESULT: -8.682542513      1.284      1.956
REMARK  5 active torsions:
REMARK  status: ('A' for Active; 'I' for Inactive)
REMARK    1  A    between atoms: C7_7  and  O1_8 
REMARK    2  A    between atoms: O1_8  and  C8_9 
REMARK    3  A    between atoms: C12_13  and  C13_14 
REMARK    4  A    between atoms: C16_19  and  C17_20 
REMARK    5  A    between atoms: C21_31  and  O2_32 
ROOT
HETATM    1  C13 UNL     1      42.377  -1.376  30.327  1.00  0.00     0.119 A 
HETATM    2  N1  UNL     1      42.339  -2.574  29.739  1.00  0.00    -0.340 N 
ATOM      3  H1  UNL     1      41.943  -3.414  30.158  1.00  0.00     0.167 HD
HETATM    4  C14 UNL     1      42.893  -2.519  28.519  1.00  0.00     0.061 A 
HETATM    5  C15 UNL     1      43.110  -3.441  27.509  1.00  0.00     0.050 A 
HETATM    6  C16 UNL     1      43.715  -3.125  26.322  1.00  0.00     0.045 A 
HETATM    7  C18 UNL     1      44.121  -1.790  26.160  1.00  0.00     0.132 A 
HETATM    8  F1  UNL     1      44.725  -1.489  24.966  1.00  0.00    -0.205 F 
HETATM    9  C19 UNL     1      43.928  -0.844  27.127  1.00  0.00     0.075 A 
HETATM   10  C20 UNL     1      43.314  -1.216  28.304  1.00  0.00     0.063 A 
HETATM   11  N4  UNL     1      42.982  -0.546  29.429  1.00  0.00    -0.340 N 
ATOM     12  H4  UNL     1      43.160   0.445  29.586  1.00  0.00     0.167 HD
ENDROOT
BRANCH   1  13
HETATM   13  C12 UNL     1      41.902  -0.938  31.646  1.00  0.00     0.044 A 
HETATM   14  C11 UNL     1      40.560  -0.934  31.955  1.00  0.00     0.018 A 
HETATM   15  C10 UNL     1      40.084  -0.529  33.182  1.00  0.00     0.004 A 
HETATM   16  C9  UNL     1      40.963  -0.114  34.134  1.00  0.00     0.040 A 
HETATM   17  C8  UNL     1      42.344  -0.099  33.871  1.00  0.00     0.103 A 
HETATM   18  C21 UNL     1      42.791  -0.520  32.606  1.00  0.00     0.113 A 
BRANCH  17  19
HETATM   19  O1  UNL     1      43.167   0.319  34.842  1.00  0.00    -0.343 OA
BRANCH  19  20
HETATM   20  C7  UNL     1      43.236   0.229  36.196  1.00  0.00     0.132 C 
HETATM   21  C2  UNL     1      42.820   1.566  36.796  1.00  0.00     0.011 C 
HETATM   22  C1  UNL     1      42.767   1.434  38.293  1.00  0.00     0.012 C 
HETATM   23  C3  UNL     1      43.636   2.706  36.307  1.00  0.00     0.007 C 
HETATM   24  C4  UNL     1      45.095   2.449  36.197  1.00  0.00     0.001 C 
HETATM   25  C5  UNL     1      45.453   1.085  35.686  1.00  0.00     0.002 C 
HETATM   26  C6  UNL     1      44.720   0.077  36.581  1.00  0.00     0.033 C 
ENDBRANCH  19  20
ENDBRANCH  17  19
BRANCH  18  27
HETATM   27  O2  UNL     1      44.132  -0.489  32.394  1.00  0.00    -0.357 OA
ATOM     28  H2  UNL     1      44.475   0.280  31.953  1.00  0.00     0.217 HD
ENDBRANCH  18  27
ENDBRANCH   1  13
BRANCH   6  29
HETATM   29  C17 UNL     1      43.952  -4.071  25.256  1.00  0.00     0.123 C 
HETATM   30  N2  UNL     1      43.285  -3.926  24.000  1.00  0.00    -0.082 NA
HETATM   31  N3  UNL     1      44.745  -5.052  25.383  1.00  0.00    -0.387 N 
ATOM     32  H32 UNL     1      45.220  -5.155  26.280  1.00  0.00     0.157 HD
ATOM     33  H31 UNL     1      44.912  -5.720  24.631  1.00  0.00     0.157 HD
ENDBRANCH   6  29
TORSDOF 5
ENDMDL
