MODEL 2
REMARK VINA RESULT: -8.775158261      1.407      2.024
REMARK  5 active torsions:
REMARK  status: ('A' for Active; 'I' for Inactive)
REMARK    1  A    between atoms: C7_7  and  O1_8 
REMARK    2  A    between atoms: O1_8  and  C8_9 
REMARK    3  A    between atoms: C12_13  and  C13_14 
REMARK    4  A    between atoms: C16_19  and  C17_20 
REMARK    5  A    between atoms: C21_31  and  O2_32 
ROOT
HETATM    1  C13 UNL     1      42.207  -1.312  30.422  1.00  0.00     0.119 A 
HETATM    2  N1  UNL     1      42.028  -2.428  29.713  1.00  0.00    -0.340 N 
ATOM      3  H1  UNL     1      41.405  -3.190  29.979  1.00  0.00     0.167 HD
HETATM    4  C14 UNL     1      42.780  -2.409  28.603  1.00  0.00     0.061 A 
HETATM    5  C15 UNL     1      42.974  -3.284  27.548  1.00  0.00     0.050 A 
HETATM    6  C16 UNL     1      43.823  -3.025  26.504  1.00  0.00     0.045 A 
HETATM    7  C18 UNL     1      44.513  -1.801  26.546  1.00  0.00     0.132 A 
HETATM    8  F1  UNL     1      45.359  -1.556  25.495  1.00  0.00    -0.205 F 
HETATM    9  C19 UNL     1      44.354  -0.907  27.566  1.00  0.00     0.075 A 
HETATM   10  C20 UNL     1      43.487  -1.218  28.591  1.00  0.00     0.063 A 
HETATM   11  N4  UNL     1      43.112  -0.572  29.717  1.00  0.00    -0.340 N 
ATOM     12  H4  UNL     1      43.458   0.344  30.002  1.00  0.00     0.167 HD
ENDROOT
BRANCH   1  13
HETATM   13  C12 UNL     1      41.615  -0.874  31.693  1.00  0.00     0.044 A 
HETATM   14  C11 UNL     1      40.250  -0.812  31.858  1.00  0.00     0.018 A 
HETATM   15  C10 UNL     1      39.664  -0.406  33.037  1.00  0.00     0.004 A 
HETATM   16  C9  UNL     1      40.454  -0.050  34.085  1.00  0.00     0.040 A 
HETATM   17  C8  UNL     1      41.855  -0.095  33.971  1.00  0.00     0.103 A 
HETATM   18  C21 UNL     1      42.415  -0.515  32.751  1.00  0.00     0.113 A 
BRANCH  17  19
HETATM   19  O1  UNL     1      42.588   0.267  35.032  1.00  0.00    -0.343 OA
BRANCH  19  20
HETATM   20  C7  UNL     1      42.687   1.345  35.852  1.00  0.00     0.132 C 
HETATM   21  C2  UNL     1      43.666   2.336  35.238  1.00  0.00     0.011 C 
HETATM   22  C1  UNL     1      43.682   3.588  36.072  1.00  0.00     0.012 C 
HETATM   23  C3  UNL     1      45.006   1.753  34.980  1.00  0.00     0.007 C 
HETATM   24  C4  UNL     1      45.536   0.867  36.048  1.00  0.00     0.001 C 
HETATM   25  C5  UNL     1      44.513  -0.027  36.684  1.00  0.00     0.002 C 
HETATM   26  C6  UNL     1      43.370   0.882  37.153  1.00  0.00     0.033 C 
ENDBRANCH  19  20
ENDBRANCH  17  19
BRANCH  18  27
HETATM   27  O2  UNL     1      43.771  -0.544  32.683  1.00  0.00    -0.357 OA
ATOM     28  H2  UNL     1      44.154  -1.209  32.123  1.00  0.00     0.217 HD
ENDBRANCH  18  27
ENDBRANCH   1  13
BRANCH   6  29
HETATM   29  C17 UNL     1      44.040  -3.922  25.394  1.00  0.00     0.123 C 
HETATM   30  N2  UNL     1      43.493  -3.626  24.108  1.00  0.00    -0.082 NA
HETATM   31  N3  UNL     1      44.712  -4.992  25.508  1.00  0.00    -0.387 N 
ATOM     32  H32 UNL     1      45.102  -5.204  26.426  1.00  0.00     0.157 HD
ATOM     33  H31 UNL     1      44.865  -5.626  24.723  1.00  0.00     0.157 HD
ENDBRANCH   6  29
TORSDOF 5
ENDMDL
