MODEL 14
REMARK VINA RESULT: -7.865094155      4.506      6.635
REMARK  5 active torsions:
REMARK  status: ('A' for Active; 'I' for Inactive)
REMARK    1  A    between atoms: C7_7  and  O1_8 
REMARK    2  A    between atoms: O1_8  and  C8_9 
REMARK    3  A    between atoms: C12_13  and  C13_14 
REMARK    4  A    between atoms: C16_19  and  C17_20 
REMARK    5  A    between atoms: C21_31  and  O2_32 
ROOT
HETATM    1  C13 UNL     1      43.146  -4.572  30.261  1.00  0.00     0.119 A 
HETATM    2  N1  UNL     1      43.380  -5.018  29.025  1.00  0.00    -0.340 N 
ATOM      3  H1  UNL     1      43.430  -6.001  28.762  1.00  0.00     0.167 HD
HETATM    4  C14 UNL     1      43.538  -3.992  28.175  1.00  0.00     0.061 A 
HETATM    5  C15 UNL     1      43.794  -3.888  26.818  1.00  0.00     0.050 A 
HETATM    6  C16 UNL     1      43.915  -2.688  26.168  1.00  0.00     0.045 A 
HETATM    7  C18 UNL     1      43.766  -1.531  26.952  1.00  0.00     0.132 A 
HETATM    8  F1  UNL     1      43.890  -0.339  26.287  1.00  0.00    -0.205 F 
HETATM    9  C19 UNL     1      43.512  -1.585  28.293  1.00  0.00     0.075 A 
HETATM   10  C20 UNL     1      43.401  -2.819  28.898  1.00  0.00     0.063 A 
HETATM   11  N4  UNL     1      43.161  -3.211  30.168  1.00  0.00    -0.340 N 
ATOM     12  H4  UNL     1      43.013  -2.576  30.952  1.00  0.00     0.167 HD
ENDROOT
BRANCH   1  13
HETATM   13  C12 UNL     1      42.910  -5.298  31.516  1.00  0.00     0.044 A 
HETATM   14  C11 UNL     1      42.303  -4.685  32.589  1.00  0.00     0.018 A 
HETATM   15  C10 UNL     1      42.069  -5.339  33.779  1.00  0.00     0.004 A 
HETATM   16  C9  UNL     1      42.446  -6.639  33.911  1.00  0.00     0.040 A 
HETATM   17  C8  UNL     1      43.069  -7.313  32.845  1.00  0.00     0.103 A 
HETATM   18  C21 UNL     1      43.292  -6.611  31.647  1.00  0.00     0.113 A 
BRANCH  17  19
HETATM   19  O1  UNL     1      43.422  -8.592  33.027  1.00  0.00    -0.343 OA
BRANCH  19  20
HETATM   20  C7  UNL     1      43.931  -9.351  34.032  1.00  0.00     0.132 C 
HETATM   21  C2  UNL     1      45.262  -8.753  34.469  1.00  0.00     0.011 C 
HETATM   22  C1  UNL     1      45.768  -9.510  35.666  1.00  0.00     0.012 C 
HETATM   23  C3  UNL     1      46.241  -8.631  33.361  1.00  0.00     0.007 C 
HETATM   24  C4  UNL     1      46.304  -9.787  32.429  1.00  0.00     0.001 C 
HETATM   25  C5  UNL     1      44.973 -10.397  32.101  1.00  0.00     0.002 C 
HETATM   26  C6  UNL     1      44.300 -10.725  33.440  1.00  0.00     0.033 C 
ENDBRANCH  19  20
ENDBRANCH  17  19
BRANCH  18  27
HETATM   27  O2  UNL     1      43.897  -7.299  30.644  1.00  0.00    -0.357 OA
ATOM     28  H2  UNL     1      44.416  -6.789  30.033  1.00  0.00     0.217 HD
ENDBRANCH  18  27
ENDBRANCH   1  13
BRANCH   6  29
HETATM   29  C17 UNL     1      44.181  -2.555  24.754  1.00  0.00     0.123 C 
HETATM   30  N2  UNL     1      43.900  -1.328  24.079  1.00  0.00    -0.082 NA
HETATM   31  N3  UNL     1      44.665  -3.502  24.064  1.00  0.00    -0.387 N 
ATOM     32  H32 UNL     1      44.865  -4.378  24.547  1.00  0.00     0.157 HD
ATOM     33  H31 UNL     1      44.854  -3.409  23.066  1.00  0.00     0.157 HD
ENDBRANCH   6  29
TORSDOF 5
ENDMDL
