MODEL 1
REMARK VINA RESULT: -8.955438333      0.000      0.000
REMARK  5 active torsions:
REMARK  status: ('A' for Active; 'I' for Inactive)
REMARK    1  A    between atoms: C7_7  and  O1_8 
REMARK    2  A    between atoms: O1_8  and  C8_9 
REMARK    3  A    between atoms: C12_13  and  C13_14 
REMARK    4  A    between atoms: C16_19  and  C17_20 
REMARK    5  A    between atoms: C21_31  and  O2_32 
ROOT
HETATM    1  C13 UNL     1      43.137  -2.337  30.307  1.00  0.00     0.119 A 
HETATM    2  N1  UNL     1      43.183  -3.401  29.503  1.00  0.00    -0.340 N 
ATOM      3  H1  UNL     1      43.044  -4.364  29.807  1.00  0.00     0.167 HD
HETATM    4  C14 UNL     1      43.437  -3.029  28.240  1.00  0.00     0.061 A 
HETATM    5  C15 UNL     1      43.587  -3.705  27.041  1.00  0.00     0.050 A 
HETATM    6  C16 UNL     1      43.851  -3.076  25.853  1.00  0.00     0.045 A 
HETATM    7  C18 UNL     1      43.969  -1.676  25.897  1.00  0.00     0.132 A 
HETATM    8  F1  UNL     1      44.234  -1.061  24.700  1.00  0.00    -0.205 F 
HETATM    9  C19 UNL     1      43.829  -0.966  27.055  1.00  0.00     0.075 A 
HETATM   10  C20 UNL     1      43.564  -1.649  28.223  1.00  0.00     0.063 A 
HETATM   11  N4  UNL     1      43.374  -1.260  29.502  1.00  0.00    -0.340 N 
ATOM     12  H4  UNL     1      43.404  -0.293  29.824  1.00  0.00     0.167 HD
ENDROOT
BRANCH   1  13
HETATM   13  C12 UNL     1      42.893  -2.233  31.751  1.00  0.00     0.044 A 
HETATM   14  C11 UNL     1      42.616  -3.349  32.509  1.00  0.00     0.018 A 
HETATM   15  C10 UNL     1      42.384  -3.283  33.865  1.00  0.00     0.004 A 
HETATM   16  C9  UNL     1      42.427  -2.076  34.491  1.00  0.00     0.040 A 
HETATM   17  C8  UNL     1      42.706  -0.906  33.765  1.00  0.00     0.103 A 
HETATM   18  C21 UNL     1      42.938  -1.013  32.382  1.00  0.00     0.113 A 
BRANCH  17  19
HETATM   19  O1  UNL     1      42.736   0.258  34.430  1.00  0.00    -0.343 OA
BRANCH  19  20
HETATM   20  C7  UNL     1      43.674   1.168  34.800  1.00  0.00     0.132 C 
HETATM   21  C2  UNL     1      44.404   0.645  36.030  1.00  0.00     0.011 C 
HETATM   22  C1  UNL     1      45.528   1.585  36.367  1.00  0.00     0.012 C 
HETATM   23  C3  UNL     1      43.496   0.341  37.164  1.00  0.00     0.007 C 
HETATM   24  C4  UNL     1      42.413   1.330  37.402  1.00  0.00     0.001 C 
HETATM   25  C5  UNL     1      41.787   1.882  36.155  1.00  0.00     0.002 C 
HETATM   26  C6  UNL     1      42.935   2.426  35.294  1.00  0.00     0.033 C 
ENDBRANCH  19  20
ENDBRANCH  17  19
BRANCH  18  27
HETATM   27  O2  UNL     1      43.203   0.142  31.719  1.00  0.00    -0.357 OA
ATOM     28  H2  UNL     1      43.068   0.133  30.779  1.00  0.00     0.217 HD
ENDBRANCH  18  27
ENDBRANCH   1  13
BRANCH   6  29
HETATM   29  C17 UNL     1      44.012  -3.761  24.591  1.00  0.00     0.123 C 
HETATM   30  N2  UNL     1      43.082  -4.771  24.195  1.00  0.00    -0.082 NA
HETATM   31  N3  UNL     1      44.964  -3.502  23.796  1.00  0.00    -0.387 N 
ATOM     32  H32 UNL     1      45.628  -2.781  24.079  1.00  0.00     0.157 HD
ATOM     33  H31 UNL     1      45.077  -3.985  22.905  1.00  0.00     0.157 HD
ENDBRANCH   6  29
TORSDOF 5
ENDMDL
