MODEL 8
REMARK VINA RESULT: -8.413810514      3.836      4.605
REMARK  5 active torsions:
REMARK  status: ('A' for Active; 'I' for Inactive)
REMARK    1  A    between atoms: C7_7  and  O1_8 
REMARK    2  A    between atoms: O1_8  and  C8_9 
REMARK    3  A    between atoms: C12_13  and  C13_14 
REMARK    4  A    between atoms: C16_19  and  C17_20 
REMARK    5  A    between atoms: C21_31  and  O2_32 
ROOT
HETATM    1  C13 UNL     1      41.921  -1.271  30.407  1.00  0.00     0.119 A 
HETATM    2  N1  UNL     1      41.757  -2.304  29.578  1.00  0.00    -0.340 N 
ATOM      3  H1  UNL     1      41.045  -3.026  29.684  1.00  0.00     0.167 HD
HETATM    4  C14 UNL     1      42.659  -2.261  28.586  1.00  0.00     0.061 A 
HETATM    5  C15 UNL     1      42.931  -3.059  27.488  1.00  0.00     0.050 A 
HETATM    6  C16 UNL     1      43.937  -2.791  26.597  1.00  0.00     0.045 A 
HETATM    7  C18 UNL     1      44.707  -1.643  26.847  1.00  0.00     0.132 A 
HETATM    8  F1  UNL     1      45.710  -1.389  25.947  1.00  0.00    -0.205 F 
HETATM    9  C19 UNL     1      44.476  -0.825  27.916  1.00  0.00     0.075 A 
HETATM   10  C20 UNL     1      43.450  -1.141  28.782  1.00  0.00     0.063 A 
HETATM   11  N4  UNL     1      42.971  -0.560  29.903  1.00  0.00    -0.340 N 
ATOM     12  H4  UNL     1      43.343   0.294  30.317  1.00  0.00     0.167 HD
ENDROOT
BRANCH   1  13
HETATM   13  C12 UNL     1      41.190  -0.888  31.622  1.00  0.00     0.044 A 
HETATM   14  C11 UNL     1      41.845  -0.703  32.819  1.00  0.00     0.018 A 
HETATM   15  C10 UNL     1      41.188  -0.344  33.975  1.00  0.00     0.004 A 
HETATM   16  C9  UNL     1      39.840  -0.162  33.946  1.00  0.00     0.040 A 
HETATM   17  C8  UNL     1      39.122  -0.337  32.750  1.00  0.00     0.103 A 
HETATM   18  C21 UNL     1      39.829  -0.704  31.591  1.00  0.00     0.113 A 
BRANCH  17  19
HETATM   19  O1  UNL     1      37.796  -0.146  32.776  1.00  0.00    -0.343 OA
BRANCH  19  20
HETATM   20  C7  UNL     1      36.940   0.903  32.674  1.00  0.00     0.132 C 
HETATM   21  C2  UNL     1      36.704   1.478  34.064  1.00  0.00     0.011 C 
HETATM   22  C1  UNL     1      35.862   2.719  33.944  1.00  0.00     0.012 C 
HETATM   23  C3  UNL     1      36.189   0.478  35.032  1.00  0.00     0.007 C 
HETATM   24  C4  UNL     1      35.151  -0.446  34.509  1.00  0.00     0.001 C 
HETATM   25  C5  UNL     1      35.383  -0.913  33.102  1.00  0.00     0.002 C 
HETATM   26  C6  UNL     1      35.568   0.347  32.247  1.00  0.00     0.033 C 
ENDBRANCH  19  20
ENDBRANCH  17  19
BRANCH  18  27
HETATM   27  O2  UNL     1      39.097  -0.864  30.459  1.00  0.00    -0.357 OA
ATOM     28  H2  UNL     1      38.168  -0.674  30.522  1.00  0.00     0.217 HD
ENDBRANCH  18  27
ENDBRANCH   1  13
BRANCH   6  29
HETATM   29  C17 UNL     1      44.239  -3.610  25.446  1.00  0.00     0.123 C 
HETATM   30  N2  UNL     1      44.153  -3.063  24.129  1.00  0.00    -0.082 NA
HETATM   31  N3  UNL     1      44.588  -4.825  25.550  1.00  0.00    -0.387 N 
ATOM     32  H32 UNL     1      44.649  -5.215  26.490  1.00  0.00     0.157 HD
ATOM     33  H31 UNL     1      44.801  -5.402  24.737  1.00  0.00     0.157 HD
ENDBRANCH   6  29
TORSDOF 5
ENDMDL
