MODEL 11
REMARK VINA RESULT: -7.277556149      4.951      6.963
REMARK  7 active torsions:
REMARK  status: ('A' for Active; 'I' for Inactive)
REMARK    1  A    between atoms: C1_2  and  C2_6 
REMARK    2  A    between atoms: C6_12  and  C7_13 
REMARK    3  A    between atoms: C9_15  and  C10_16 
REMARK    4  A    between atoms: C10_16  and  C11_17 
REMARK    5  A    between atoms: C10_16  and  C13_21 
REMARK    6  A    between atoms: C11_17  and  C12_18 
REMARK    7  A    between atoms: C16_27  and  O5_28 
ROOT
HETATM    1  C7  UNL     1      43.126  -5.049  31.572  1.00  0.00     0.043 A 
HETATM    2  C8  UNL     1      43.677  -6.331  31.624  1.00  0.00     0.026 A 
HETATM    3  C9  UNL     1      43.495  -7.176  32.694  1.00  0.00    -0.041 A 
HETATM    4  C14 UNL     1      42.731  -6.709  33.748  1.00  0.00     0.030 A 
HETATM    5  C15 UNL     1      42.172  -5.451  33.733  1.00  0.00     0.045 A 
HETATM    6 BR1  UNL     1      41.116  -4.784  35.171  1.00  0.00    -0.048 Br
HETATM    7  C16 UNL     1      42.375  -4.616  32.631  1.00  0.00     0.097 A 
ENDROOT
BRANCH   1   8
HETATM    8  C6  UNL     1      43.365  -4.203  30.395  1.00  0.00     0.119 A 
HETATM    9  N3  UNL     1      43.542  -2.883  30.305  1.00  0.00    -0.340 N 
HETATM   10  C5  UNL     1      43.733  -2.508  29.016  1.00  0.00     0.060 A 
ATOM     11  H3  UNL     1      43.534  -2.243  31.099  1.00  0.00     0.167 HD
HETATM   12  C4  UNL     1      43.955  -1.304  28.384  1.00  0.00     0.033 A 
HETATM   13  C17 UNL     1      43.673  -3.655  28.254  1.00  0.00     0.061 A 
HETATM   14  C3  UNL     1      44.114  -1.248  27.021  1.00  0.00     0.017 A 
HETATM   15  C2  UNL     1      44.059  -2.399  26.215  1.00  0.00     0.007 A 
HETATM   16  C18 UNL     1      43.836  -3.574  26.884  1.00  0.00     0.046 A 
HETATM   17  N4  UNL     1      43.450  -4.663  29.108  1.00  0.00    -0.340 N 
ATOM     18  H4  UNL     1      43.357  -5.642  28.836  1.00  0.00     0.167 HD
BRANCH  15  19
HETATM   19  C1  UNL     1      44.236  -2.280  24.775  1.00  0.00     0.120 C 
HETATM   20  N1  UNL     1      44.115  -1.005  24.158  1.00  0.00    -0.082 NA
HETATM   21  N2  UNL     1      44.497  -3.288  24.045  1.00  0.00    -0.387 N 
ATOM     22  H22 UNL     1      44.621  -3.205  23.035  1.00  0.00     0.157 HD
ATOM     23  H21 UNL     1      44.584  -4.203  24.488  1.00  0.00     0.157 HD
ENDBRANCH  15  19
ENDBRANCH   1   8
BRANCH   7  24
HETATM   24  O5  UNL     1      41.798  -3.356  32.647  1.00  0.00    -0.358 OA
ATOM     25  H5  UNL     1      42.148  -2.641  32.128  1.00  0.00     0.217 HD
ENDBRANCH   7  24
BRANCH   3  26
HETATM   26  C10 UNL     1      44.064  -8.533  32.767  1.00  0.00     0.129 C 
BRANCH  26  27
HETATM   27  C11 UNL     1      45.347  -8.570  33.578  1.00  0.00     0.133 C 
BRANCH  27  28
HETATM   28  C12 UNL     1      46.562  -8.572  32.756  1.00  0.00     0.173 C 
HETATM   29  O1  UNL     1      47.088  -9.658  32.417  1.00  0.00    -0.648 OA
HETATM   30  O2  UNL     1      47.115  -7.369  32.361  1.00  0.00    -0.648 OA
ENDBRANCH  27  28
ENDBRANCH  26  27
BRANCH  26  31
HETATM   31  C13 UNL     1      43.090  -9.536  33.257  1.00  0.00     0.182 C 
HETATM   32  O3  UNL     1      42.059  -9.809  32.597  1.00  0.00    -0.647 OA
HETATM   33  O4  UNL     1      43.254 -10.219  34.452  1.00  0.00    -0.647 OA
ENDBRANCH  26  31
ENDBRANCH   3  26
TORSDOF 7
ENDMDL
