MODEL 1
REMARK VINA RESULT: -8.094689004      0.000      0.000
REMARK  7 active torsions:
REMARK  status: ('A' for Active; 'I' for Inactive)
REMARK    1  A    between atoms: C1_2  and  C2_6 
REMARK    2  A    between atoms: C6_12  and  C7_13 
REMARK    3  A    between atoms: C9_15  and  C10_16 
REMARK    4  A    between atoms: C10_16  and  C11_17 
REMARK    5  A    between atoms: C10_16  and  C13_21 
REMARK    6  A    between atoms: C11_17  and  C12_18 
REMARK    7  A    between atoms: C16_27  and  O5_28 
ROOT
HETATM    1  C7  UNL     1      42.578  -0.796  32.211  1.00  0.00     0.043 A 
HETATM    2  C8  UNL     1      43.566  -0.123  32.932  1.00  0.00     0.026 A 
HETATM    3  C9  UNL     1      43.322   0.485  34.140  1.00  0.00    -0.041 A 
HETATM    4  C14 UNL     1      42.034   0.411  34.638  1.00  0.00     0.030 A 
HETATM    5  C15 UNL     1      41.032  -0.243  33.956  1.00  0.00     0.045 A 
HETATM    6 BR1  UNL     1      39.250  -0.359  34.620  1.00  0.00    -0.048 Br
HETATM    7  C16 UNL     1      41.313  -0.852  32.730  1.00  0.00     0.097 A 
ENDROOT
BRANCH   1   8
HETATM    8  C6  UNL     1      42.915  -1.421  30.925  1.00  0.00     0.119 A 
HETATM    9  N3  UNL     1      43.074  -2.707  30.608  1.00  0.00    -0.340 N 
HETATM   10  C5  UNL     1      43.386  -2.847  29.295  1.00  0.00     0.060 A 
ATOM     11  H3  UNL     1      42.974  -3.482  31.264  1.00  0.00     0.167 HD
HETATM   12  C4  UNL     1      43.648  -3.922  28.474  1.00  0.00     0.033 A 
HETATM   13  C17 UNL     1      43.425  -1.578  28.758  1.00  0.00     0.061 A 
HETATM   14  C3  UNL     1      43.942  -3.733  27.147  1.00  0.00     0.017 A 
HETATM   15  C2  UNL     1      43.989  -2.453  26.566  1.00  0.00     0.007 A 
HETATM   16  C18 UNL     1      43.723  -1.412  27.419  1.00  0.00     0.046 A 
HETATM   17  N4  UNL     1      43.138  -0.736  29.760  1.00  0.00    -0.340 N 
ATOM     18  H4  UNL     1      43.091   0.279  29.667  1.00  0.00     0.167 HD
BRANCH  15  19
HETATM   19  C1  UNL     1      44.305  -2.312  25.153  1.00  0.00     0.120 C 
HETATM   20  N1  UNL     1      44.204  -1.034  24.537  1.00  0.00    -0.082 NA
HETATM   21  N2  UNL     1      44.670  -3.303  24.444  1.00  0.00    -0.387 N 
ATOM     22  H22 UNL     1      44.891  -3.204  23.453  1.00  0.00     0.157 HD
ATOM     23  H21 UNL     1      44.742  -4.219  24.886  1.00  0.00     0.157 HD
ENDBRANCH  15  19
ENDBRANCH   1   8
BRANCH   7  24
HETATM   24  O5  UNL     1      40.282  -1.502  32.069  1.00  0.00    -0.358 OA
ATOM     25  H5  UNL     1      39.428  -1.101  31.960  1.00  0.00     0.217 HD
ENDBRANCH   7  24
BRANCH   3  26
HETATM   26  C10 UNL     1      44.351   1.195  34.919  1.00  0.00     0.129 C 
BRANCH  26  27
HETATM   27  C11 UNL     1      43.793   1.770  36.210  1.00  0.00     0.133 C 
BRANCH  27  28
HETATM   28  C12 UNL     1      44.440   3.020  36.623  1.00  0.00     0.173 C 
HETATM   29  O1  UNL     1      44.095   4.107  36.103  1.00  0.00    -0.648 OA
HETATM   30  O2  UNL     1      45.428   2.984  37.589  1.00  0.00    -0.648 OA
ENDBRANCH  27  28
ENDBRANCH  26  27
BRANCH  26  31
HETATM   31  C13 UNL     1      45.550   0.364  35.176  1.00  0.00     0.182 C 
HETATM   32  O3  UNL     1      45.553  -0.499  36.086  1.00  0.00    -0.647 OA
HETATM   33  O4  UNL     1      46.720   0.487  34.442  1.00  0.00    -0.647 OA
ENDBRANCH  26  31
ENDBRANCH   3  26
TORSDOF 7
ENDMDL
