MODEL 16
REMARK VINA RESULT: -7.208759326      3.121      4.899
REMARK  7 active torsions:
REMARK  status: ('A' for Active; 'I' for Inactive)
REMARK    1  A    between atoms: C1_2  and  C2_6 
REMARK    2  A    between atoms: C6_12  and  C7_13 
REMARK    3  A    between atoms: C9_15  and  C10_16 
REMARK    4  A    between atoms: C10_16  and  C11_17 
REMARK    5  A    between atoms: C10_16  and  C13_21 
REMARK    6  A    between atoms: C11_17  and  C12_18 
REMARK    7  A    between atoms: C16_27  and  O5_28 
ROOT
HETATM    1  C7  UNL     1      42.775  -1.963  32.168  1.00  0.00     0.043 A 
HETATM    2  C8  UNL     1      42.281  -3.135  32.746  1.00  0.00     0.026 A 
HETATM    3  C9  UNL     1      41.875  -3.205  34.058  1.00  0.00    -0.041 A 
HETATM    4  C14 UNL     1      41.973  -2.050  34.813  1.00  0.00     0.030 A 
HETATM    5  C15 UNL     1      42.455  -0.877  34.279  1.00  0.00     0.045 A 
HETATM    6 BR1  UNL     1      42.599   0.727  35.298  1.00  0.00    -0.048 Br
HETATM    7  C16 UNL     1      42.859  -0.838  32.942  1.00  0.00     0.097 A 
ENDROOT
BRANCH   1   8
HETATM    8  C6  UNL     1      43.191  -1.967  30.760  1.00  0.00     0.119 A 
HETATM    9  N3  UNL     1      43.806  -1.026  30.041  1.00  0.00    -0.340 N 
HETATM   10  C5  UNL     1      44.004  -1.443  28.766  1.00  0.00     0.060 A 
ATOM     11  H3  UNL     1      44.090  -0.115  30.402  1.00  0.00     0.167 HD
HETATM   12  C4  UNL     1      44.576  -0.882  27.644  1.00  0.00     0.033 A 
HETATM   13  C17 UNL     1      43.484  -2.717  28.678  1.00  0.00     0.061 A 
HETATM   14  C3  UNL     1      44.626  -1.579  26.462  1.00  0.00     0.017 A 
HETATM   15  C2  UNL     1      44.106  -2.880  26.339  1.00  0.00     0.007 A 
HETATM   16  C18 UNL     1      43.547  -3.398  27.478  1.00  0.00     0.046 A 
HETATM   17  N4  UNL     1      43.000  -3.010  29.892  1.00  0.00    -0.340 N 
ATOM     18  H4  UNL     1      42.550  -3.892  30.138  1.00  0.00     0.167 HD
BRANCH  15  19
HETATM   19  C1  UNL     1      44.188  -3.571  25.061  1.00  0.00     0.120 C 
HETATM   20  N1  UNL     1      44.372  -2.819  23.869  1.00  0.00    -0.082 NA
HETATM   21  N2  UNL     1      44.100  -4.837  24.975  1.00  0.00    -0.387 N 
ATOM     22  H22 UNL     1      44.158  -5.322  24.080  1.00  0.00     0.157 HD
ATOM     23  H21 UNL     1      43.968  -5.377  25.831  1.00  0.00     0.157 HD
ENDBRANCH  15  19
ENDBRANCH   1   8
BRANCH   7  24
HETATM   24  O5  UNL     1      43.340   0.359  32.436  1.00  0.00    -0.358 OA
ATOM     25  H5  UNL     1      44.222   0.660  32.620  1.00  0.00     0.217 HD
ENDBRANCH   7  24
BRANCH   3  26
HETATM   26  C10 UNL     1      41.347  -4.429  34.684  1.00  0.00     0.129 C 
BRANCH  26  27
HETATM   27  C11 UNL     1      41.252  -4.300  36.195  1.00  0.00     0.133 C 
BRANCH  27  28
HETATM   28  C12 UNL     1      41.935  -5.376  36.920  1.00  0.00     0.173 C 
HETATM   29  O1  UNL     1      43.067  -5.764  36.547  1.00  0.00    -0.648 OA
HETATM   30  O2  UNL     1      41.319  -5.953  38.014  1.00  0.00    -0.648 OA
ENDBRANCH  27  28
ENDBRANCH  26  27
BRANCH  26  31
HETATM   31  C13 UNL     1      40.056  -4.860  34.100  1.00  0.00     0.182 C 
HETATM   32  O3  UNL     1      39.958  -5.949  33.486  1.00  0.00    -0.647 OA
HETATM   33  O4  UNL     1      38.900  -4.101  34.194  1.00  0.00    -0.647 OA
ENDBRANCH  26  31
ENDBRANCH   3  26
TORSDOF 7
ENDMDL
