MODEL 2
REMARK VINA RESULT: -8.060763779      0.702      1.003
REMARK  7 active torsions:
REMARK  status: ('A' for Active; 'I' for Inactive)
REMARK    1  A    between atoms: C1_2  and  C2_6 
REMARK    2  A    between atoms: C6_12  and  C7_13 
REMARK    3  A    between atoms: C9_15  and  C10_16 
REMARK    4  A    between atoms: C10_16  and  C11_17 
REMARK    5  A    between atoms: C10_16  and  C13_21 
REMARK    6  A    between atoms: C11_17  and  C12_18 
REMARK    7  A    between atoms: C16_27  and  O5_28 
ROOT
HETATM    1  C7  UNL     1      42.737  -1.052  31.898  1.00  0.00     0.043 A 
HETATM    2  C8  UNL     1      43.675  -0.191  32.473  1.00  0.00     0.026 A 
HETATM    3  C9  UNL     1      43.499   0.383  33.710  1.00  0.00    -0.041 A 
HETATM    4  C14 UNL     1      42.334   0.077  34.390  1.00  0.00     0.030 A 
HETATM    5  C15 UNL     1      41.386  -0.766  33.857  1.00  0.00     0.045 A 
HETATM    6 BR1  UNL     1      39.774  -1.204  34.773  1.00  0.00    -0.048 Br
HETATM    7  C16 UNL     1      41.595  -1.334  32.597  1.00  0.00     0.097 A 
ENDROOT
BRANCH   1   8
HETATM    8  C6  UNL     1      42.995  -1.625  30.571  1.00  0.00     0.119 A 
HETATM    9  N3  UNL     1      42.971  -2.896  30.163  1.00  0.00    -0.340 N 
HETATM   10  C5  UNL     1      43.274  -2.986  28.844  1.00  0.00     0.060 A 
ATOM     11  H3  UNL     1      42.755  -3.692  30.762  1.00  0.00     0.167 HD
HETATM   12  C4  UNL     1      43.388  -4.027  27.948  1.00  0.00     0.033 A 
HETATM   13  C17 UNL     1      43.500  -1.700  28.399  1.00  0.00     0.061 A 
HETATM   14  C3  UNL     1      43.720  -3.788  26.638  1.00  0.00     0.017 A 
HETATM   15  C2  UNL     1      43.956  -2.490  26.150  1.00  0.00     0.007 A 
HETATM   16  C18 UNL     1      43.833  -1.485  27.075  1.00  0.00     0.046 A 
HETATM   17  N4  UNL     1      43.325  -0.900  29.458  1.00  0.00    -0.340 N 
ATOM     18  H4  UNL     1      43.425   0.116  29.438  1.00  0.00     0.167 HD
BRANCH  15  19
HETATM   19  C1  UNL     1      44.303  -2.297  24.751  1.00  0.00     0.120 C 
HETATM   20  N1  UNL     1      44.125  -1.017  24.156  1.00  0.00    -0.082 NA
HETATM   21  N2  UNL     1      44.765  -3.242  24.036  1.00  0.00    -0.387 N 
ATOM     22  H22 UNL     1      45.008  -3.106  23.054  1.00  0.00     0.157 HD
ATOM     23  H21 UNL     1      44.893  -4.159  24.463  1.00  0.00     0.157 HD
ENDBRANCH  15  19
ENDBRANCH   1   8
BRANCH   7  24
HETATM   24  O5  UNL     1      40.620  -2.179  32.088  1.00  0.00    -0.358 OA
ATOM     25  H5  UNL     1      39.878  -2.457  32.612  1.00  0.00     0.217 HD
ENDBRANCH   7  24
BRANCH   3  26
HETATM   26  C10 UNL     1      44.477   1.289  34.335  1.00  0.00     0.129 C 
BRANCH  26  27
HETATM   27  C11 UNL     1      44.369   1.285  35.851  1.00  0.00     0.133 C 
BRANCH  27  28
HETATM   28  C12 UNL     1      44.712   2.572  36.466  1.00  0.00     0.173 C 
HETATM   29  O1  UNL     1      45.625   2.634  37.323  1.00  0.00    -0.648 OA
HETATM   30  O2  UNL     1      44.019   3.707  36.092  1.00  0.00    -0.648 OA
ENDBRANCH  27  28
ENDBRANCH  26  27
BRANCH  26  31
HETATM   31  C13 UNL     1      45.867   1.022  33.896  1.00  0.00     0.182 C 
HETATM   32  O3  UNL     1      46.638   0.318  34.591  1.00  0.00    -0.647 OA
HETATM   33  O4  UNL     1      46.390   1.525  32.715  1.00  0.00    -0.647 OA
ENDBRANCH  26  31
ENDBRANCH   3  26
TORSDOF 7
ENDMDL
