MODEL 6
REMARK VINA RESULT: -8.022053424      2.395      3.329
REMARK  9 active torsions:
REMARK  status: ('A' for Active; 'I' for Inactive)
REMARK    1  A    between atoms: O1_2  and  C2_3 
REMARK    2  A    between atoms: C7_8  and  C8_9 
REMARK    3  A    between atoms: C10_11  and  C11_12 
REMARK    4  A    between atoms: C11_12  and  C12_13 
REMARK    5  A    between atoms: C11_12  and  C14_17 
REMARK    6  A    between atoms: C12_13  and  C13_14 
REMARK    7  A    between atoms: C16_21  and  C17_22 
REMARK    8  A    between atoms: C20_27  and  C21_28 
REMARK    9  A    between atoms: C25_38  and  O6_39 
ROOT
HETATM    1  C8  UNL     1      41.869  -2.611  33.830  1.00  0.00     0.011 A 
HETATM    2  C9  UNL     1      42.488  -1.552  34.494  1.00  0.00     0.023 A 
HETATM    3  C10 UNL     1      43.360  -0.703  33.852  1.00  0.00    -0.041 A 
HETATM    4  C15 UNL     1      43.632  -0.894  32.532  1.00  0.00     0.026 A 
HETATM    5  C16 UNL     1      43.039  -1.940  31.820  1.00  0.00     0.043 A 
HETATM    6  C25 UNL     1      42.176  -2.765  32.489  1.00  0.00     0.090 A 
ENDROOT
BRANCH   5   7
HETATM    7  C17 UNL     1      43.411  -2.048  30.422  1.00  0.00     0.119 A 
HETATM    8  N1  UNL     1      43.249  -3.133  29.613  1.00  0.00    -0.340 N 
HETATM    9  C18 UNL     1      43.711  -2.842  28.388  1.00  0.00     0.061 A 
ATOM     10  H1  UNL     1      42.841  -4.024  29.895  1.00  0.00     0.167 HD
HETATM   11  C19 UNL     1      43.796  -3.552  27.194  1.00  0.00     0.046 A 
HETATM   12  C24 UNL     1      44.184  -1.550  28.388  1.00  0.00     0.060 A 
HETATM   13  C20 UNL     1      44.335  -2.965  26.074  1.00  0.00     0.007 A 
HETATM   14  C22 UNL     1      44.809  -1.657  26.094  1.00  0.00     0.017 A 
HETATM   15  C23 UNL     1      44.724  -0.958  27.268  1.00  0.00     0.033 A 
HETATM   16  N4  UNL     1      43.976  -1.102  29.668  1.00  0.00    -0.340 N 
ATOM     17  H4  UNL     1      44.221  -0.168  29.999  1.00  0.00     0.167 HD
BRANCH  13  18
HETATM   18  C21 UNL     1      44.438  -3.695  24.805  1.00  0.00     0.120 C 
HETATM   19  N2  UNL     1      44.517  -2.969  23.586  1.00  0.00    -0.082 NA
HETATM   20  N3  UNL     1      44.461  -4.961  24.737  1.00  0.00    -0.387 N 
ATOM     21  H32 UNL     1      44.405  -5.483  25.612  1.00  0.00     0.157 HD
ATOM     22  H31 UNL     1      44.533  -5.469  23.856  1.00  0.00     0.157 HD
ENDBRANCH  13  18
ENDBRANCH   5   7
BRANCH   6  23
HETATM   23  O6  UNL     1      41.592  -3.782  31.798  1.00  0.00    -0.359 OA
ATOM     24  H6  UNL     1      41.985  -4.061  30.980  1.00  0.00     0.217 HD
ENDBRANCH   6  23
BRANCH   3  25
HETATM   25  C11 UNL     1      44.022   0.434  34.568  1.00  0.00     0.129 C 
BRANCH  25  26
HETATM   26  C12 UNL     1      43.356   0.610  35.908  1.00  0.00     0.133 C 
BRANCH  26  27
HETATM   27  C13 UNL     1      43.162   2.069  36.183  1.00  0.00     0.173 C 
HETATM   28  O2  UNL     1      42.234   2.452  36.941  1.00  0.00    -0.648 OA
HETATM   29  O3  UNL     1      43.968   3.046  35.632  1.00  0.00    -0.648 OA
ENDBRANCH  26  27
ENDBRANCH  25  26
BRANCH  25  30
HETATM   30  C14 UNL     1      45.455   0.114  34.824  1.00  0.00     0.182 C 
HETATM   31  O4  UNL     1      45.817  -0.520  35.860  1.00  0.00    -0.647 OA
HETATM   32  O5  UNL     1      46.466   0.492  33.950  1.00  0.00    -0.647 OA
ENDBRANCH  25  30
ENDBRANCH   3  25
BRANCH   1  33
HETATM   33  C7  UNL     1      40.982  -3.501  34.568  1.00  0.00     0.010 A 
HETATM   34  C2  UNL     1      41.386  -4.809  34.882  1.00  0.00     0.079 A 
HETATM   35  C3  UNL     1      40.524  -5.637  35.558  1.00  0.00     0.037 A 
HETATM   36  C4  UNL     1      39.250  -5.258  35.960  1.00  0.00     0.003 A 
HETATM   37  C5  UNL     1      38.854  -3.977  35.652  1.00  0.00     0.001 A 
HETATM   38  C6  UNL     1      39.721  -3.134  34.968  1.00  0.00     0.015 A 
BRANCH  34  39
HETATM   39  O1  UNL     1      42.644  -5.149  34.472  1.00  0.00    -0.355 OA
HETATM   40  C1  UNL     1      42.979  -6.340  33.852  1.00  0.00     0.210 C 
ENDBRANCH  34  39
ENDBRANCH   1  33
TORSDOF 9
ENDMDL
