MODEL 9
REMARK VINA RESULT: -7.842534922      1.896      2.869
REMARK  9 active torsions:
REMARK  status: ('A' for Active; 'I' for Inactive)
REMARK    1  A    between atoms: O1_2  and  C2_3 
REMARK    2  A    between atoms: C7_8  and  C8_9 
REMARK    3  A    between atoms: C10_11  and  C11_12 
REMARK    4  A    between atoms: C11_12  and  C12_13 
REMARK    5  A    between atoms: C11_12  and  C14_17 
REMARK    6  A    between atoms: C12_13  and  C13_14 
REMARK    7  A    between atoms: C16_21  and  C17_22 
REMARK    8  A    between atoms: C20_27  and  C21_28 
REMARK    9  A    between atoms: C25_38  and  O6_39 
ROOT
HETATM    1  C8  UNL     1      41.142  -0.720  34.088  1.00  0.00     0.011 A 
HETATM    2  C9  UNL     1      42.145   0.045  34.684  1.00  0.00     0.023 A 
HETATM    3  C10 UNL     1      43.354   0.268  34.063  1.00  0.00    -0.041 A 
HETATM    4  C15 UNL     1      43.585  -0.269  32.834  1.00  0.00     0.026 A 
HETATM    5  C16 UNL     1      42.614  -1.042  32.194  1.00  0.00     0.043 A 
HETATM    6  C25 UNL     1      41.424  -1.244  32.837  1.00  0.00     0.090 A 
ENDROOT
BRANCH   5   7
HETATM    7  C17 UNL     1      42.978  -1.568  30.890  1.00  0.00     0.119 A 
HETATM    8  N1  UNL     1      43.291  -0.848  29.776  1.00  0.00    -0.340 N 
HETATM    9  C18 UNL     1      43.576  -1.691  28.773  1.00  0.00     0.061 A 
ATOM     10  H1  UNL     1      43.305   0.170  29.715  1.00  0.00     0.167 HD
HETATM   11  C19 UNL     1      43.953  -1.519  27.444  1.00  0.00     0.046 A 
HETATM   12  C24 UNL     1      43.450  -2.983  29.231  1.00  0.00     0.060 A 
HETATM   13  C20 UNL     1      44.184  -2.610  26.641  1.00  0.00     0.007 A 
HETATM   14  C22 UNL     1      44.050  -3.909  27.122  1.00  0.00     0.017 A 
HETATM   15  C23 UNL     1      43.681  -4.079  28.429  1.00  0.00     0.033 A 
HETATM   16  N4  UNL     1      43.079  -2.854  30.545  1.00  0.00    -0.340 N 
ATOM     17  H4  UNL     1      42.903  -3.637  31.174  1.00  0.00     0.167 HD
BRANCH  13  18
HETATM   18  C21 UNL     1      44.578  -2.454  25.236  1.00  0.00     0.120 C 
HETATM   19  N2  UNL     1      44.591  -1.157  24.655  1.00  0.00    -0.082 NA
HETATM   20  N3  UNL     1      44.914  -3.431  24.501  1.00  0.00    -0.387 N 
ATOM     21  H32 UNL     1      44.905  -4.362  24.918  1.00  0.00     0.157 HD
ATOM     22  H31 UNL     1      45.189  -3.322  23.525  1.00  0.00     0.157 HD
ENDBRANCH  13  18
ENDBRANCH   5   7
BRANCH   6  23
HETATM   23  O6  UNL     1      40.473  -1.993  32.215  1.00  0.00    -0.359 OA
ATOM     24  H6  UNL     1      39.995  -1.610  31.489  1.00  0.00     0.217 HD
ENDBRANCH   6  23
BRANCH   3  25
HETATM   25  C11 UNL     1      44.428   1.091  34.705  1.00  0.00     0.129 C 
BRANCH  25  26
HETATM   26  C12 UNL     1      44.054   1.328  36.146  1.00  0.00     0.133 C 
BRANCH  26  27
HETATM   27  C13 UNL     1      44.741   2.560  36.645  1.00  0.00     0.173 C 
HETATM   28  O2  UNL     1      44.518   3.674  36.103  1.00  0.00    -0.648 OA
HETATM   29  O3  UNL     1      45.635   2.542  37.698  1.00  0.00    -0.648 OA
ENDBRANCH  26  27
ENDBRANCH  25  26
BRANCH  25  30
HETATM   30  C14 UNL     1      45.718   0.346  34.699  1.00  0.00     0.182 C 
HETATM   31  O4  UNL     1      46.554   0.476  33.755  1.00  0.00    -0.647 OA
HETATM   32  O5  UNL     1      46.075  -0.527  35.718  1.00  0.00    -0.647 OA
ENDBRANCH  25  30
ENDBRANCH   3  25
BRANCH   1  33
HETATM   33  C7  UNL     1      39.897  -0.954  34.805  1.00  0.00     0.010 A 
HETATM   34  C2  UNL     1      38.801  -0.091  34.632  1.00  0.00     0.079 A 
HETATM   35  C3  UNL     1      37.646  -0.317  35.337  1.00  0.00     0.037 A 
HETATM   36  C4  UNL     1      37.483  -1.366  36.231  1.00  0.00     0.003 A 
HETATM   37  C5  UNL     1      38.555  -2.211  36.403  1.00  0.00     0.001 A 
HETATM   38  C6  UNL     1      39.728  -1.988  35.693  1.00  0.00     0.015 A 
BRANCH  34  39
HETATM   39  O1  UNL     1      38.996   0.930  33.744  1.00  0.00    -0.355 OA
HETATM   40  C1  UNL     1      38.242   1.140  32.603  1.00  0.00     0.210 C 
ENDBRANCH  34  39
ENDBRANCH   1  33
TORSDOF 9
ENDMDL
