MODEL 10
REMARK VINA RESULT: -7.770901073      2.676      4.547
REMARK  9 active torsions:
REMARK  status: ('A' for Active; 'I' for Inactive)
REMARK    1  A    between atoms: O1_2  and  C2_3 
REMARK    2  A    between atoms: C7_8  and  C8_9 
REMARK    3  A    between atoms: C10_11  and  C11_12 
REMARK    4  A    between atoms: C11_12  and  C12_13 
REMARK    5  A    between atoms: C11_12  and  C14_17 
REMARK    6  A    between atoms: C12_13  and  C13_14 
REMARK    7  A    between atoms: C16_21  and  C17_22 
REMARK    8  A    between atoms: C20_27  and  C21_28 
REMARK    9  A    between atoms: C25_38  and  O6_39 
ROOT
HETATM    1  C8  UNL     1      42.692  -1.297  34.093  1.00  0.00     0.011 A 
HETATM    2  C9  UNL     1      42.248  -2.536  34.556  1.00  0.00     0.023 A 
HETATM    3  C10 UNL     1      42.185  -3.639  33.734  1.00  0.00    -0.041 A 
HETATM    4  C15 UNL     1      42.567  -3.526  32.433  1.00  0.00     0.026 A 
HETATM    5  C16 UNL     1      43.021  -2.309  31.919  1.00  0.00     0.043 A 
HETATM    6  C25 UNL     1      43.071  -1.233  32.763  1.00  0.00     0.090 A 
ENDROOT
BRANCH   5   7
HETATM    7  C17 UNL     1      43.393  -2.310  30.516  1.00  0.00     0.119 A 
HETATM    8  N1  UNL     1      43.271  -3.345  29.638  1.00  0.00    -0.340 N 
HETATM    9  C18 UNL     1      43.718  -2.955  28.435  1.00  0.00     0.061 A 
ATOM     10  H1  UNL     1      42.899  -4.268  29.860  1.00  0.00     0.167 HD
HETATM   11  C19 UNL     1      43.827  -3.581  27.196  1.00  0.00     0.046 A 
HETATM   12  C24 UNL     1      44.140  -1.649  28.520  1.00  0.00     0.060 A 
HETATM   13  C20 UNL     1      44.339  -2.901  26.117  1.00  0.00     0.007 A 
HETATM   14  C22 UNL     1      44.761  -1.580  26.223  1.00  0.00     0.017 A 
HETATM   15  C23 UNL     1      44.654  -0.964  27.441  1.00  0.00     0.033 A 
HETATM   16  N4  UNL     1      43.919  -1.294  29.826  1.00  0.00    -0.340 N 
ATOM     17  H4  UNL     1      44.128  -0.376  30.219  1.00  0.00     0.167 HD
BRANCH  13  18
HETATM   18  C21 UNL     1      44.466  -3.541  24.803  1.00  0.00     0.120 C 
HETATM   19  N2  UNL     1      44.593  -2.732  23.641  1.00  0.00    -0.082 NA
HETATM   20  N3  UNL     1      44.470  -4.800  24.645  1.00  0.00    -0.387 N 
ATOM     21  H32 UNL     1      44.378  -5.381  25.479  1.00  0.00     0.157 HD
ATOM     22  H31 UNL     1      44.558  -5.245  23.732  1.00  0.00     0.157 HD
ENDBRANCH  13  18
ENDBRANCH   5   7
BRANCH   6  23
HETATM   23  O6  UNL     1      43.517  -0.046  32.269  1.00  0.00    -0.359 OA
ATOM     24  H6  UNL     1      43.133   0.758  32.600  1.00  0.00     0.217 HD
ENDBRANCH   6  23
BRANCH   3  25
HETATM   25  C11 UNL     1      41.708  -4.967  34.234  1.00  0.00     0.129 C 
BRANCH  25  26
HETATM   26  C12 UNL     1      42.558  -6.047  33.615  1.00  0.00     0.133 C 
BRANCH  26  27
HETATM   27  C13 UNL     1      41.675  -7.109  33.037  1.00  0.00     0.173 C 
HETATM   28  O2  UNL     1      41.100  -7.934  33.792  1.00  0.00    -0.648 OA
HETATM   29  O3  UNL     1      41.455  -7.238  31.679  1.00  0.00    -0.648 OA
ENDBRANCH  26  27
ENDBRANCH  25  26
BRANCH  25  30
HETATM   30  C14 UNL     1      41.886  -5.054  35.711  1.00  0.00     0.182 C 
HETATM   31  O4  UNL     1      42.990  -5.405  36.225  1.00  0.00    -0.647 OA
HETATM   32  O5  UNL     1      40.861  -4.759  36.600  1.00  0.00    -0.647 OA
ENDBRANCH  25  30
ENDBRANCH   3  25
BRANCH   1  33
HETATM   33  C7  UNL     1      42.703  -0.156  34.998  1.00  0.00     0.010 A 
HETATM   34  C2  UNL     1      41.546   0.619  35.181  1.00  0.00     0.079 A 
HETATM   35  C3  UNL     1      41.587   1.705  36.020  1.00  0.00     0.037 A 
HETATM   36  C4  UNL     1      42.722   2.097  36.716  1.00  0.00     0.003 A 
HETATM   37  C5  UNL     1      43.856   1.340  36.536  1.00  0.00     0.001 A 
HETATM   38  C6  UNL     1      43.822   0.240  35.688  1.00  0.00     0.015 A 
BRANCH  34  39
HETATM   39  O1  UNL     1      40.447   0.205  34.482  1.00  0.00    -0.355 OA
HETATM   40  C1  UNL     1      39.265   0.917  34.371  1.00  0.00     0.210 C 
ENDBRANCH  34  39
ENDBRANCH   1  33
TORSDOF 9
ENDMDL
