MODEL 7
REMARK VINA RESULT: -7.901980534      2.005      3.160
REMARK  9 active torsions:
REMARK  status: ('A' for Active; 'I' for Inactive)
REMARK    1  A    between atoms: O1_2  and  C2_3 
REMARK    2  A    between atoms: C7_8  and  C8_9 
REMARK    3  A    between atoms: C10_11  and  C11_12 
REMARK    4  A    between atoms: C11_12  and  C12_13 
REMARK    5  A    between atoms: C11_12  and  C14_17 
REMARK    6  A    between atoms: C12_13  and  C13_14 
REMARK    7  A    between atoms: C16_21  and  C17_22 
REMARK    8  A    between atoms: C20_27  and  C21_28 
REMARK    9  A    between atoms: C25_38  and  O6_39 
ROOT
HETATM    1  C8  UNL     1      41.934  -2.556  33.830  1.00  0.00     0.011 A 
HETATM    2  C9  UNL     1      42.562  -1.496  34.483  1.00  0.00     0.023 A 
HETATM    3  C10 UNL     1      43.430  -0.651  33.827  1.00  0.00    -0.041 A 
HETATM    4  C15 UNL     1      43.687  -0.849  32.506  1.00  0.00     0.026 A 
HETATM    5  C16 UNL     1      43.084  -1.897  31.805  1.00  0.00     0.043 A 
HETATM    6  C25 UNL     1      42.227  -2.717  32.486  1.00  0.00     0.090 A 
ENDROOT
BRANCH   5   7
HETATM    7  C17 UNL     1      43.441  -2.012  30.403  1.00  0.00     0.119 A 
HETATM    8  N1  UNL     1      43.279  -3.105  29.605  1.00  0.00    -0.340 N 
HETATM    9  C18 UNL     1      43.725  -2.819  28.372  1.00  0.00     0.061 A 
ATOM     10  H1  UNL     1      42.882  -3.997  29.898  1.00  0.00     0.167 HD
HETATM   11  C19 UNL     1      43.802  -3.537  27.183  1.00  0.00     0.046 A 
HETATM   12  C24 UNL     1      44.186  -1.523  28.357  1.00  0.00     0.060 A 
HETATM   13  C20 UNL     1      44.323  -2.954  26.052  1.00  0.00     0.007 A 
HETATM   14  C22 UNL     1      44.786  -1.642  26.057  1.00  0.00     0.017 A 
HETATM   15  C23 UNL     1      44.709  -0.935  27.227  1.00  0.00     0.033 A 
HETATM   16  N4  UNL     1      43.989  -1.067  29.636  1.00  0.00    -0.340 N 
ATOM     17  H4  UNL     1      44.230  -0.129  29.958  1.00  0.00     0.167 HD
BRANCH  13  18
HETATM   18  C21 UNL     1      44.418  -3.693  24.787  1.00  0.00     0.120 C 
HETATM   19  N2  UNL     1      44.497  -2.975  23.563  1.00  0.00    -0.082 NA
HETATM   20  N3  UNL     1      44.433  -4.959  24.728  1.00  0.00    -0.387 N 
ATOM     21  H32 UNL     1      44.376  -5.475  25.606  1.00  0.00     0.157 HD
ATOM     22  H31 UNL     1      44.499  -5.473  23.849  1.00  0.00     0.157 HD
ENDBRANCH  13  18
ENDBRANCH   5   7
BRANCH   6  23
HETATM   23  O6  UNL     1      41.633  -3.736  31.807  1.00  0.00    -0.359 OA
ATOM     24  H6  UNL     1      41.900  -4.627  32.000  1.00  0.00     0.217 HD
ENDBRANCH   6  23
BRANCH   3  25
HETATM   25  C11 UNL     1      44.102   0.487  34.531  1.00  0.00     0.129 C 
BRANCH  25  26
HETATM   26  C12 UNL     1      43.380   0.742  35.829  1.00  0.00     0.133 C 
BRANCH  26  27
HETATM   27  C13 UNL     1      43.557   2.174  36.228  1.00  0.00     0.173 C 
HETATM   28  O2  UNL     1      43.929   3.026  35.380  1.00  0.00    -0.648 OA
HETATM   29  O3  UNL     1      43.332   2.624  37.514  1.00  0.00    -0.648 OA
ENDBRANCH  26  27
ENDBRANCH  25  26
BRANCH  25  30
HETATM   30  C14 UNL     1      45.507   0.125  34.868  1.00  0.00     0.182 C 
HETATM   31  O4  UNL     1      46.473   0.440  34.110  1.00  0.00    -0.647 OA
HETATM   32  O5  UNL     1      45.836  -0.574  36.022  1.00  0.00    -0.647 OA
ENDBRANCH  25  30
ENDBRANCH   3  25
BRANCH   1  33
HETATM   33  C7  UNL     1      41.054  -3.440  34.582  1.00  0.00     0.010 A 
HETATM   34  C2  UNL     1      39.670  -3.199  34.627  1.00  0.00     0.079 A 
HETATM   35  C3  UNL     1      38.864  -4.032  35.361  1.00  0.00     0.037 A 
HETATM   36  C4  UNL     1      39.334  -5.123  36.079  1.00  0.00     0.003 A 
HETATM   37  C5  UNL     1      40.689  -5.359  36.037  1.00  0.00     0.001 A 
HETATM   38  C6  UNL     1      41.512  -4.520  35.296  1.00  0.00     0.015 A 
BRANCH  34  39
HETATM   39  O1  UNL     1      39.241  -2.118  33.908  1.00  0.00    -0.355 OA
HETATM   40  C1  UNL     1      38.361  -2.176  32.843  1.00  0.00     0.210 C 
ENDBRANCH  34  39
ENDBRANCH   1  33
TORSDOF 9
ENDMDL
