MODEL 5
REMARK VINA RESULT: -8.063464875      2.575      4.792
REMARK  9 active torsions:
REMARK  status: ('A' for Active; 'I' for Inactive)
REMARK    1  A    between atoms: O1_2  and  C2_3 
REMARK    2  A    between atoms: C7_8  and  C8_9 
REMARK    3  A    between atoms: C10_11  and  C11_12 
REMARK    4  A    between atoms: C11_12  and  C12_13 
REMARK    5  A    between atoms: C11_12  and  C14_17 
REMARK    6  A    between atoms: C12_13  and  C13_14 
REMARK    7  A    between atoms: C16_21  and  C17_22 
REMARK    8  A    between atoms: C20_27  and  C21_28 
REMARK    9  A    between atoms: C25_38  and  O6_39 
ROOT
HETATM    1  C8  UNL     1      42.676  -1.239  34.103  1.00  0.00     0.011 A 
HETATM    2  C9  UNL     1      42.264  -2.482  34.583  1.00  0.00     0.023 A 
HETATM    3  C10 UNL     1      42.231  -3.598  33.777  1.00  0.00    -0.041 A 
HETATM    4  C15 UNL     1      42.611  -3.494  32.474  1.00  0.00     0.026 A 
HETATM    5  C16 UNL     1      43.033  -2.272  31.944  1.00  0.00     0.043 A 
HETATM    6  C25 UNL     1      43.053  -1.184  32.772  1.00  0.00     0.090 A 
ENDROOT
BRANCH   5   7
HETATM    7  C17 UNL     1      43.406  -2.283  30.541  1.00  0.00     0.119 A 
HETATM    8  N1  UNL     1      43.273  -3.320  29.667  1.00  0.00    -0.340 N 
HETATM    9  C18 UNL     1      43.725  -2.940  28.462  1.00  0.00     0.061 A 
ATOM     10  H1  UNL     1      42.891  -4.238  29.893  1.00  0.00     0.167 HD
HETATM   11  C19 UNL     1      43.828  -3.573  27.227  1.00  0.00     0.046 A 
HETATM   12  C24 UNL     1      44.160  -1.638  28.543  1.00  0.00     0.060 A 
HETATM   13  C20 UNL     1      44.347  -2.903  26.145  1.00  0.00     0.007 A 
HETATM   14  C22 UNL     1      44.784  -1.585  26.246  1.00  0.00     0.017 A 
HETATM   15  C23 UNL     1      44.681  -0.963  27.461  1.00  0.00     0.033 A 
HETATM   16  N4  UNL     1      43.942  -1.276  29.847  1.00  0.00    -0.340 N 
ATOM     17  H4  UNL     1      44.160  -0.358  30.236  1.00  0.00     0.167 HD
BRANCH  13  18
HETATM   18  C21 UNL     1      44.469  -3.549  24.833  1.00  0.00     0.120 C 
HETATM   19  N2  UNL     1      44.597  -2.746  23.667  1.00  0.00    -0.082 NA
HETATM   20  N3  UNL     1      44.467  -4.808  24.682  1.00  0.00    -0.387 N 
ATOM     21  H32 UNL     1      44.375  -5.385  25.519  1.00  0.00     0.157 HD
ATOM     22  H31 UNL     1      44.551  -5.258  23.771  1.00  0.00     0.157 HD
ENDBRANCH  13  18
ENDBRANCH   5   7
BRANCH   6  23
HETATM   23  O6  UNL     1      43.468   0.008  32.262  1.00  0.00    -0.359 OA
ATOM     24  H6  UNL     1      43.610   0.077  31.325  1.00  0.00     0.217 HD
ENDBRANCH   6  23
BRANCH   3  25
HETATM   25  C11 UNL     1      41.789  -4.931  34.296  1.00  0.00     0.129 C 
BRANCH  25  26
HETATM   26  C12 UNL     1      41.328  -4.763  35.720  1.00  0.00     0.133 C 
BRANCH  26  27
HETATM   27  C13 UNL     1      42.192  -5.582  36.627  1.00  0.00     0.173 C 
HETATM   28  O2  UNL     1      43.382  -5.838  36.307  1.00  0.00    -0.648 OA
HETATM   29  O3  UNL     1      41.741  -6.090  37.830  1.00  0.00    -0.648 OA
ENDBRANCH  26  27
ENDBRANCH  25  26
BRANCH  25  30
HETATM   30  C14 UNL     1      40.625  -5.428  33.509  1.00  0.00     0.182 C 
HETATM   31  O4  UNL     1      39.494  -4.860  33.570  1.00  0.00    -0.647 OA
HETATM   32  O5  UNL     1      40.714  -6.532  32.672  1.00  0.00    -0.647 OA
ENDBRANCH  25  30
ENDBRANCH   3  25
BRANCH   1  33
HETATM   33  C7  UNL     1      42.655  -0.085  34.992  1.00  0.00     0.010 A 
HETATM   34  C2  UNL     1      43.817   0.307  35.677  1.00  0.00     0.079 A 
HETATM   35  C3  UNL     1      43.768   1.384  36.527  1.00  0.00     0.037 A 
HETATM   36  C4  UNL     1      42.620   2.129  36.760  1.00  0.00     0.003 A 
HETATM   37  C5  UNL     1      41.481   1.745  36.090  1.00  0.00     0.001 A 
HETATM   38  C6  UNL     1      41.523   0.656  35.228  1.00  0.00     0.015 A 
BRANCH  34  39
HETATM   39  O1  UNL     1      44.929  -0.447  35.425  1.00  0.00    -0.355 OA
HETATM   40  C1  UNL     1      46.231  -0.032  35.641  1.00  0.00     0.210 C 
ENDBRANCH  34  39
ENDBRANCH   1  33
TORSDOF 9
ENDMDL
