MODEL 11
REMARK VINA RESULT: -8.067914325      2.690      4.064
REMARK  8 active torsions:
REMARK  status: ('A' for Active; 'I' for Inactive)
REMARK    1  A    between atoms: C1_2  and  C2_6 
REMARK    2  A    between atoms: C6_12  and  C7_13 
REMARK    3  A    between atoms: C9_15  and  C10_16 
REMARK    4  A    between atoms: C10_16  and  C11_17 
REMARK    5  A    between atoms: C10_16  and  C13_21 
REMARK    6  A    between atoms: C11_17  and  C12_18 
REMARK    7  A    between atoms: C15_25  and  C16_26 
REMARK    8  A    between atoms: C22_33  and  O5_34 
ROOT
HETATM    1  C7  UNL     1      42.757  -2.056  32.266  1.00  0.00     0.043 A 
HETATM    2  C8  UNL     1      42.184  -3.156  32.922  1.00  0.00     0.026 A 
HETATM    3  C9  UNL     1      41.846  -3.161  34.244  1.00  0.00    -0.041 A 
HETATM    4  C14 UNL     1      42.086  -2.012  34.969  1.00  0.00     0.023 A 
HETATM    5  C15 UNL     1      42.648  -0.899  34.375  1.00  0.00     0.012 A 
HETATM    6  C22 UNL     1      42.981  -0.935  33.011  1.00  0.00     0.090 A 
ENDROOT
BRANCH   1   7
HETATM    7  C6  UNL     1      43.087  -2.146  30.849  1.00  0.00     0.119 A 
HETATM    8  N3  UNL     1      43.509  -1.097  30.083  1.00  0.00    -0.340 N 
HETATM    9  C5  UNL     1      43.740  -1.474  28.822  1.00  0.00     0.060 A 
ATOM     10  H3  UNL     1      43.632  -0.145  30.431  1.00  0.00     0.167 HD
HETATM   11  C4  UNL     1      44.170  -0.824  27.677  1.00  0.00     0.033 A 
HETATM   12  C23 UNL     1      43.458  -2.818  28.771  1.00  0.00     0.061 A 
HETATM   13  C3  UNL     1      44.320  -1.509  26.477  1.00  0.00     0.017 A 
HETATM   14  C2  UNL     1      44.043  -2.853  26.403  1.00  0.00     0.007 A 
HETATM   15  C24 UNL     1      43.616  -3.467  27.570  1.00  0.00     0.046 A 
HETATM   16  N4  UNL     1      43.070  -3.176  30.010  1.00  0.00    -0.340 N 
ATOM     17  H4  UNL     1      42.796  -4.123  30.272  1.00  0.00     0.167 HD
BRANCH  14  18
HETATM   18  C1  UNL     1      44.180  -3.629  25.163  1.00  0.00     0.120 C 
HETATM   19  N1  UNL     1      44.268  -2.912  23.912  1.00  0.00    -0.082 NA
HETATM   20  N2  UNL     1      44.229  -4.904  25.122  1.00  0.00    -0.387 N 
ATOM     21  H22 UNL     1      44.324  -5.443  24.261  1.00  0.00     0.157 HD
ATOM     22  H21 UNL     1      44.167  -5.411  26.006  1.00  0.00     0.157 HD
ENDBRANCH  14  18
ENDBRANCH   1   7
BRANCH   6  23
HETATM   23  O5  UNL     1      43.531   0.210  32.512  1.00  0.00    -0.359 OA
ATOM     24  H5  UNL     1      43.852   0.921  33.054  1.00  0.00     0.217 HD
ENDBRANCH   6  23
BRANCH   3  25
HETATM   25  C10 UNL     1      41.245  -4.302  34.948  1.00  0.00     0.129 C 
BRANCH  25  26
HETATM   26  C11 UNL     1      41.965  -4.651  36.225  1.00  0.00     0.133 C 
BRANCH  26  27
HETATM   27  C12 UNL     1      42.854  -5.823  35.980  1.00  0.00     0.173 C 
HETATM   28  O1  UNL     1      43.880  -6.007  36.715  1.00  0.00    -0.648 OA
HETATM   29  O2  UNL     1      42.631  -6.752  34.978  1.00  0.00    -0.648 OA
ENDBRANCH  26  27
ENDBRANCH  25  26
BRANCH  25  30
HETATM   30  C13 UNL     1      39.817  -3.994  35.276  1.00  0.00     0.182 C 
HETATM   31  O3  UNL     1      38.965  -3.809  34.373  1.00  0.00    -0.647 OA
HETATM   32  O4  UNL     1      39.380  -3.900  36.612  1.00  0.00    -0.647 OA
ENDBRANCH  25  30
ENDBRANCH   3  25
BRANCH   5  33
HETATM   33  C16 UNL     1      42.908   0.318  35.106  1.00  0.00     0.015 A 
HETATM   34  C17 UNL     1      41.881   1.200  35.327  1.00  0.00     0.015 A 
HETATM   35  C18 UNL     1      42.097   2.367  36.031  1.00  0.00     0.001 A 
HETATM   36  C19 UNL     1      43.348   2.694  36.537  1.00  0.00     0.003 A 
HETATM   37  C20 UNL     1      44.374   1.811  36.315  1.00  0.00     0.043 A 
HETATM   38  C21 UNL     1      44.150   0.642  35.609  1.00  0.00     0.127 A 
HETATM   39  F1  UNL     1      45.194  -0.178  35.427  1.00  0.00    -0.205 F 
ENDBRANCH   5  33
TORSDOF 8
ENDMDL
