MODEL 6
REMARK VINA RESULT: -8.238191290      2.090      5.293
REMARK  8 active torsions:
REMARK  status: ('A' for Active; 'I' for Inactive)
REMARK    1  A    between atoms: C1_2  and  C2_6 
REMARK    2  A    between atoms: C6_12  and  C7_13 
REMARK    3  A    between atoms: C9_15  and  C10_16 
REMARK    4  A    between atoms: C10_16  and  C11_17 
REMARK    5  A    between atoms: C10_16  and  C13_21 
REMARK    6  A    between atoms: C11_17  and  C12_18 
REMARK    7  A    between atoms: C15_25  and  C16_26 
REMARK    8  A    between atoms: C22_33  and  O5_34 
ROOT
HETATM    1  C7  UNL     1      42.020  -0.699  32.056  1.00  0.00     0.043 A 
HETATM    2  C8  UNL     1      42.955  -0.333  33.038  1.00  0.00     0.026 A 
HETATM    3  C9  UNL     1      42.616   0.203  34.246  1.00  0.00    -0.041 A 
HETATM    4  C14 UNL     1      41.274   0.393  34.509  1.00  0.00     0.023 A 
HETATM    5  C15 UNL     1      40.312   0.051  33.580  1.00  0.00     0.012 A 
HETATM    6  C22 UNL     1      40.702  -0.498  32.347  1.00  0.00     0.090 A 
ENDROOT
BRANCH   1   7
HETATM    7  C6  UNL     1      42.478  -1.262  30.793  1.00  0.00     0.119 A 
HETATM    8  N3  UNL     1      42.750  -2.584  30.587  1.00  0.00    -0.340 N 
HETATM    9  C5  UNL     1      43.148  -2.812  29.331  1.00  0.00     0.060 A 
ATOM     10  H3  UNL     1      42.660  -3.307  31.302  1.00  0.00     0.167 HD
HETATM   11  C4  UNL     1      43.532  -3.939  28.623  1.00  0.00     0.033 A 
HETATM   12  C23 UNL     1      43.131  -1.591  28.701  1.00  0.00     0.061 A 
HETATM   13  C3  UNL     1      43.901  -3.854  27.286  1.00  0.00     0.017 A 
HETATM   14  C2  UNL     1      43.893  -2.643  26.637  1.00  0.00     0.007 A 
HETATM   15  C24 UNL     1      43.502  -1.540  27.380  1.00  0.00     0.046 A 
HETATM   16  N4  UNL     1      42.723  -0.692  29.617  1.00  0.00    -0.340 N 
ATOM     17  H4  UNL     1      42.616   0.306  29.432  1.00  0.00     0.167 HD
BRANCH  14  18
HETATM   18  C1  UNL     1      44.275  -2.491  25.226  1.00  0.00     0.120 C 
HETATM   19  N1  UNL     1      44.225  -1.172  24.640  1.00  0.00    -0.082 NA
HETATM   20  N2  UNL     1      44.651  -3.458  24.482  1.00  0.00    -0.387 N 
ATOM     21  H22 UNL     1      44.916  -3.353  23.502  1.00  0.00     0.157 HD
ATOM     22  H21 UNL     1      44.687  -4.390  24.895  1.00  0.00     0.157 HD
ENDBRANCH  14  18
ENDBRANCH   1   7
BRANCH   6  23
HETATM   23  O5  UNL     1      39.682  -0.804  31.492  1.00  0.00    -0.359 OA
ATOM     24  H5  UNL     1      39.451  -0.275  30.738  1.00  0.00     0.217 HD
ENDBRANCH   6  23
BRANCH   3  25
HETATM   25  C10 UNL     1      43.579   0.591  35.287  1.00  0.00     0.129 C 
BRANCH  25  26
HETATM   26  C11 UNL     1      45.011   0.503  34.824  1.00  0.00     0.133 C 
BRANCH  26  27
HETATM   27  C12 UNL     1      45.869   0.086  35.969  1.00  0.00     0.173 C 
HETATM   28  O1  UNL     1      45.390  -0.659  36.886  1.00  0.00    -0.648 OA
HETATM   29  O2  UNL     1      47.193   0.466  36.106  1.00  0.00    -0.648 OA
ENDBRANCH  26  27
ENDBRANCH  25  26
BRANCH  25  30
HETATM   30  C13 UNL     1      43.307   1.997  35.724  1.00  0.00     0.182 C 
HETATM   31  O3  UNL     1      42.898   2.252  36.884  1.00  0.00    -0.647 OA
HETATM   32  O4  UNL     1      43.499   3.083  34.849  1.00  0.00    -0.647 OA
ENDBRANCH  25  30
ENDBRANCH   3  25
BRANCH   5  33
HETATM   33  C16 UNL     1      38.902   0.235  33.826  1.00  0.00     0.015 A 
HETATM   34  C17 UNL     1      38.286   1.377  33.381  1.00  0.00     0.015 A 
HETATM   35  C18 UNL     1      36.938   1.576  33.593  1.00  0.00     0.001 A 
HETATM   36  C19 UNL     1      36.157   0.639  34.259  1.00  0.00     0.003 A 
HETATM   37  C20 UNL     1      36.774  -0.502  34.703  1.00  0.00     0.043 A 
HETATM   38  C21 UNL     1      38.127  -0.696  34.486  1.00  0.00     0.127 A 
HETATM   39  F1  UNL     1      38.669  -1.832  34.945  1.00  0.00    -0.205 F 
ENDBRANCH   5  33
TORSDOF 8
ENDMDL
