MODEL 4
REMARK VINA RESULT: -8.366053589      2.023      4.865
REMARK  8 active torsions:
REMARK  status: ('A' for Active; 'I' for Inactive)
REMARK    1  A    between atoms: C1_2  and  C2_6 
REMARK    2  A    between atoms: C6_12  and  C7_13 
REMARK    3  A    between atoms: C9_15  and  C10_16 
REMARK    4  A    between atoms: C10_16  and  C11_17 
REMARK    5  A    between atoms: C10_16  and  C13_21 
REMARK    6  A    between atoms: C11_17  and  C12_18 
REMARK    7  A    between atoms: C15_25  and  C16_26 
REMARK    8  A    between atoms: C22_33  and  O5_34 
ROOT
HETATM    1  C7  UNL     1      42.377  -0.706  32.127  1.00  0.00     0.043 A 
HETATM    2  C8  UNL     1      43.335   0.005  32.867  1.00  0.00     0.026 A 
HETATM    3  C9  UNL     1      43.088   0.569  34.085  1.00  0.00    -0.041 A 
HETATM    4  C14 UNL     1      41.820   0.426  34.611  1.00  0.00     0.023 A 
HETATM    5  C15 UNL     1      40.840  -0.264  33.927  1.00  0.00     0.012 A 
HETATM    6  C22 UNL     1      41.134  -0.829  32.675  1.00  0.00     0.090 A 
ENDROOT
BRANCH   1   7
HETATM    7  C6  UNL     1      42.734  -1.271  30.832  1.00  0.00     0.119 A 
HETATM    8  N3  UNL     1      42.824  -2.608  30.568  1.00  0.00    -0.340 N 
HETATM    9  C5  UNL     1      43.166  -2.833  29.295  1.00  0.00     0.060 A 
ATOM     10  H3  UNL     1      42.652  -3.342  31.255  1.00  0.00     0.167 HD
HETATM   11  C4  UNL     1      43.385  -3.970  28.534  1.00  0.00     0.033 A 
HETATM   12  C23 UNL     1      43.301  -1.595  28.715  1.00  0.00     0.061 A 
HETATM   13  C3  UNL     1      43.738  -3.878  27.193  1.00  0.00     0.017 A 
HETATM   14  C2  UNL     1      43.879  -2.650  26.593  1.00  0.00     0.007 A 
HETATM   15  C24 UNL     1      43.652  -1.537  27.388  1.00  0.00     0.046 A 
HETATM   16  N4  UNL     1      43.032  -0.689  29.675  1.00  0.00    -0.340 N 
ATOM     17  H4  UNL     1      43.055   0.320  29.532  1.00  0.00     0.167 HD
BRANCH  14  18
HETATM   18  C1  UNL     1      44.254  -2.490  25.181  1.00  0.00     0.120 C 
HETATM   19  N1  UNL     1      44.194  -1.169  24.601  1.00  0.00    -0.082 NA
HETATM   20  N2  UNL     1      44.631  -3.452  24.431  1.00  0.00    -0.387 N 
ATOM     21  H22 UNL     1      44.890  -3.342  23.451  1.00  0.00     0.157 HD
ATOM     22  H21 UNL     1      44.673  -4.386  24.840  1.00  0.00     0.157 HD
ENDBRANCH  14  18
ENDBRANCH   1   7
BRANCH   6  23
HETATM   23  O5  UNL     1      40.103  -1.492  32.074  1.00  0.00    -0.359 OA
ATOM     24  H5  UNL     1      39.251  -1.103  31.909  1.00  0.00     0.217 HD
ENDBRANCH   6  23
BRANCH   3  25
HETATM   25  C10 UNL     1      44.077   1.316  34.875  1.00  0.00     0.129 C 
BRANCH  25  26
HETATM   26  C11 UNL     1      43.540   1.779  36.205  1.00  0.00     0.133 C 
BRANCH  26  27
HETATM   27  C12 UNL     1      44.244   3.030  36.607  1.00  0.00     0.173 C 
HETATM   28  O1  UNL     1      43.847   4.155  36.158  1.00  0.00    -0.648 OA
HETATM   29  O2  UNL     1      45.331   3.050  37.464  1.00  0.00    -0.648 OA
ENDBRANCH  26  27
ENDBRANCH  25  26
BRANCH  25  30
HETATM   30  C13 UNL     1      45.278   0.455  35.121  1.00  0.00     0.182 C 
HETATM   31  O3  UNL     1      45.303  -0.375  36.063  1.00  0.00    -0.647 OA
HETATM   32  O4  UNL     1      46.420   0.547  34.303  1.00  0.00    -0.647 OA
ENDBRANCH  25  30
ENDBRANCH   3  25
BRANCH   5  33
HETATM   33  C16 UNL     1      39.506  -0.433  34.452  1.00  0.00     0.015 A 
HETATM   34  C17 UNL     1      39.258  -1.449  35.340  1.00  0.00     0.015 A 
HETATM   35  C18 UNL     1      37.996  -1.630  35.865  1.00  0.00     0.001 A 
HETATM   36  C19 UNL     1      36.935  -0.803  35.521  1.00  0.00     0.003 A 
HETATM   37  C20 UNL     1      37.184   0.212  34.632  1.00  0.00     0.043 A 
HETATM   38  C21 UNL     1      38.453   0.389  34.109  1.00  0.00     0.127 A 
HETATM   39  F1  UNL     1      38.630   1.400  33.247  1.00  0.00    -0.205 F 
ENDBRANCH   5  33
TORSDOF 8
ENDMDL
