MODEL 7
REMARK VINA RESULT: -8.196644459      2.127      4.995
REMARK  8 active torsions:
REMARK  status: ('A' for Active; 'I' for Inactive)
REMARK    1  A    between atoms: C1_2  and  C2_6 
REMARK    2  A    between atoms: C6_12  and  C7_13 
REMARK    3  A    between atoms: C9_15  and  C10_16 
REMARK    4  A    between atoms: C10_16  and  C11_17 
REMARK    5  A    between atoms: C10_16  and  C13_21 
REMARK    6  A    between atoms: C11_17  and  C12_18 
REMARK    7  A    between atoms: C15_25  and  C16_26 
REMARK    8  A    between atoms: C22_33  and  O5_34 
ROOT
HETATM    1  C7  UNL     1      42.383  -0.679  32.125  1.00  0.00     0.043 A 
HETATM    2  C8  UNL     1      43.346   0.034  32.856  1.00  0.00     0.026 A 
HETATM    3  C9  UNL     1      43.106   0.610  34.069  1.00  0.00    -0.041 A 
HETATM    4  C14 UNL     1      41.838   0.480  34.599  1.00  0.00     0.023 A 
HETATM    5  C15 UNL     1      40.852  -0.210  33.924  1.00  0.00     0.012 A 
HETATM    6  C22 UNL     1      41.140  -0.789  32.677  1.00  0.00     0.090 A 
ENDROOT
BRANCH   1   7
HETATM    7  C6  UNL     1      42.733  -1.257  30.834  1.00  0.00     0.119 A 
HETATM    8  N3  UNL     1      42.810  -2.597  30.581  1.00  0.00    -0.340 N 
HETATM    9  C5  UNL     1      43.149  -2.837  29.310  1.00  0.00     0.060 A 
ATOM     10  H3  UNL     1      42.631  -3.324  31.275  1.00  0.00     0.167 HD
HETATM   11  C4  UNL     1      43.356  -3.982  28.559  1.00  0.00     0.033 A 
HETATM   12  C23 UNL     1      43.295  -1.604  28.719  1.00  0.00     0.061 A 
HETATM   13  C3  UNL     1      43.709  -3.905  27.217  1.00  0.00     0.017 A 
HETATM   14  C2  UNL     1      43.862  -2.683  26.606  1.00  0.00     0.007 A 
HETATM   15  C24 UNL     1      43.646  -1.561  27.392  1.00  0.00     0.046 A 
HETATM   16  N4  UNL     1      43.036  -0.688  29.672  1.00  0.00    -0.340 N 
ATOM     17  H4  UNL     1      43.069   0.320  29.520  1.00  0.00     0.167 HD
BRANCH  14  18
HETATM   18  C1  UNL     1      44.236  -2.539  25.193  1.00  0.00     0.120 C 
HETATM   19  N1  UNL     1      44.191  -1.221  24.602  1.00  0.00    -0.082 NA
HETATM   20  N2  UNL     1      44.602  -3.511  24.450  1.00  0.00    -0.387 N 
ATOM     21  H22 UNL     1      44.862  -3.411  23.469  1.00  0.00     0.157 HD
ATOM     22  H21 UNL     1      44.634  -4.442  24.867  1.00  0.00     0.157 HD
ENDBRANCH  14  18
ENDBRANCH   1   7
BRANCH   6  23
HETATM   23  O5  UNL     1      40.103  -1.450  32.084  1.00  0.00    -0.359 OA
ATOM     24  H5  UNL     1      39.384  -1.014  31.642  1.00  0.00     0.217 HD
ENDBRANCH   6  23
BRANCH   3  25
HETATM   25  C10 UNL     1      44.101   1.359  34.849  1.00  0.00     0.129 C 
BRANCH  25  26
HETATM   26  C11 UNL     1      43.596   1.769  36.209  1.00  0.00     0.133 C 
BRANCH  26  27
HETATM   27  C12 UNL     1      44.312   3.001  36.645  1.00  0.00     0.173 C 
HETATM   28  O1  UNL     1      43.942   4.140  36.207  1.00  0.00    -0.648 OA
HETATM   29  O2  UNL     1      45.384   2.990  37.520  1.00  0.00    -0.648 OA
ENDBRANCH  26  27
ENDBRANCH  25  26
BRANCH  25  30
HETATM   30  C13 UNL     1      45.330   0.521  35.032  1.00  0.00     0.182 C 
HETATM   31  O3  UNL     1      45.432  -0.288  35.986  1.00  0.00    -0.647 OA
HETATM   32  O4  UNL     1      46.414   0.613  34.138  1.00  0.00    -0.647 OA
ENDBRANCH  25  30
ENDBRANCH   3  25
BRANCH   5  33
HETATM   33  C16 UNL     1      39.519  -0.366  34.453  1.00  0.00     0.015 A 
HETATM   34  C17 UNL     1      38.587   0.615  34.226  1.00  0.00     0.015 A 
HETATM   35  C18 UNL     1      37.302   0.489  34.711  1.00  0.00     0.001 A 
HETATM   36  C19 UNL     1      36.903  -0.622  35.442  1.00  0.00     0.003 A 
HETATM   37  C20 UNL     1      37.835  -1.603  35.669  1.00  0.00     0.043 A 
HETATM   38  C21 UNL     1      39.122  -1.471  35.178  1.00  0.00     0.127 A 
HETATM   39  F1  UNL     1      39.985  -2.464  35.434  1.00  0.00    -0.205 F 
ENDBRANCH   5  33
TORSDOF 8
ENDMDL
