MODEL 2
REMARK VINA RESULT: -7.733805192      1.205      1.392
REMARK  3 active torsions:
REMARK  status: ('A' for Active; 'I' for Inactive)
REMARK    1  A    between atoms: C1_2  and  C2_6 
REMARK    2  A    between atoms: C6_12  and  C7_13 
REMARK    3  A    between atoms: C11_19  and  O1_20 
ROOT
HETATM    1  C2  UNL     1      44.012  -2.636  26.688  1.00  0.00     0.007 A 
HETATM    2  C3  UNL     1      43.752  -3.892  27.157  1.00  0.00     0.017 A 
HETATM    3  C4  UNL     1      43.487  -4.124  28.511  1.00  0.00     0.033 A 
HETATM    4  C5  UNL     1      43.498  -3.038  29.346  1.00  0.00     0.060 A 
HETATM    5  N3  UNL     1      43.280  -2.943  30.691  1.00  0.00    -0.339 N 
ATOM      6  H3  UNL     1      43.063  -3.733  31.298  1.00  0.00     0.167 HD
HETATM    7  C6  UNL     1      43.389  -1.685  31.101  1.00  0.00     0.136 A 
HETATM    8  N5  UNL     1      43.685  -0.956  29.983  1.00  0.00    -0.339 N 
ATOM      9  H5  UNL     1      43.832   0.053  29.965  1.00  0.00     0.167 HD
HETATM   10  C12 UNL     1      43.754  -1.756  28.924  1.00  0.00     0.061 A 
HETATM   11  C13 UNL     1      44.012  -1.574  27.570  1.00  0.00     0.046 A 
ENDROOT
BRANCH   7  12
HETATM   12  C7  UNL     1      43.235  -1.147  32.444  1.00  0.00     0.110 A 
HETATM   13  N4  UNL     1      42.144  -1.453  33.187  1.00  0.00    -0.361 N 
HETATM   14  C8  UNL     1      41.974  -0.977  34.418  1.00  0.00     0.088 A 
ATOM     15  H4  UNL     1      41.431  -2.066  32.790  1.00  0.00     0.165 HD
HETATM   16  C9  UNL     1      42.895  -0.146  35.015  1.00  0.00     0.020 A 
HETATM   17  C10 UNL     1      44.016   0.193  34.305  1.00  0.00     0.040 A 
HETATM   18  C11 UNL     1      44.154  -0.329  33.012  1.00  0.00     0.096 A 
BRANCH  18  19
HETATM   19  O1  UNL     1      45.307   0.049  32.346  1.00  0.00    -0.358 OA
ATOM     20  H1  UNL     1      45.750   0.867  32.535  1.00  0.00     0.217 HD
ENDBRANCH  18  19
ENDBRANCH   7  12
BRANCH   1  21
HETATM   21  C1  UNL     1      44.286  -2.405  25.289  1.00  0.00     0.120 C 
HETATM   22  N1  UNL     1      44.224  -1.033  24.814  1.00  0.00    -0.082 NA
HETATM   23  N2  UNL     1      44.577  -3.339  24.454  1.00  0.00    -0.387 N 
ATOM     24  H22 UNL     1      44.771  -3.175  23.466  1.00  0.00     0.157 HD
ATOM     25  H21 UNL     1      44.621  -4.302  24.787  1.00  0.00     0.157 HD
ENDBRANCH   1  21
TORSDOF 3
ENDMDL
