MODEL 3
REMARK VINA RESULT: -7.691800224      1.407      2.147
REMARK  3 active torsions:
REMARK  status: ('A' for Active; 'I' for Inactive)
REMARK    1  A    between atoms: C1_2  and  C2_6 
REMARK    2  A    between atoms: C6_12  and  C7_13 
REMARK    3  A    between atoms: C11_19  and  O1_20 
ROOT
HETATM    1  C2  UNL     1      44.072  -2.881  26.483  1.00  0.00     0.007 A 
HETATM    2  C3  UNL     1      44.230  -1.525  26.435  1.00  0.00     0.017 A 
HETATM    3  C4  UNL     1      44.121  -0.738  27.586  1.00  0.00     0.033 A 
HETATM    4  C5  UNL     1      43.848  -1.384  28.763  1.00  0.00     0.060 A 
HETATM    5  N3  UNL     1      43.685  -0.900  30.030  1.00  0.00    -0.339 N 
ATOM      6  H3  UNL     1      43.751   0.085  30.286  1.00  0.00     0.167 HD
HETATM    7  C6  UNL     1      43.430  -1.885  30.884  1.00  0.00     0.136 A 
HETATM    8  N5  UNL     1      43.431  -3.030  30.137  1.00  0.00    -0.339 N 
ATOM      9  H5  UNL     1      43.264  -3.967  30.504  1.00  0.00     0.167 HD
HETATM   10  C12 UNL     1      43.679  -2.743  28.864  1.00  0.00     0.061 A 
HETATM   11  C13 UNL     1      43.798  -3.484  27.694  1.00  0.00     0.046 A 
ENDROOT
BRANCH   7  12
HETATM   12  C7  UNL     1      43.193  -1.810  32.317  1.00  0.00     0.110 A 
HETATM   13  N4  UNL     1      42.238  -2.575  32.897  1.00  0.00    -0.361 N 
HETATM   14  C8  UNL     1      41.997  -2.529  34.206  1.00  0.00     0.088 A 
ATOM     15  H4  UNL     1      41.686  -3.206  32.314  1.00  0.00     0.165 HD
HETATM   16  C9  UNL     1      42.703  -1.704  35.051  1.00  0.00     0.020 A 
HETATM   17  C10 UNL     1      43.680  -0.910  34.512  1.00  0.00     0.040 A 
HETATM   18  C11 UNL     1      43.900  -0.988  33.131  1.00  0.00     0.096 A 
BRANCH  18  19
HETATM   19  O1  UNL     1      44.900  -0.163  32.647  1.00  0.00    -0.358 OA
ATOM     20  H1  UNL     1      45.810  -0.432  32.634  1.00  0.00     0.217 HD
ENDBRANCH  18  19
ENDBRANCH   7  12
BRANCH   1  21
HETATM   21  C1  UNL     1      44.186  -3.687  25.290  1.00  0.00     0.120 C 
HETATM   22  N1  UNL     1      44.223  -2.992  24.016  1.00  0.00    -0.082 NA
HETATM   23  N2  UNL     1      44.252  -4.972  25.299  1.00  0.00    -0.387 N 
ATOM     24  H22 UNL     1      44.332  -5.541  24.457  1.00  0.00     0.157 HD
ATOM     25  H21 UNL     1      44.225  -5.460  26.194  1.00  0.00     0.157 HD
ENDBRANCH   1  21
TORSDOF 3
ENDMDL
