MODEL 5
REMARK VINA RESULT: -7.518286076      1.248      1.363
REMARK  3 active torsions:
REMARK  status: ('A' for Active; 'I' for Inactive)
REMARK    1  A    between atoms: C1_2  and  C2_6 
REMARK    2  A    between atoms: C6_12  and  C7_13 
REMARK    3  A    between atoms: C11_19  and  O1_20 
ROOT
HETATM    1  C2  UNL     1      44.050  -2.594  26.450  1.00  0.00     0.007 A 
HETATM    2  C3  UNL     1      43.902  -3.865  26.929  1.00  0.00     0.017 A 
HETATM    3  C4  UNL     1      43.649  -4.108  28.284  1.00  0.00     0.033 A 
HETATM    4  C5  UNL     1      43.557  -3.018  29.108  1.00  0.00     0.060 A 
HETATM    5  N3  UNL     1      43.323  -2.932  30.451  1.00  0.00    -0.339 N 
ATOM      6  H3  UNL     1      43.174  -3.733  31.064  1.00  0.00     0.167 HD
HETATM    7  C6  UNL     1      43.315  -1.666  30.851  1.00  0.00     0.136 A 
HETATM    8  N5  UNL     1      43.552  -0.923  29.727  1.00  0.00    -0.339 N 
ATOM      9  H5  UNL     1      43.607   0.095  29.700  1.00  0.00     0.167 HD
HETATM   10  C12 UNL     1      43.699  -1.722  28.676  1.00  0.00     0.061 A 
HETATM   11  C13 UNL     1      43.949  -1.530  27.322  1.00  0.00     0.046 A 
ENDROOT
BRANCH   7  12
HETATM   12  C7  UNL     1      43.104  -1.132  32.188  1.00  0.00     0.110 A 
HETATM   13  N4  UNL     1      43.978  -1.410  33.184  1.00  0.00    -0.361 N 
HETATM   14  C8  UNL     1      43.813  -0.937  34.418  1.00  0.00     0.088 A 
ATOM     15  H4  UNL     1      44.788  -1.998  32.984  1.00  0.00     0.165 HD
HETATM   16  C9  UNL     1      42.745  -0.138  34.758  1.00  0.00     0.020 A 
HETATM   17  C10 UNL     1      41.833   0.171  33.785  1.00  0.00     0.040 A 
HETATM   18  C11 UNL     1      42.044  -0.348  32.501  1.00  0.00     0.096 A 
BRANCH  18  19
HETATM   19  O1  UNL     1      41.089   0.000  31.562  1.00  0.00    -0.358 OA
ATOM     20  H1  UNL     1      41.109  -0.341  30.675  1.00  0.00     0.217 HD
ENDBRANCH  18  19
ENDBRANCH   7  12
BRANCH   1  21
HETATM   21  C1  UNL     1      44.312  -2.352  25.050  1.00  0.00     0.120 C 
HETATM   22  N1  UNL     1      44.171  -0.987  24.572  1.00  0.00    -0.082 NA
HETATM   23  N2  UNL     1      44.657  -3.269  24.218  1.00  0.00    -0.387 N 
ATOM     24  H22 UNL     1      44.842  -3.098  23.230  1.00  0.00     0.157 HD
ATOM     25  H21 UNL     1      44.756  -4.227  24.554  1.00  0.00     0.157 HD
ENDBRANCH   1  21
TORSDOF 3
ENDMDL
