MODEL 7
REMARK VINA RESULT: -7.211000768      1.089      1.859
REMARK  3 active torsions:
REMARK  status: ('A' for Active; 'I' for Inactive)
REMARK    1  A    between atoms: C1_2  and  C2_6 
REMARK    2  A    between atoms: C6_12  and  C7_13 
REMARK    3  A    between atoms: C11_19  and  O1_20 
ROOT
HETATM    1  C2  UNL     1      44.137  -2.891  26.611  1.00  0.00     0.007 A 
HETATM    2  C3  UNL     1      44.469  -1.567  26.653  1.00  0.00     0.017 A 
HETATM    3  C4  UNL     1      44.387  -0.833  27.841  1.00  0.00     0.033 A 
HETATM    4  C5  UNL     1      43.959  -1.498  28.959  1.00  0.00     0.060 A 
HETATM    5  N3  UNL     1      43.778  -1.063  30.242  1.00  0.00    -0.339 N 
ATOM      6  H3  UNL     1      43.952  -0.110  30.559  1.00  0.00     0.167 HD
HETATM    7  C6  UNL     1      43.346  -2.049  31.020  1.00  0.00     0.136 A 
HETATM    8  N5  UNL     1      43.248  -3.144  30.207  1.00  0.00    -0.339 N 
ATOM      9  H5  UNL     1      42.941  -4.070  30.507  1.00  0.00     0.167 HD
HETATM   10  C12 UNL     1      43.613  -2.827  28.970  1.00  0.00     0.061 A 
HETATM   11  C13 UNL     1      43.711  -3.515  27.765  1.00  0.00     0.046 A 
ENDROOT
BRANCH   7  12
HETATM   12  C7  UNL     1      43.028  -2.019  32.439  1.00  0.00     0.110 A 
HETATM   13  N4  UNL     1      43.648  -1.140  33.263  1.00  0.00    -0.361 N 
HETATM   14  C8  UNL     1      43.379  -1.088  34.566  1.00  0.00     0.088 A 
ATOM     15  H4  UNL     1      44.340  -0.499  32.874  1.00  0.00     0.165 HD
HETATM   16  C9  UNL     1      42.457  -1.922  35.157  1.00  0.00     0.020 A 
HETATM   17  C10 UNL     1      41.804  -2.828  34.366  1.00  0.00     0.040 A 
HETATM   18  C11 UNL     1      42.117  -2.850  33.000  1.00  0.00     0.096 A 
BRANCH  18  19
HETATM   19  O1  UNL     1      41.424  -3.787  32.254  1.00  0.00    -0.358 OA
ATOM     20  H1  UNL     1      41.198  -4.640  32.604  1.00  0.00     0.217 HD
ENDBRANCH  18  19
ENDBRANCH   7  12
BRANCH   1  21
HETATM   21  C1  UNL     1      44.223  -3.642  25.380  1.00  0.00     0.120 C 
HETATM   22  N1  UNL     1      44.269  -2.888  24.140  1.00  0.00    -0.082 NA
HETATM   23  N2  UNL     1      44.260  -4.927  25.328  1.00  0.00    -0.387 N 
ATOM     24  H22 UNL     1      44.321  -5.457  24.459  1.00  0.00     0.157 HD
ATOM     25  H21 UNL     1      44.228  -5.457  26.199  1.00  0.00     0.157 HD
ENDBRANCH   1  21
TORSDOF 3
ENDMDL
