MODEL 12
REMARK VINA RESULT: -6.730032134      3.172      7.220
REMARK  3 active torsions:
REMARK  status: ('A' for Active; 'I' for Inactive)
REMARK    1  A    between atoms: C1_2  and  C2_6 
REMARK    2  A    between atoms: C6_12  and  C7_13 
REMARK    3  A    between atoms: C11_19  and  O1_20 
ROOT
HETATM    1  C2  UNL     1      40.198   0.105  33.141  1.00  0.00     0.007 A 
HETATM    2  C3  UNL     1      41.436   0.095  33.717  1.00  0.00     0.017 A 
HETATM    3  C4  UNL     1      42.569  -0.311  33.004  1.00  0.00     0.033 A 
HETATM    4  C5  UNL     1      42.383  -0.697  31.703  1.00  0.00     0.060 A 
HETATM    5  N3  UNL     1      43.276  -1.136  30.766  1.00  0.00    -0.339 N 
ATOM      6  H3  UNL     1      44.277  -1.242  30.927  1.00  0.00     0.167 HD
HETATM    7  C6  UNL     1      42.664  -1.407  29.619  1.00  0.00     0.136 A 
HETATM    8  N5  UNL     1      41.341  -1.132  29.832  1.00  0.00    -0.339 N 
ATOM      9  H5  UNL     1      40.603  -1.238  29.137  1.00  0.00     0.167 HD
HETATM   10  C12 UNL     1      41.161  -0.706  31.077  1.00  0.00     0.061 A 
HETATM   11  C13 UNL     1      40.064  -0.294  31.827  1.00  0.00     0.046 A 
ENDROOT
BRANCH   7  12
HETATM   12  C7  UNL     1      43.235  -1.895  28.373  1.00  0.00     0.110 A 
HETATM   13  N4  UNL     1      43.045  -3.179  27.986  1.00  0.00    -0.361 N 
HETATM   14  C8  UNL     1      43.555  -3.655  26.852  1.00  0.00     0.088 A 
ATOM     15  H4  UNL     1      42.494  -3.799  28.580  1.00  0.00     0.165 HD
HETATM   16  C9  UNL     1      44.307  -2.875  26.003  1.00  0.00     0.020 A 
HETATM   17  C10 UNL     1      44.528  -1.569  26.351  1.00  0.00     0.040 A 
HETATM   18  C11 UNL     1      43.973  -1.109  27.553  1.00  0.00     0.096 A 
BRANCH  18  19
HETATM   19  O1  UNL     1      44.231   0.218  27.849  1.00  0.00    -0.358 OA
ATOM     20  H1  UNL     1      44.381   0.864  27.169  1.00  0.00     0.217 HD
ENDBRANCH  18  19
ENDBRANCH   7  12
BRANCH   1  21
HETATM   21  C1  UNL     1      39.033   0.525  33.885  1.00  0.00     0.120 C 
HETATM   22  N1  UNL     1      39.084   1.827  34.527  1.00  0.00    -0.082 NA
HETATM   23  N2  UNL     1      37.969  -0.187  34.007  1.00  0.00    -0.387 N 
ATOM     24  H22 UNL     1      37.146   0.110  34.532  1.00  0.00     0.157 HD
ATOM     25  H21 UNL     1      37.932  -1.101  33.556  1.00  0.00     0.157 HD
ENDBRANCH   1  21
TORSDOF 3
ENDMDL
