MODEL 9
REMARK VINA RESULT: -6.935788926      2.150      7.053
REMARK  3 active torsions:
REMARK  status: ('A' for Active; 'I' for Inactive)
REMARK    1  A    between atoms: C1_2  and  C2_6 
REMARK    2  A    between atoms: C6_12  and  C7_13 
REMARK    3  A    between atoms: C11_19  and  O1_20 
ROOT
HETATM    1  C2  UNL     1      43.138  -1.319  33.830  1.00  0.00     0.007 A 
HETATM    2  C3  UNL     1      42.440  -2.493  33.806  1.00  0.00     0.017 A 
HETATM    3  C4  UNL     1      42.270  -3.216  32.620  1.00  0.00     0.033 A 
HETATM    4  C5  UNL     1      42.833  -2.697  31.485  1.00  0.00     0.060 A 
HETATM    5  N3  UNL     1      42.840  -3.160  30.200  1.00  0.00    -0.339 N 
ATOM      6  H3  UNL     1      42.391  -4.023  29.894  1.00  0.00     0.167 HD
HETATM    7  C6  UNL     1      43.510  -2.336  29.403  1.00  0.00     0.136 A 
HETATM    8  N5  UNL     1      43.943  -1.317  30.205  1.00  0.00    -0.339 N 
ATOM      9  H5  UNL     1      44.492  -0.517  29.890  1.00  0.00     0.167 HD
HETATM   10  C12 UNL     1      43.542  -1.521  31.455  1.00  0.00     0.061 A 
HETATM   11  C13 UNL     1      43.685  -0.838  32.658  1.00  0.00     0.046 A 
ENDROOT
BRANCH   7  12
HETATM   12  C7  UNL     1      43.759  -2.450  27.974  1.00  0.00     0.110 A 
HETATM   13  N4  UNL     1      43.760  -3.663  27.371  1.00  0.00    -0.361 N 
HETATM   14  C8  UNL     1      43.984  -3.800  26.066  1.00  0.00     0.088 A 
ATOM     15  H4  UNL     1      43.583  -4.496  27.933  1.00  0.00     0.165 HD
HETATM   16  C9  UNL     1      44.227  -2.721  25.247  1.00  0.00     0.020 A 
HETATM   17  C10 UNL     1      44.237  -1.472  25.810  1.00  0.00     0.040 A 
HETATM   18  C11 UNL     1      43.997  -1.373  27.187  1.00  0.00     0.096 A 
BRANCH  18  19
HETATM   19  O1  UNL     1      44.020  -0.086  27.696  1.00  0.00    -0.358 OA
ATOM     20  H1  UNL     1      44.508   0.135  28.480  1.00  0.00     0.217 HD
ENDBRANCH  18  19
ENDBRANCH   7  12
BRANCH   1  21
HETATM   21  C1  UNL     1      43.308  -0.578  35.058  1.00  0.00     0.120 C 
HETATM   22  N1  UNL     1      44.084  -1.205  36.113  1.00  0.00    -0.082 NA
HETATM   23  N2  UNL     1      42.813   0.591  35.261  1.00  0.00    -0.387 N 
ATOM     24  H22 UNL     1      42.934   1.114  36.128  1.00  0.00     0.157 HD
ATOM     25  H21 UNL     1      42.268   1.032  34.520  1.00  0.00     0.157 HD
ENDBRANCH   1  21
TORSDOF 3
ENDMDL
