MODEL 4
REMARK VINA RESULT: -7.552820233      1.924      2.574
REMARK  3 active torsions:
REMARK  status: ('A' for Active; 'I' for Inactive)
REMARK    1  A    between atoms: C1_2  and  C2_6 
REMARK    2  A    between atoms: C6_12  and  C7_13 
REMARK    3  A    between atoms: C11_19  and  O1_20 
ROOT
HETATM    1  C2  UNL     1      43.949  -2.798  26.519  1.00  0.00     0.007 A 
HETATM    2  C3  UNL     1      44.459  -1.532  26.584  1.00  0.00     0.017 A 
HETATM    3  C4  UNL     1      44.200  -0.697  27.677  1.00  0.00     0.033 A 
HETATM    4  C5  UNL     1      43.414  -1.203  28.678  1.00  0.00     0.060 A 
HETATM    5  N3  UNL     1      42.992  -0.643  29.850  1.00  0.00    -0.339 N 
ATOM      6  H3  UNL     1      43.226   0.301  30.157  1.00  0.00     0.167 HD
HETATM    7  C6  UNL     1      42.236  -1.492  30.536  1.00  0.00     0.136 A 
HETATM    8  N5  UNL     1      42.175  -2.628  29.777  1.00  0.00    -0.339 N 
ATOM      9  H5  UNL     1      41.666  -3.474  30.031  1.00  0.00     0.167 HD
HETATM   10  C12 UNL     1      42.877  -2.466  28.661  1.00  0.00     0.061 A 
HETATM   11  C13 UNL     1      43.162  -3.260  27.554  1.00  0.00     0.046 A 
ENDROOT
BRANCH   7  12
HETATM   12  C7  UNL     1      41.588  -1.301  31.824  1.00  0.00     0.110 A 
HETATM   13  N4  UNL     1      40.483  -2.013  32.151  1.00  0.00    -0.361 N 
HETATM   14  C8  UNL     1      39.868  -1.861  33.322  1.00  0.00     0.088 A 
ATOM     15  H4  UNL     1      40.112  -2.687  31.480  1.00  0.00     0.165 HD
HETATM   16  C9  UNL     1      40.314  -0.972  34.273  1.00  0.00     0.020 A 
HETATM   17  C10 UNL     1      41.428  -0.228  33.990  1.00  0.00     0.040 A 
HETATM   18  C11 UNL     1      42.045  -0.419  32.746  1.00  0.00     0.096 A 
BRANCH  18  19
HETATM   19  O1  UNL     1      43.165   0.362  32.519  1.00  0.00    -0.358 OA
ATOM     20  H1  UNL     1      43.982  -0.011  32.210  1.00  0.00     0.217 HD
ENDBRANCH  18  19
ENDBRANCH   7  12
BRANCH   1  21
HETATM   21  C1  UNL     1      44.219  -3.653  25.388  1.00  0.00     0.120 C 
HETATM   22  N1  UNL     1      44.337  -3.020  24.086  1.00  0.00    -0.082 NA
HETATM   23  N2  UNL     1      44.357  -4.929  25.473  1.00  0.00    -0.387 N 
ATOM     24  H22 UNL     1      44.548  -5.533  24.674  1.00  0.00     0.157 HD
ATOM     25  H21 UNL     1      44.274  -5.374  26.387  1.00  0.00     0.157 HD
ENDBRANCH   1  21
TORSDOF 3
ENDMDL
