MODEL 14
REMARK VINA RESULT: -6.607973860      2.062      6.999
REMARK  3 active torsions:
REMARK  status: ('A' for Active; 'I' for Inactive)
REMARK    1  A    between atoms: C1_2  and  C2_6 
REMARK    2  A    between atoms: C6_12  and  C7_13 
REMARK    3  A    between atoms: C11_19  and  O1_20 
ROOT
HETATM    1  C2  UNL     1      42.627  -0.545  33.407  1.00  0.00     0.007 A 
HETATM    2  C3  UNL     1      41.372  -0.257  32.952  1.00  0.00     0.017 A 
HETATM    3  C4  UNL     1      41.019  -0.456  31.613  1.00  0.00     0.033 A 
HETATM    4  C5  UNL     1      41.986  -0.951  30.778  1.00  0.00     0.060 A 
HETATM    5  N3  UNL     1      41.948  -1.248  29.445  1.00  0.00    -0.339 N 
ATOM      6  H3  UNL     1      41.129  -1.129  28.849  1.00  0.00     0.167 HD
HETATM    7  C6  UNL     1      43.122  -1.711  29.029  1.00  0.00     0.136 A 
HETATM    8  N5  UNL     1      43.931  -1.709  30.131  1.00  0.00    -0.339 N 
ATOM      9  H5  UNL     1      44.905  -2.011  30.142  1.00  0.00     0.167 HD
HETATM   10  C12 UNL     1      43.262  -1.256  31.186  1.00  0.00     0.061 A 
HETATM   11  C13 UNL     1      43.566  -1.041  32.526  1.00  0.00     0.046 A 
ENDROOT
BRANCH   7  12
HETATM   12  C7  UNL     1      43.511  -2.140  27.695  1.00  0.00     0.110 A 
HETATM   13  N4  UNL     1      43.928  -1.237  26.776  1.00  0.00    -0.361 N 
HETATM   14  C8  UNL     1      44.291  -1.599  25.548  1.00  0.00     0.088 A 
ATOM     15  H4  UNL     1      43.966  -0.250  27.033  1.00  0.00     0.165 HD
HETATM   16  C9  UNL     1      44.266  -2.912  25.134  1.00  0.00     0.020 A 
HETATM   17  C10 UNL     1      43.852  -3.863  26.027  1.00  0.00     0.040 A 
HETATM   18  C11 UNL     1      43.478  -3.439  27.309  1.00  0.00     0.096 A 
BRANCH  18  19
HETATM   19  O1  UNL     1      43.069  -4.446  28.165  1.00  0.00    -0.358 OA
ATOM     20  H1  UNL     1      43.187  -4.384  29.105  1.00  0.00     0.217 HD
ENDBRANCH  18  19
ENDBRANCH   7  12
BRANCH   1  21
HETATM   21  C1  UNL     1      42.984  -0.336  34.791  1.00  0.00     0.120 C 
HETATM   22  N1  UNL     1      44.011  -1.197  35.353  1.00  0.00    -0.082 NA
HETATM   23  N2  UNL     1      42.446   0.560  35.541  1.00  0.00    -0.387 N 
ATOM     24  H22 UNL     1      42.698   0.707  36.518  1.00  0.00     0.157 HD
ATOM     25  H21 UNL     1      41.725   1.164  35.146  1.00  0.00     0.157 HD
ENDBRANCH   1  21
TORSDOF 3
ENDMDL
