MODEL 11
REMARK VINA RESULT: -6.933033038      1.776      2.546
REMARK  3 active torsions:
REMARK  status: ('A' for Active; 'I' for Inactive)
REMARK    1  A    between atoms: C1_2  and  C2_6 
REMARK    2  A    between atoms: C6_12  and  C7_13 
REMARK    3  A    between atoms: C12_19  and  O1_20 
ROOT
HETATM    1  C2  UNL     1      43.994  -2.889  26.653  1.00  0.00     0.007 A 
HETATM    2  C3  UNL     1      44.202  -1.534  26.785  1.00  0.00     0.017 A 
HETATM    3  C4  UNL     1      43.955  -0.818  27.921  1.00  0.00     0.033 A 
HETATM    4  C5  UNL     1      43.465  -1.470  29.029  1.00  0.00     0.060 A 
HETATM    5  N3  UNL     1      43.115  -1.108  30.277  1.00  0.00    -0.340 N 
ATOM      6  H3  UNL     1      43.171  -0.156  30.636  1.00  0.00     0.167 HD
HETATM    7  C6  UNL     1      42.681  -2.163  30.992  1.00  0.00     0.119 A 
HETATM    8  N4  UNL     1      42.758  -3.211  30.180  1.00  0.00    -0.340 N 
ATOM      9  H4  UNL     1      42.499  -4.164  30.431  1.00  0.00     0.167 HD
HETATM   10  C13 UNL     1      43.236  -2.826  28.960  1.00  0.00     0.061 A 
HETATM   11  C14 UNL     1      43.497  -3.517  27.792  1.00  0.00     0.046 A 
ENDROOT
BRANCH   7  12
HETATM   12  C7  UNL     1      42.237  -2.067  32.376  1.00  0.00     0.044 A 
HETATM   13  C8  UNL     1      43.029  -1.610  33.400  1.00  0.00     0.060 A 
HETATM   14  C9  UNL     1      42.579  -1.529  34.705  1.00  0.00     0.117 A 
HETATM   15  F1  UNL     1      43.353  -1.080  35.720  1.00  0.00    -0.206 F 
HETATM   16  C10 UNL     1      41.295  -1.914  35.023  1.00  0.00     0.045 A 
HETATM   17  C11 UNL     1      40.485  -2.375  34.012  1.00  0.00     0.040 A 
HETATM   18  C12 UNL     1      40.953  -2.452  32.692  1.00  0.00     0.079 A 
BRANCH  18  19
HETATM   19  O1  UNL     1      40.143  -2.916  31.665  1.00  0.00    -0.360 OA
ATOM     20  H1  UNL     1      39.203  -2.839  31.771  1.00  0.00     0.217 HD
ENDBRANCH  18  19
ENDBRANCH   7  12
BRANCH   1  21
HETATM   21  C1  UNL     1      44.252  -3.655  25.453  1.00  0.00     0.120 C 
HETATM   22  N1  UNL     1      44.380  -2.964  24.220  1.00  0.00    -0.082 NA
HETATM   23  N2  UNL     1      44.367  -4.928  25.478  1.00  0.00    -0.387 N 
ATOM     24  H22 UNL     1      44.549  -5.468  24.632  1.00  0.00     0.157 HD
ATOM     25  H21 UNL     1      44.275  -5.425  26.364  1.00  0.00     0.157 HD
ENDBRANCH   1  21
TORSDOF 3
ENDMDL
