MODEL 3
REMARK VINA RESULT: -7.475832354      3.288      7.156
REMARK  3 active torsions:
REMARK  status: ('A' for Active; 'I' for Inactive)
REMARK    1  A    between atoms: C1_2  and  C2_6 
REMARK    2  A    between atoms: C6_12  and  C7_13 
REMARK    3  A    between atoms: C12_19  and  O1_20 
ROOT
HETATM    1  C2  UNL     1      43.289  -1.021  33.992  1.00  0.00     0.007 A 
HETATM    2  C3  UNL     1      42.666  -2.249  33.947  1.00  0.00     0.017 A 
HETATM    3  C4  UNL     1      42.530  -3.011  32.822  1.00  0.00     0.033 A 
HETATM    4  C5  UNL     1      43.042  -2.544  31.634  1.00  0.00     0.060 A 
HETATM    5  N3  UNL     1      43.096  -2.999  30.369  1.00  0.00    -0.340 N 
ATOM      6  H3  UNL     1      42.706  -3.890  30.062  1.00  0.00     0.167 HD
HETATM    7  C6  UNL     1      43.728  -2.130  29.559  1.00  0.00     0.119 A 
HETATM    8  N4  UNL     1      44.082  -1.107  30.326  1.00  0.00    -0.340 N 
ATOM      9  H4  UNL     1      44.583  -0.280  30.003  1.00  0.00     0.167 HD
HETATM   10  C13 UNL     1      43.676  -1.321  31.613  1.00  0.00     0.061 A 
HETATM   11  C14 UNL     1      43.794  -0.579  32.772  1.00  0.00     0.046 A 
ENDROOT
BRANCH   7  12
HETATM   12  C7  UNL     1      43.934  -2.363  28.135  1.00  0.00     0.044 A 
HETATM   13  C8  UNL     1      44.040  -3.612  27.575  1.00  0.00     0.060 A 
HETATM   14  C9  UNL     1      44.234  -3.802  26.219  1.00  0.00     0.117 A 
HETATM   15  F1  UNL     1      44.341  -5.028  25.658  1.00  0.00    -0.206 F 
HETATM   16  C10 UNL     1      44.329  -2.718  25.372  1.00  0.00     0.045 A 
HETATM   17  C11 UNL     1      44.225  -1.458  25.913  1.00  0.00     0.040 A 
HETATM   18  C12 UNL     1      44.028  -1.280  27.290  1.00  0.00     0.079 A 
BRANCH  18  19
HETATM   19  O1  UNL     1      43.922  -0.012  27.845  1.00  0.00    -0.360 OA
ATOM     20  H1  UNL     1      44.417   0.691  27.445  1.00  0.00     0.217 HD
ENDBRANCH  18  19
ENDBRANCH   7  12
BRANCH   1  21
HETATM   21  C1  UNL     1      43.437  -0.209  35.179  1.00  0.00     0.120 C 
HETATM   22  N1  UNL     1      42.765   1.040  35.236  1.00  0.00    -0.082 NA
HETATM   23  N2  UNL     1      44.152  -0.586  36.170  1.00  0.00    -0.387 N 
ATOM     24  H22 UNL     1      44.256  -0.012  37.006  1.00  0.00     0.157 HD
ATOM     25  H21 UNL     1      44.635  -1.483  36.128  1.00  0.00     0.157 HD
ENDBRANCH   1  21
TORSDOF 3
ENDMDL
