MODEL 1
REMARK VINA RESULT: -7.913937002      0.000      0.000
REMARK  3 active torsions:
REMARK  status: ('A' for Active; 'I' for Inactive)
REMARK    1  A    between atoms: C1_2  and  C2_6 
REMARK    2  A    between atoms: C6_12  and  C7_13 
REMARK    3  A    between atoms: C12_19  and  O1_20 
ROOT
HETATM    1  C2  UNL     1      44.109  -2.738  26.695  1.00  0.00     0.007 A 
HETATM    2  C3  UNL     1      43.897  -3.990  27.227  1.00  0.00     0.017 A 
HETATM    3  C4  UNL     1      43.677  -4.244  28.551  1.00  0.00     0.033 A 
HETATM    4  C5  UNL     1      43.661  -3.193  29.439  1.00  0.00     0.060 A 
HETATM    5  N3  UNL     1      43.483  -3.063  30.766  1.00  0.00    -0.340 N 
ATOM      6  H3  UNL     1      43.307  -3.841  31.401  1.00  0.00     0.167 HD
HETATM    7  C6  UNL     1      43.566  -1.776  31.151  1.00  0.00     0.119 A 
HETATM    8  N4  UNL     1      43.801  -1.079  30.045  1.00  0.00    -0.340 N 
ATOM      9  H4  UNL     1      43.915  -0.067  30.006  1.00  0.00     0.167 HD
HETATM   10  C13 UNL     1      43.868  -1.916  28.967  1.00  0.00     0.061 A 
HETATM   11  C14 UNL     1      44.087  -1.698  27.621  1.00  0.00     0.046 A 
ENDROOT
BRANCH   7  12
HETATM   12  C7  UNL     1      43.412  -1.339  32.532  1.00  0.00     0.044 A 
HETATM   13  C8  UNL     1      42.434  -1.807  33.375  1.00  0.00     0.060 A 
HETATM   14  C9  UNL     1      42.314  -1.374  34.682  1.00  0.00     0.117 A 
HETATM   15  F1  UNL     1      41.354  -1.829  35.520  1.00  0.00    -0.206 F 
HETATM   16  C10 UNL     1      43.190  -0.438  35.188  1.00  0.00     0.045 A 
HETATM   17  C11 UNL     1      44.176   0.045  34.360  1.00  0.00     0.040 A 
HETATM   18  C12 UNL     1      44.288  -0.404  33.036  1.00  0.00     0.079 A 
BRANCH  18  19
HETATM   19  O1  UNL     1      45.280   0.077  32.193  1.00  0.00    -0.360 OA
ATOM     20  H1  UNL     1      45.353   1.017  32.083  1.00  0.00     0.217 HD
ENDBRANCH  18  19
ENDBRANCH   7  12
BRANCH   1  21
HETATM   21  C1  UNL     1      44.343  -2.461  25.294  1.00  0.00     0.120 C 
HETATM   22  N1  UNL     1      44.277  -1.116  24.847  1.00  0.00    -0.082 NA
HETATM   23  N2  UNL     1      44.605  -3.391  24.457  1.00  0.00    -0.387 N 
ATOM     24  H22 UNL     1      44.769  -3.196  23.470  1.00  0.00     0.157 HD
ATOM     25  H21 UNL     1      44.651  -4.358  24.779  1.00  0.00     0.157 HD
ENDBRANCH   1  21
TORSDOF 3
ENDMDL
