MODEL 10
REMARK VINA RESULT: -6.946785100      3.391      7.311
REMARK  3 active torsions:
REMARK  status: ('A' for Active; 'I' for Inactive)
REMARK    1  A    between atoms: C1_2  and  C2_6 
REMARK    2  A    between atoms: C6_12  and  C7_13 
REMARK    3  A    between atoms: C12_19  and  O1_20 
ROOT
HETATM    1  C2  UNL     1      42.228  -1.552  33.849  1.00  0.00     0.007 A 
HETATM    2  C3  UNL     1      41.419  -0.586  33.294  1.00  0.00     0.017 A 
HETATM    3  C4  UNL     1      41.344  -0.309  31.959  1.00  0.00     0.033 A 
HETATM    4  C5  UNL     1      42.121  -1.031  31.082  1.00  0.00     0.060 A 
HETATM    5  N3  UNL     1      42.307  -1.040  29.750  1.00  0.00    -0.340 N 
ATOM      6  H3  UNL     1      41.827  -0.419  29.099  1.00  0.00     0.167 HD
HETATM    7  C6  UNL     1      43.207  -1.971  29.384  1.00  0.00     0.119 A 
HETATM    8  N4  UNL     1      43.597  -2.563  30.506  1.00  0.00    -0.340 N 
ATOM      9  H4  UNL     1      44.279  -3.319  30.562  1.00  0.00     0.167 HD
HETATM   10  C13 UNL     1      42.952  -2.012  31.577  1.00  0.00     0.061 A 
HETATM   11  C14 UNL     1      43.001  -2.263  32.935  1.00  0.00     0.046 A 
ENDROOT
BRANCH   7  12
HETATM   12  C7  UNL     1      43.604  -2.205  28.002  1.00  0.00     0.044 A 
HETATM   13  C8  UNL     1      43.637  -3.447  27.418  1.00  0.00     0.060 A 
HETATM   14  C9  UNL     1      44.018  -3.637  26.103  1.00  0.00     0.117 A 
HETATM   15  F1  UNL     1      44.054  -4.857  25.519  1.00  0.00    -0.206 F 
HETATM   16  C10 UNL     1      44.384  -2.562  25.322  1.00  0.00     0.045 A 
HETATM   17  C11 UNL     1      44.358  -1.309  25.888  1.00  0.00     0.040 A 
HETATM   18  C12 UNL     1      43.970  -1.129  27.224  1.00  0.00     0.079 A 
BRANCH  18  19
HETATM   19  O1  UNL     1      43.940   0.131  27.803  1.00  0.00    -0.360 OA
ATOM     20  H1  UNL     1      43.219   0.336  28.386  1.00  0.00     0.217 HD
ENDBRANCH  18  19
ENDBRANCH   7  12
BRANCH   1  21
HETATM   21  C1  UNL     1      42.313  -1.850  35.262  1.00  0.00     0.120 C 
HETATM   22  N1  UNL     1      41.365  -2.743  35.827  1.00  0.00    -0.082 NA
HETATM   23  N2  UNL     1      43.214  -1.333  36.008  1.00  0.00    -0.387 N 
ATOM     24  H22 UNL     1      43.273  -1.544  37.004  1.00  0.00     0.157 HD
ATOM     25  H21 UNL     1      43.895  -0.691  35.602  1.00  0.00     0.157 HD
ENDBRANCH   1  21
TORSDOF 3
ENDMDL
