MODEL 4
REMARK VINA RESULT: -7.470946070      1.256      1.850
REMARK  3 active torsions:
REMARK  status: ('A' for Active; 'I' for Inactive)
REMARK    1  A    between atoms: C1_2  and  C2_6 
REMARK    2  A    between atoms: C6_12  and  C7_13 
REMARK    3  A    between atoms: C12_19  and  O1_20 
ROOT
HETATM    1  C2  UNL     1      44.250  -2.924  26.627  1.00  0.00     0.007 A 
HETATM    2  C3  UNL     1      44.854  -1.708  26.856  1.00  0.00     0.017 A 
HETATM    3  C4  UNL     1      44.847  -1.050  28.053  1.00  0.00     0.033 A 
HETATM    4  C5  UNL     1      44.197  -1.619  29.124  1.00  0.00     0.060 A 
HETATM    5  N3  UNL     1      43.987  -1.278  30.409  1.00  0.00    -0.340 N 
ATOM      6  H3  UNL     1      44.329  -0.419  30.839  1.00  0.00     0.167 HD
HETATM    7  C6  UNL     1      43.266  -2.213  31.055  1.00  0.00     0.119 A 
HETATM    8  N4  UNL     1      43.017  -3.163  30.162  1.00  0.00    -0.340 N 
ATOM      9  H4  UNL     1      42.488  -4.015  30.348  1.00  0.00     0.167 HD
HETATM   10  C13 UNL     1      43.573  -2.835  28.958  1.00  0.00     0.061 A 
HETATM   11  C14 UNL     1      43.602  -3.471  27.732  1.00  0.00     0.046 A 
ENDROOT
BRANCH   7  12
HETATM   12  C7  UNL     1      42.888  -2.108  32.458  1.00  0.00     0.044 A 
HETATM   13  C8  UNL     1      42.665  -3.192  33.270  1.00  0.00     0.060 A 
HETATM   14  C9  UNL     1      42.308  -3.060  34.599  1.00  0.00     0.117 A 
HETATM   15  F1  UNL     1      42.085  -4.122  35.408  1.00  0.00    -0.206 F 
HETATM   16  C10 UNL     1      42.162  -1.809  35.160  1.00  0.00     0.045 A 
HETATM   17  C11 UNL     1      42.381  -0.710  34.363  1.00  0.00     0.040 A 
HETATM   18  C12 UNL     1      42.743  -0.857  33.016  1.00  0.00     0.079 A 
BRANCH  18  19
HETATM   19  O1  UNL     1      42.966   0.246  32.204  1.00  0.00    -0.360 OA
ATOM     20  H1  UNL     1      42.234   0.825  32.030  1.00  0.00     0.217 HD
ENDBRANCH  18  19
ENDBRANCH   7  12
BRANCH   1  21
HETATM   21  C1  UNL     1      44.253  -3.626  25.363  1.00  0.00     0.120 C 
HETATM   22  N1  UNL     1      44.314  -2.869  24.165  1.00  0.00    -0.082 NA
HETATM   23  N2  UNL     1      44.203  -4.902  25.300  1.00  0.00    -0.387 N 
ATOM     24  H22 UNL     1      44.205  -5.397  24.409  1.00  0.00     0.157 HD
ATOM     25  H21 UNL     1      44.160  -5.447  26.162  1.00  0.00     0.157 HD
ENDBRANCH   1  21
TORSDOF 3
ENDMDL
