MODEL 6
REMARK VINA RESULT: -7.361903714      1.671      2.240
REMARK  3 active torsions:
REMARK  status: ('A' for Active; 'I' for Inactive)
REMARK    1  A    between atoms: C1_2  and  C2_6 
REMARK    2  A    between atoms: C6_12  and  C7_13 
REMARK    3  A    between atoms: C12_19  and  O1_20 
ROOT
HETATM    1  C2  UNL     1      44.250  -2.911  26.600  1.00  0.00     0.007 A 
HETATM    2  C3  UNL     1      44.912  -1.727  26.834  1.00  0.00     0.017 A 
HETATM    3  C4  UNL     1      44.891  -1.047  28.019  1.00  0.00     0.033 A 
HETATM    4  C5  UNL     1      44.165  -1.558  29.069  1.00  0.00     0.060 A 
HETATM    5  N3  UNL     1      43.920  -1.181  30.338  1.00  0.00    -0.340 N 
ATOM      6  H3  UNL     1      44.292  -0.335  30.768  1.00  0.00     0.167 HD
HETATM    7  C6  UNL     1      43.120  -2.062  30.967  1.00  0.00     0.119 A 
HETATM    8  N4  UNL     1      42.855  -3.013  30.080  1.00  0.00    -0.340 N 
ATOM      9  H4  UNL     1      42.271  -3.830  30.257  1.00  0.00     0.167 HD
HETATM   10  C13 UNL     1      43.480  -2.740  28.897  1.00  0.00     0.061 A 
HETATM   11  C14 UNL     1      43.525  -3.400  27.683  1.00  0.00     0.046 A 
ENDROOT
BRANCH   7  12
HETATM   12  C7  UNL     1      42.689  -1.908  32.350  1.00  0.00     0.044 A 
HETATM   13  C8  UNL     1      42.259  -0.720  32.888  1.00  0.00     0.060 A 
HETATM   14  C9  UNL     1      41.856  -0.606  34.205  1.00  0.00     0.117 A 
HETATM   15  F1  UNL     1      41.431   0.560  34.743  1.00  0.00    -0.206 F 
HETATM   16  C10 UNL     1      41.874  -1.706  35.036  1.00  0.00     0.045 A 
HETATM   17  C11 UNL     1      42.301  -2.906  34.518  1.00  0.00     0.040 A 
HETATM   18  C12 UNL     1      42.708  -3.009  33.179  1.00  0.00     0.079 A 
BRANCH  18  19
HETATM   19  O1  UNL     1      43.140  -4.215  32.647  1.00  0.00    -0.360 OA
ATOM     20  H1  UNL     1      43.985  -4.232  32.214  1.00  0.00     0.217 HD
ENDBRANCH  18  19
ENDBRANCH   7  12
BRANCH   1  21
HETATM   21  C1  UNL     1      44.267  -3.637  25.348  1.00  0.00     0.120 C 
HETATM   22  N1  UNL     1      44.310  -2.901  24.136  1.00  0.00    -0.082 NA
HETATM   23  N2  UNL     1      44.245  -4.915  25.310  1.00  0.00    -0.387 N 
ATOM     24  H22 UNL     1      44.257  -5.426  24.428  1.00  0.00     0.157 HD
ATOM     25  H21 UNL     1      44.214  -5.444  26.181  1.00  0.00     0.157 HD
ENDBRANCH   1  21
TORSDOF 3
ENDMDL
