MODEL 9
REMARK VINA RESULT: -7.214918071      2.137      2.735
REMARK  3 active torsions:
REMARK  status: ('A' for Active; 'I' for Inactive)
REMARK    1  A    between atoms: C1_2  and  C2_6 
REMARK    2  A    between atoms: C6_12  and  C7_13 
REMARK    3  A    between atoms: C12_19  and  O1_20 
ROOT
HETATM    1  C2  UNL     1      43.978  -2.806  26.611  1.00  0.00     0.007 A 
HETATM    2  C3  UNL     1      44.472  -1.531  26.773  1.00  0.00     0.017 A 
HETATM    3  C4  UNL     1      44.159  -0.702  27.812  1.00  0.00     0.033 A 
HETATM    4  C5  UNL     1      43.291  -1.146  28.782  1.00  0.00     0.060 A 
HETATM    5  N3  UNL     1      42.769  -0.631  29.910  1.00  0.00    -0.340 N 
ATOM      6  H3  UNL     1      42.973   0.304  30.263  1.00  0.00     0.167 HD
HETATM    7  C6  UNL     1      41.944  -1.505  30.516  1.00  0.00     0.119 A 
HETATM    8  N4  UNL     1      41.945  -2.594  29.757  1.00  0.00    -0.340 N 
ATOM      9  H4  UNL     1      41.413  -3.441  29.951  1.00  0.00     0.167 HD
HETATM   10  C13 UNL     1      42.762  -2.414  28.677  1.00  0.00     0.061 A 
HETATM   11  C14 UNL     1      43.102  -3.223  27.610  1.00  0.00     0.046 A 
ENDROOT
BRANCH   7  12
HETATM   12  C7  UNL     1      41.240  -1.216  31.758  1.00  0.00     0.044 A 
HETATM   13  C8  UNL     1      41.499  -1.851  32.947  1.00  0.00     0.060 A 
HETATM   14  C9  UNL     1      40.813  -1.553  34.110  1.00  0.00     0.117 A 
HETATM   15  F1  UNL     1      41.062  -2.174  35.287  1.00  0.00    -0.206 F 
HETATM   16  C10 UNL     1      39.827  -0.590  34.109  1.00  0.00     0.045 A 
HETATM   17  C11 UNL     1      39.551   0.058  32.929  1.00  0.00     0.040 A 
HETATM   18  C12 UNL     1      40.255  -0.253  31.755  1.00  0.00     0.079 A 
BRANCH  18  19
HETATM   19  O1  UNL     1      39.983   0.395  30.559  1.00  0.00    -0.360 OA
ATOM     20  H1  UNL     1      40.717   0.734  30.060  1.00  0.00     0.217 HD
ENDBRANCH  18  19
ENDBRANCH   7  12
BRANCH   1  21
HETATM   21  C1  UNL     1      44.304  -3.689  25.513  1.00  0.00     0.120 C 
HETATM   22  N1  UNL     1      44.388  -3.145  24.205  1.00  0.00    -0.082 NA
HETATM   23  N2  UNL     1      44.517  -4.937  25.692  1.00  0.00    -0.387 N 
ATOM     24  H22 UNL     1      44.747  -5.559  24.917  1.00  0.00     0.157 HD
ATOM     25  H21 UNL     1      44.456  -5.328  26.632  1.00  0.00     0.157 HD
ENDBRANCH   1  21
TORSDOF 3
ENDMDL
