MODEL 12
REMARK VINA RESULT: -6.913856816      3.427      7.180
REMARK  3 active torsions:
REMARK  status: ('A' for Active; 'I' for Inactive)
REMARK    1  A    between atoms: C1_2  and  C2_6 
REMARK    2  A    between atoms: C6_12  and  C7_13 
REMARK    3  A    between atoms: C12_19  and  O1_20 
ROOT
HETATM    1  C2  UNL     1      41.622  -0.696  33.455  1.00  0.00     0.007 A 
HETATM    2  C3  UNL     1      42.303  -1.857  33.744  1.00  0.00     0.017 A 
HETATM    3  C4  UNL     1      42.954  -2.625  32.821  1.00  0.00     0.033 A 
HETATM    4  C5  UNL     1      42.945  -2.236  31.501  1.00  0.00     0.060 A 
HETATM    5  N3  UNL     1      43.457  -2.720  30.355  1.00  0.00    -0.340 N 
ATOM      6  H3  UNL     1      44.009  -3.575  30.289  1.00  0.00     0.167 HD
HETATM    7  C6  UNL     1      43.149  -1.934  29.307  1.00  0.00     0.119 A 
HETATM    8  N4  UNL     1      42.430  -0.934  29.800  1.00  0.00    -0.340 N 
ATOM      9  H4  UNL     1      42.044  -0.166  29.251  1.00  0.00     0.167 HD
HETATM   10  C13 UNL     1      42.280  -1.082  31.149  1.00  0.00     0.061 A 
HETATM   11  C14 UNL     1      41.632  -0.331  32.112  1.00  0.00     0.046 A 
ENDROOT
BRANCH   7  12
HETATM   12  C7  UNL     1      43.572  -2.215  27.942  1.00  0.00     0.044 A 
HETATM   13  C8  UNL     1      43.599  -3.474  27.396  1.00  0.00     0.060 A 
HETATM   14  C9  UNL     1      44.005  -3.709  26.095  1.00  0.00     0.117 A 
HETATM   15  F1  UNL     1      44.035  -4.947  25.549  1.00  0.00    -0.206 F 
HETATM   16  C10 UNL     1      44.405  -2.663  25.292  1.00  0.00     0.045 A 
HETATM   17  C11 UNL     1      44.386  -1.393  25.819  1.00  0.00     0.040 A 
HETATM   18  C12 UNL     1      43.972  -1.168  27.140  1.00  0.00     0.079 A 
BRANCH  18  19
HETATM   19  O1  UNL     1      43.949   0.109  27.681  1.00  0.00    -0.360 OA
ATOM     20  H1  UNL     1      43.771   0.196  28.610  1.00  0.00     0.217 HD
ENDBRANCH  18  19
ENDBRANCH   7  12
BRANCH   1  21
HETATM   21  C1  UNL     1      40.930   0.122  34.427  1.00  0.00     0.120 C 
HETATM   22  N1  UNL     1      41.686   1.031  35.212  1.00  0.00    -0.082 NA
HETATM   23  N2  UNL     1      39.665   0.047  34.593  1.00  0.00    -0.387 N 
ATOM     24  H22 UNL     1      39.177   0.624  35.279  1.00  0.00     0.157 HD
ATOM     25  H21 UNL     1      39.121  -0.607  34.029  1.00  0.00     0.157 HD
ENDBRANCH   1  21
TORSDOF 3
ENDMDL
