MODEL 14
REMARK VINA RESULT: -7.319097364      2.818      4.849
REMARK  7 active torsions:
REMARK  status: ('A' for Active; 'I' for Inactive)
REMARK    1  A    between atoms: C1_2  and  C2_6 
REMARK    2  A    between atoms: C6_12  and  C7_13 
REMARK    3  A    between atoms: C9_15  and  C10_16 
REMARK    4  A    between atoms: C10_16  and  C11_17 
REMARK    5  A    between atoms: C11_17  and  N4_18 
REMARK    6  A    between atoms: C13_23  and  C14_24 
REMARK    7  A    between atoms: C20_30  and  O1_31 
ROOT
HETATM    1  C7  UNL     1      44.269   0.761  34.949  1.00  0.00     0.043 A 
HETATM    2  C8  UNL     1      45.529   0.312  35.366  1.00  0.00     0.025 A 
HETATM    3  C9  UNL     1      46.173   0.832  36.460  1.00  0.00    -0.055 A 
HETATM    4  C12 UNL     1      45.530   1.829  37.150  1.00  0.00     0.022 A 
HETATM    5  C13 UNL     1      44.276   2.324  36.791  1.00  0.00     0.009 A 
HETATM    6  C20 UNL     1      43.681   1.760  35.682  1.00  0.00     0.090 A 
ENDROOT
BRANCH   1   7
HETATM    7  C6  UNL     1      43.643   0.154  33.768  1.00  0.00     0.119 A 
HETATM    8  N3  UNL     1      42.365  -0.093  33.506  1.00  0.00    -0.340 N 
HETATM    9  C5  UNL     1      42.228  -0.671  32.280  1.00  0.00     0.060 A 
ATOM     10  H3  UNL     1      41.592   0.121  34.136  1.00  0.00     0.167 HD
HETATM   11  C4  UNL     1      41.140  -1.107  31.567  1.00  0.00     0.033 A 
HETATM   12  C21 UNL     1      43.500  -0.781  31.771  1.00  0.00     0.061 A 
HETATM   13  C3  UNL     1      41.326  -1.669  30.309  1.00  0.00     0.017 A 
HETATM   14  C2  UNL     1      42.575  -1.802  29.755  1.00  0.00     0.007 A 
HETATM   15  C22 UNL     1      43.649  -1.341  30.524  1.00  0.00     0.046 A 
HETATM   16  N5  UNL     1      44.354  -0.276  32.683  1.00  0.00    -0.340 N 
ATOM     17  H5  UNL     1      45.367  -0.224  32.580  1.00  0.00     0.167 HD
BRANCH  14  18
HETATM   18  C1  UNL     1      42.810  -2.383  28.443  1.00  0.00     0.120 C 
HETATM   19  N1  UNL     1      42.133  -3.606  28.122  1.00  0.00    -0.082 NA
HETATM   20  N2  UNL     1      43.582  -1.848  27.597  1.00  0.00    -0.387 N 
ATOM     21  H22 UNL     1      43.746  -2.256  26.677  1.00  0.00     0.157 HD
ATOM     22  H21 UNL     1      44.064  -0.978  27.826  1.00  0.00     0.157 HD
ENDBRANCH  14  18
ENDBRANCH   1   7
BRANCH   6  23
HETATM   23  O1  UNL     1      42.442   2.239  35.309  1.00  0.00    -0.359 OA
ATOM     24  H1  UNL     1      42.211   3.140  35.499  1.00  0.00     0.217 HD
ENDBRANCH   6  23
BRANCH   3  25
HETATM   25  C10 UNL     1      47.499   0.387  36.932  1.00  0.00     0.066 C 
BRANCH  25  26
HETATM   26  C11 UNL     1      48.382  -0.087  35.801  1.00  0.00     0.234 C 
BRANCH  26  27
HETATM   27  N4  UNL     1      48.615  -1.516  36.034  1.00  0.00    -0.079 N 
ATOM     28  H43 UNL     1      47.864  -1.969  36.554  1.00  0.00     0.274 HD
ATOM     29  H42 UNL     1      48.541  -2.081  35.188  1.00  0.00     0.274 HD
ATOM     30  H41 UNL     1      49.525  -1.587  36.490  1.00  0.00     0.274 HD
ENDBRANCH  26  27
ENDBRANCH  25  26
ENDBRANCH   3  25
BRANCH   5  31
HETATM   31  C14 UNL     1      43.642   3.372  37.598  1.00  0.00    -0.023 A 
HETATM   32  C15 UNL     1      43.695   4.697  37.303  1.00  0.00     0.012 A 
HETATM   33  C16 UNL     1      43.073   5.592  38.147  1.00  0.00     0.001 A 
HETATM   34  C17 UNL     1      42.400   5.182  39.280  1.00  0.00     0.000 A 
HETATM   35  C18 UNL     1      42.344   3.841  39.584  1.00  0.00     0.001 A 
HETATM   36  C19 UNL     1      42.965   2.935  38.743  1.00  0.00     0.012 A 
ENDBRANCH   5  31
TORSDOF 7
ENDMDL
