MODEL 13
REMARK VINA RESULT: -7.358486186      3.684      8.093
REMARK  7 active torsions:
REMARK  status: ('A' for Active; 'I' for Inactive)
REMARK    1  A    between atoms: C1_2  and  C2_6 
REMARK    2  A    between atoms: C6_12  and  C7_13 
REMARK    3  A    between atoms: C9_15  and  C10_16 
REMARK    4  A    between atoms: C10_16  and  C11_17 
REMARK    5  A    between atoms: C11_17  and  N4_18 
REMARK    6  A    between atoms: C13_23  and  C14_24 
REMARK    7  A    between atoms: C20_30  and  O1_31 
ROOT
HETATM    1  C7  UNL     1      41.766  -2.146  31.718  1.00  0.00     0.043 A 
HETATM    2  C8  UNL     1      42.075  -3.376  32.314  1.00  0.00     0.025 A 
HETATM    3  C9  UNL     1      42.821  -4.337  31.680  1.00  0.00    -0.055 A 
HETATM    4  C12 UNL     1      43.267  -4.049  30.415  1.00  0.00     0.022 A 
HETATM    5  C13 UNL     1      42.998  -2.846  29.761  1.00  0.00     0.009 A 
HETATM    6  C20 UNL     1      42.243  -1.921  30.451  1.00  0.00     0.090 A 
ENDROOT
BRANCH   1   7
HETATM    7  C6  UNL     1      40.963  -1.167  32.460  1.00  0.00     0.119 A 
HETATM    8  N3  UNL     1      41.195  -0.573  33.625  1.00  0.00    -0.340 N 
HETATM    9  C5  UNL     1      40.177   0.273  33.945  1.00  0.00     0.060 A 
ATOM     10  H3  UNL     1      42.022  -0.730  34.201  1.00  0.00     0.167 HD
HETATM   11  C4  UNL     1      39.947   1.099  35.016  1.00  0.00     0.033 A 
HETATM   12  C21 UNL     1      39.275   0.186  32.911  1.00  0.00     0.061 A 
HETATM   13  C3  UNL     1      38.785   1.860  35.058  1.00  0.00     0.017 A 
HETATM   14  C2  UNL     1      37.852   1.810  34.052  1.00  0.00     0.007 A 
HETATM   15  C22 UNL     1      38.136   0.952  32.984  1.00  0.00     0.046 A 
HETATM   16  N5  UNL     1      39.762  -0.693  32.013  1.00  0.00    -0.340 N 
ATOM     17  H5  UNL     1      39.307  -0.961  31.141  1.00  0.00     0.167 HD
BRANCH  14  18
HETATM   18  C1  UNL     1      36.625   2.590  34.059  1.00  0.00     0.120 C 
HETATM   19  N1  UNL     1      36.616   3.817  34.801  1.00  0.00    -0.082 NA
HETATM   20  N2  UNL     1      35.587   2.219  33.440  1.00  0.00    -0.387 N 
ATOM     21  H22 UNL     1      34.726   2.766  33.445  1.00  0.00     0.157 HD
ATOM     22  H21 UNL     1      35.593   1.346  32.912  1.00  0.00     0.157 HD
ENDBRANCH  14  18
ENDBRANCH   1   7
BRANCH   6  23
HETATM   23  O1  UNL     1      41.963  -0.726  29.820  1.00  0.00    -0.359 OA
ATOM     24  H1  UNL     1      42.189  -0.616  28.905  1.00  0.00     0.217 HD
ENDBRANCH   6  23
BRANCH   3  25
HETATM   25  C10 UNL     1      43.167  -5.643  32.272  1.00  0.00     0.066 C 
BRANCH  25  26
HETATM   26  C11 UNL     1      44.008  -6.490  31.345  1.00  0.00     0.234 C 
BRANCH  26  27
HETATM   27  N4  UNL     1      45.171  -6.923  32.126  1.00  0.00    -0.079 N 
ATOM     28  H43 UNL     1      46.016  -7.036  31.565  1.00  0.00     0.274 HD
ATOM     29  H42 UNL     1      45.531  -6.201  32.750  1.00  0.00     0.274 HD
ATOM     30  H41 UNL     1      44.890  -7.775  32.611  1.00  0.00     0.274 HD
ENDBRANCH  26  27
ENDBRANCH  25  26
ENDBRANCH   3  25
BRANCH   5  31
HETATM   31  C14 UNL     1      43.536  -2.604  28.418  1.00  0.00    -0.023 A 
HETATM   32  C15 UNL     1      44.216  -1.483  28.061  1.00  0.00     0.012 A 
HETATM   33  C16 UNL     1      44.660  -1.361  26.761  1.00  0.00     0.001 A 
HETATM   34  C17 UNL     1      44.435  -2.341  25.816  1.00  0.00     0.000 A 
HETATM   35  C18 UNL     1      43.747  -3.479  26.173  1.00  0.00     0.001 A 
HETATM   36  C19 UNL     1      43.297  -3.610  27.475  1.00  0.00     0.012 A 
ENDBRANCH   5  31
TORSDOF 7
ENDMDL
