MODEL 1
REMARK VINA RESULT: -8.328109160      0.000      0.000
REMARK  7 active torsions:
REMARK  status: ('A' for Active; 'I' for Inactive)
REMARK    1  A    between atoms: C1_2  and  C2_6 
REMARK    2  A    between atoms: C6_12  and  C7_13 
REMARK    3  A    between atoms: C9_15  and  C10_16 
REMARK    4  A    between atoms: C10_16  and  C11_17 
REMARK    5  A    between atoms: C11_17  and  N4_18 
REMARK    6  A    between atoms: C13_23  and  C14_24 
REMARK    7  A    between atoms: C20_30  and  O1_31 
ROOT
HETATM    1  C7  UNL     1      42.940  -1.943  32.184  1.00  0.00     0.043 A 
HETATM    2  C8  UNL     1      42.481  -3.125  32.781  1.00  0.00     0.025 A 
HETATM    3  C9  UNL     1      42.183  -3.209  34.117  1.00  0.00    -0.055 A 
HETATM    4  C12 UNL     1      42.350  -2.073  34.869  1.00  0.00     0.022 A 
HETATM    5  C13 UNL     1      42.801  -0.863  34.340  1.00  0.00     0.009 A 
HETATM    6  C20 UNL     1      43.085  -0.844  32.991  1.00  0.00     0.090 A 
ENDROOT
BRANCH   1   7
HETATM    7  C6  UNL     1      43.238  -1.931  30.746  1.00  0.00     0.119 A 
HETATM    8  N3  UNL     1      43.544  -0.921  29.942  1.00  0.00    -0.340 N 
HETATM    9  C5  UNL     1      43.746  -1.363  28.669  1.00  0.00     0.060 A 
ATOM     10  H3  UNL     1      43.618   0.053  30.236  1.00  0.00     0.167 HD
HETATM   11  C4  UNL     1      44.075  -0.727  27.499  1.00  0.00     0.033 A 
HETATM   12  C21 UNL     1      43.549  -2.723  28.707  1.00  0.00     0.061 A 
HETATM   13  C3  UNL     1      44.214  -1.469  26.331  1.00  0.00     0.017 A 
HETATM   14  C2  UNL     1      44.029  -2.830  26.315  1.00  0.00     0.007 A 
HETATM   15  C22 UNL     1      43.695  -3.427  27.535  1.00  0.00     0.046 A 
HETATM   16  N5  UNL     1      43.241  -3.059  29.974  1.00  0.00    -0.340 N 
ATOM     17  H5  UNL     1      43.042  -4.003  30.304  1.00  0.00     0.167 HD
BRANCH  14  18
HETATM   18  C1  UNL     1      44.164  -3.641  25.116  1.00  0.00     0.120 C 
HETATM   19  N1  UNL     1      44.263  -2.962  23.857  1.00  0.00    -0.082 NA
HETATM   20  N2  UNL     1      44.198  -4.904  25.156  1.00  0.00    -0.387 N 
ATOM     21  H22 UNL     1      44.293  -5.473  24.315  1.00  0.00     0.157 HD
ATOM     22  H21 UNL     1      44.128  -5.387  26.052  1.00  0.00     0.157 HD
ENDBRANCH  14  18
ENDBRANCH   1   7
BRANCH   6  23
HETATM   23  O1  UNL     1      43.536   0.343  32.449  1.00  0.00    -0.359 OA
ATOM     24  H1  UNL     1      44.411   0.387  32.082  1.00  0.00     0.217 HD
ENDBRANCH   6  23
BRANCH   3  25
HETATM   25  C10 UNL     1      41.699  -4.433  34.784  1.00  0.00     0.066 C 
BRANCH  25  26
HETATM   26  C11 UNL     1      41.853  -5.660  33.917  1.00  0.00     0.234 C 
BRANCH  26  27
HETATM   27  N4  UNL     1      42.982  -6.415  34.471  1.00  0.00    -0.079 N 
ATOM     28  H43 UNL     1      43.635  -5.838  35.000  1.00  0.00     0.274 HD
ATOM     29  H42 UNL     1      42.717  -7.037  35.235  1.00  0.00     0.274 HD
ATOM     30  H41 UNL     1      43.415  -6.901  33.684  1.00  0.00     0.274 HD
ENDBRANCH  26  27
ENDBRANCH  25  26
ENDBRANCH   3  25
BRANCH   5  31
HETATM   31  C14 UNL     1      42.926   0.315  35.205  1.00  0.00    -0.023 A 
HETATM   32  C15 UNL     1      41.923   1.202  35.433  1.00  0.00     0.012 A 
HETATM   33  C16 UNL     1      42.165   2.283  36.255  1.00  0.00     0.001 A 
HETATM   34  C17 UNL     1      43.392   2.489  36.850  1.00  0.00     0.000 A 
HETATM   35  C18 UNL     1      44.412   1.593  36.623  1.00  0.00     0.001 A 
HETATM   36  C19 UNL     1      44.179   0.505  35.800  1.00  0.00     0.012 A 
ENDBRANCH   5  31
TORSDOF 7
ENDMDL
