MODEL 11
REMARK VINA RESULT: -7.362961050      2.841      8.144
REMARK  7 active torsions:
REMARK  status: ('A' for Active; 'I' for Inactive)
REMARK    1  A    between atoms: C1_2  and  C2_6 
REMARK    2  A    between atoms: C6_12  and  C7_13 
REMARK    3  A    between atoms: C9_15  and  C10_16 
REMARK    4  A    between atoms: C10_16  and  C11_17 
REMARK    5  A    between atoms: C11_17  and  N4_18 
REMARK    6  A    between atoms: C13_23  and  C14_24 
REMARK    7  A    between atoms: C20_30  and  O1_31 
ROOT
HETATM    1  C7  UNL     1      43.076  -2.388  31.036  1.00  0.00     0.043 A 
HETATM    2  C8  UNL     1      43.008  -3.756  31.333  1.00  0.00     0.025 A 
HETATM    3  C9  UNL     1      43.159  -4.727  30.376  1.00  0.00    -0.055 A 
HETATM    4  C12 UNL     1      43.384  -4.308  29.089  1.00  0.00     0.022 A 
HETATM    5  C13 UNL     1      43.465  -2.964  28.722  1.00  0.00     0.009 A 
HETATM    6  C20 UNL     1      43.305  -2.037  29.730  1.00  0.00     0.090 A 
ENDROOT
BRANCH   1   7
HETATM    7  C6  UNL     1      42.906  -1.407  32.115  1.00  0.00     0.119 A 
HETATM    8  N3  UNL     1      41.892  -1.219  32.951  1.00  0.00    -0.340 N 
HETATM    9  C5  UNL     1      42.155  -0.189  33.803  1.00  0.00     0.060 A 
ATOM     10  H3  UNL     1      41.034  -1.771  32.956  1.00  0.00     0.167 HD
HETATM   11  C4  UNL     1      41.444   0.385  34.827  1.00  0.00     0.033 A 
HETATM   12  C21 UNL     1      43.404   0.274  33.460  1.00  0.00     0.061 A 
HETATM   13  C3  UNL     1      41.993   1.450  35.530  1.00  0.00     0.017 A 
HETATM   14  C2  UNL     1      43.237   1.950  35.227  1.00  0.00     0.007 A 
HETATM   15  C22 UNL     1      43.918   1.329  34.176  1.00  0.00     0.046 A 
HETATM   16  N5  UNL     1      43.852  -0.473  32.433  1.00  0.00    -0.340 N 
ATOM     17  H5  UNL     1      44.752  -0.360  31.967  1.00  0.00     0.167 HD
BRANCH  14  18
HETATM   18  C1  UNL     1      43.845   3.063  35.939  1.00  0.00     0.120 C 
HETATM   19  N1  UNL     1      45.154   2.869  36.492  1.00  0.00    -0.082 NA
HETATM   20  N2  UNL     1      43.260   4.175  36.078  1.00  0.00    -0.387 N 
ATOM     21  H22 UNL     1      43.687   4.956  36.577  1.00  0.00     0.157 HD
ATOM     22  H21 UNL     1      42.328   4.313  35.684  1.00  0.00     0.157 HD
ENDBRANCH  14  18
ENDBRANCH   1   7
BRANCH   6  23
HETATM   23  O1  UNL     1      43.377  -0.702  29.387  1.00  0.00    -0.359 OA
ATOM     24  H1  UNL     1      42.999  -0.408  28.566  1.00  0.00     0.217 HD
ENDBRANCH   6  23
BRANCH   3  25
HETATM   25  C10 UNL     1      43.093  -6.176  30.647  1.00  0.00     0.066 C 
BRANCH  25  26
HETATM   26  C11 UNL     1      43.521  -6.518  32.056  1.00  0.00     0.234 C 
BRANCH  26  27
HETATM   27  N4  UNL     1      44.962  -6.781  31.995  1.00  0.00    -0.079 N 
ATOM     28  H43 UNL     1      45.442  -6.244  31.273  1.00  0.00     0.274 HD
ATOM     29  H42 UNL     1      45.476  -6.406  32.792  1.00  0.00     0.274 HD
ATOM     30  H41 UNL     1      45.064  -7.790  31.885  1.00  0.00     0.274 HD
ENDBRANCH  26  27
ENDBRANCH  25  26
ENDBRANCH   3  25
BRANCH   5  31
HETATM   31  C14 UNL     1      43.737  -2.599  27.328  1.00  0.00    -0.023 A 
HETATM   32  C15 UNL     1      43.961  -1.328  26.904  1.00  0.00     0.012 A 
HETATM   33  C16 UNL     1      44.191  -1.105  25.563  1.00  0.00     0.001 A 
HETATM   34  C17 UNL     1      44.200  -2.133  24.642  1.00  0.00     0.000 A 
HETATM   35  C18 UNL     1      43.974  -3.423  25.066  1.00  0.00     0.001 A 
HETATM   36  C19 UNL     1      43.742  -3.656  26.411  1.00  0.00     0.012 A 
ENDBRANCH   5  31
TORSDOF 7
ENDMDL
