MODEL 4
REMARK VINA RESULT: -8.604231703      0.844      1.045
REMARK  4 active torsions:
REMARK  status: ('A' for Active; 'I' for Inactive)
REMARK    1  A    between atoms: C1_2  and  C2_6 
REMARK    2  A    between atoms: C6_12  and  C7_13 
REMARK    3  A    between atoms: C11_17  and  C12_18 
REMARK    4  A    between atoms: C18_24  and  O1_25 
ROOT
HETATM    1  C2  UNL     1      44.138  -2.812  26.294  1.00  0.00     0.007 A 
HETATM    2  C3  UNL     1      44.544  -1.512  26.458  1.00  0.00     0.017 A 
HETATM    3  C4  UNL     1      44.444  -0.894  27.710  1.00  0.00     0.033 A 
HETATM    4  C5  UNL     1      43.933  -1.604  28.780  1.00  0.00     0.060 A 
HETATM    5  N3  UNL     1      43.726  -1.268  30.074  1.00  0.00    -0.340 N 
ATOM      6  H3  UNL     1      43.940  -0.355  30.475  1.00  0.00     0.167 HD
HETATM    7  C6  UNL     1      43.195  -2.307  30.767  1.00  0.00     0.119 A 
HETATM    8  N4  UNL     1      43.086  -3.279  29.867  1.00  0.00    -0.340 N 
ATOM      9  H4  UNL     1      42.716  -4.205  30.078  1.00  0.00     0.167 HD
HETATM   10  C19 UNL     1      43.516  -2.911  28.651  1.00  0.00     0.061 A 
HETATM   11  C20 UNL     1      43.629  -3.479  27.418  1.00  0.00     0.046 A 
ENDROOT
BRANCH   7  12
HETATM   12  C7  UNL     1      42.853  -2.266  32.195  1.00  0.00     0.042 A 
HETATM   13  C8  UNL     1      42.492  -3.448  32.823  1.00  0.00     0.018 A 
HETATM   14  C9  UNL     1      42.166  -3.442  34.160  1.00  0.00     0.002 A 
HETATM   15  C10 UNL     1      42.203  -2.258  34.861  1.00  0.00     0.015 A 
HETATM   16  C11 UNL     1      42.557  -1.079  34.265  1.00  0.00     0.008 A 
HETATM   17  C18 UNL     1      42.891  -1.083  32.894  1.00  0.00     0.090 A 
BRANCH  16  18
HETATM   18  C12 UNL     1      42.604   0.170  34.972  1.00  0.00    -0.023 A 
HETATM   19  C13 UNL     1      43.805   0.682  35.462  1.00  0.00     0.012 A 
HETATM   20  C14 UNL     1      43.854   1.882  36.143  1.00  0.00     0.001 A 
HETATM   21  C15 UNL     1      42.710   2.617  36.361  1.00  0.00     0.000 A 
HETATM   22  C16 UNL     1      41.524   2.139  35.892  1.00  0.00     0.001 A 
HETATM   23  C17 UNL     1      41.484   0.938  35.212  1.00  0.00     0.012 A 
ENDBRANCH  16  18
BRANCH  17  24
HETATM   24  O1  UNL     1      43.238   0.126  32.346  1.00  0.00    -0.359 OA
ATOM     25  H1  UNL     1      42.733   0.573  31.677  1.00  0.00     0.217 HD
ENDBRANCH  17  24
ENDBRANCH   7  12
BRANCH   1  26
HETATM   26  C1  UNL     1      44.224  -3.492  25.016  1.00  0.00     0.120 C 
HETATM   27  N1  UNL     1      44.380  -2.713  23.848  1.00  0.00    -0.082 NA
HETATM   28  N2  UNL     1      44.162  -4.760  24.919  1.00  0.00    -0.387 N 
ATOM     29  H22 UNL     1      44.222  -5.238  24.020  1.00  0.00     0.157 HD
ATOM     30  H21 UNL     1      44.049  -5.322  25.762  1.00  0.00     0.157 HD
ENDBRANCH   1  26
TORSDOF 4
ENDMDL
