MODEL 1
REMARK VINA RESULT: -9.058459644      0.000      0.000
REMARK  4 active torsions:
REMARK  status: ('A' for Active; 'I' for Inactive)
REMARK    1  A    between atoms: C1_2  and  C2_6 
REMARK    2  A    between atoms: C6_12  and  C7_13 
REMARK    3  A    between atoms: C11_17  and  C12_18 
REMARK    4  A    between atoms: C18_24  and  O1_25 
ROOT
HETATM    1  C2  UNL     1      44.130  -2.865  26.332  1.00  0.00     0.007 A 
HETATM    2  C3  UNL     1      44.357  -1.512  26.326  1.00  0.00     0.017 A 
HETATM    3  C4  UNL     1      44.222  -0.769  27.505  1.00  0.00     0.033 A 
HETATM    4  C5  UNL     1      43.858  -1.409  28.674  1.00  0.00     0.060 A 
HETATM    5  N3  UNL     1      43.658  -0.952  29.932  1.00  0.00    -0.340 N 
ATOM      6  H3  UNL     1      43.759   0.023  30.216  1.00  0.00     0.167 HD
HETATM    7  C6  UNL     1      43.306  -1.963  30.766  1.00  0.00     0.119 A 
HETATM    8  N4  UNL     1      43.297  -3.041  29.988  1.00  0.00    -0.340 N 
ATOM      9  H4  UNL     1      43.068  -3.976  30.322  1.00  0.00     0.167 HD
HETATM   10  C19 UNL     1      43.622  -2.766  28.717  1.00  0.00     0.061 A 
HETATM   11  C20 UNL     1      43.764  -3.455  27.551  1.00  0.00     0.046 A 
ENDROOT
BRANCH   7  12
HETATM   12  C7  UNL     1      43.019  -1.799  32.197  1.00  0.00     0.042 A 
HETATM   13  C8  UNL     1      42.187  -2.720  32.816  1.00  0.00     0.018 A 
HETATM   14  C9  UNL     1      41.900  -2.593  34.155  1.00  0.00     0.002 A 
HETATM   15  C10 UNL     1      42.443  -1.549  34.869  1.00  0.00     0.015 A 
HETATM   16  C11 UNL     1      43.266  -0.627  34.282  1.00  0.00     0.008 A 
HETATM   17  C18 UNL     1      43.562  -0.756  32.909  1.00  0.00     0.090 A 
BRANCH  16  18
HETATM   18  C12 UNL     1      43.847   0.471  35.003  1.00  0.00    -0.023 A 
HETATM   19  C13 UNL     1      45.048   0.330  35.697  1.00  0.00     0.012 A 
HETATM   20  C14 UNL     1      45.609   1.384  36.391  1.00  0.00     0.001 A 
HETATM   21  C15 UNL     1      44.995   2.617  36.420  1.00  0.00     0.000 A 
HETATM   22  C16 UNL     1      43.820   2.780  35.749  1.00  0.00     0.001 A 
HETATM   23  C17 UNL     1      43.266   1.721  35.058  1.00  0.00     0.012 A 
ENDBRANCH  16  18
BRANCH  17  24
HETATM   24  O1  UNL     1      44.393   0.195  32.371  1.00  0.00    -0.359 OA
ATOM     25  H1  UNL     1      45.314   0.283  32.586  1.00  0.00     0.217 HD
ENDBRANCH  17  24
ENDBRANCH   7  12
BRANCH   1  26
HETATM   26  C1  UNL     1      44.258  -3.675  25.136  1.00  0.00     0.120 C 
HETATM   27  N1  UNL     1      44.262  -3.026  23.881  1.00  0.00    -0.082 NA
HETATM   28  N2  UNL     1      44.367  -4.942  25.185  1.00  0.00    -0.387 N 
ATOM     29  H22 UNL     1      44.457  -5.511  24.343  1.00  0.00     0.157 HD
ATOM     30  H21 UNL     1      44.364  -5.410  26.091  1.00  0.00     0.157 HD
ENDBRANCH   1  26
TORSDOF 4
ENDMDL
