MODEL 12
REMARK VINA RESULT: -7.376230767      4.602      6.539
REMARK  4 active torsions:
REMARK  status: ('A' for Active; 'I' for Inactive)
REMARK    1  A    between atoms: C1_2  and  C2_6 
REMARK    2  A    between atoms: C6_12  and  C7_13 
REMARK    3  A    between atoms: C11_17  and  C12_18 
REMARK    4  A    between atoms: C18_24  and  O1_25 
ROOT
HETATM    1  C2  UNL     1      43.987  -2.249  26.531  1.00  0.00     0.007 A 
HETATM    2  C3  UNL     1      44.010  -1.213  27.431  1.00  0.00     0.017 A 
HETATM    3  C4  UNL     1      43.843  -1.462  28.798  1.00  0.00     0.033 A 
HETATM    4  C5  UNL     1      43.654  -2.759  29.235  1.00  0.00     0.060 A 
HETATM    5  N3  UNL     1      43.470  -3.281  30.469  1.00  0.00    -0.340 N 
ATOM      6  H3  UNL     1      43.444  -2.734  31.330  1.00  0.00     0.167 HD
HETATM    7  C6  UNL     1      43.325  -4.630  30.410  1.00  0.00     0.119 A 
HETATM    8  N4  UNL     1      43.426  -4.913  29.116  1.00  0.00    -0.340 N 
ATOM      9  H4  UNL     1      43.359  -5.857  28.738  1.00  0.00     0.167 HD
HETATM   10  C19 UNL     1      43.624  -3.824  28.360  1.00  0.00     0.061 A 
HETATM   11  C20 UNL     1      43.791  -3.542  27.037  1.00  0.00     0.046 A 
ENDROOT
BRANCH   7  12
HETATM   12  C7  UNL     1      43.109  -5.494  31.577  1.00  0.00     0.042 A 
HETATM   13  C8  UNL     1      42.098  -5.166  32.467  1.00  0.00     0.018 A 
HETATM   14  C9  UNL     1      41.871  -5.956  33.570  1.00  0.00     0.002 A 
HETATM   15  C10 UNL     1      42.654  -7.069  33.779  1.00  0.00     0.015 A 
HETATM   16  C11 UNL     1      43.658  -7.415  32.917  1.00  0.00     0.008 A 
HETATM   17  C18 UNL     1      43.892  -6.606  31.785  1.00  0.00     0.090 A 
BRANCH  16  18
HETATM   18  C12 UNL     1      44.490  -8.569  33.111  1.00  0.00    -0.023 A 
HETATM   19  C13 UNL     1      45.693  -8.488  33.811  1.00  0.00     0.012 A 
HETATM   20  C14 UNL     1      46.495  -9.596  33.999  1.00  0.00     0.001 A 
HETATM   21  C15 UNL     1      46.129 -10.826  33.498  1.00  0.00     0.000 A 
HETATM   22  C16 UNL     1      44.958 -10.931  32.810  1.00  0.00     0.001 A 
HETATM   23  C17 UNL     1      44.162  -9.819  32.626  1.00  0.00     0.012 A 
ENDBRANCH  16  18
BRANCH  17  24
HETATM   24  O1  UNL     1      44.911  -6.998  30.953  1.00  0.00    -0.359 OA
ATOM     25  H1  UNL     1      45.645  -7.535  31.226  1.00  0.00     0.217 HD
ENDBRANCH  17  24
ENDBRANCH   7  12
BRANCH   1  26
HETATM   26  C1  UNL     1      44.156  -2.038  25.106  1.00  0.00     0.120 C 
HETATM   27  N1  UNL     1      44.502  -3.144  24.299  1.00  0.00    -0.082 NA
HETATM   28  N2  UNL     1      44.003  -0.894  24.569  1.00  0.00    -0.387 N 
ATOM     29  H22 UNL     1      44.122  -0.747  23.567  1.00  0.00     0.157 HD
ATOM     30  H21 UNL     1      43.753  -0.096  25.153  1.00  0.00     0.157 HD
ENDBRANCH   1  26
TORSDOF 4
ENDMDL
