MODEL 3
REMARK VINA RESULT: -8.666512967      0.843      1.595
REMARK  4 active torsions:
REMARK  status: ('A' for Active; 'I' for Inactive)
REMARK    1  A    between atoms: C1_2  and  C2_6 
REMARK    2  A    between atoms: C6_12  and  C7_13 
REMARK    3  A    between atoms: C11_17  and  C12_18 
REMARK    4  A    between atoms: C18_24  and  O1_25 
ROOT
HETATM    1  C2  UNL     1      43.929  -2.341  26.759  1.00  0.00     0.007 A 
HETATM    2  C3  UNL     1      43.809  -3.667  27.088  1.00  0.00     0.017 A 
HETATM    3  C4  UNL     1      43.571  -4.046  28.414  1.00  0.00     0.033 A 
HETATM    4  C5  UNL     1      43.458  -3.073  29.389  1.00  0.00     0.060 A 
HETATM    5  N3  UNL     1      43.233  -3.149  30.721  1.00  0.00    -0.340 N 
ATOM      6  H3  UNL     1      43.104  -4.019  31.238  1.00  0.00     0.167 HD
HETATM    7  C6  UNL     1      43.202  -1.911  31.280  1.00  0.00     0.119 A 
HETATM    8  N4  UNL     1      43.411  -1.087  30.259  1.00  0.00    -0.340 N 
ATOM      9  H4  UNL     1      43.445  -0.072  30.351  1.00  0.00     0.167 HD
HETATM   10  C19 UNL     1      43.572  -1.732  29.095  1.00  0.00     0.061 A 
HETATM   11  C20 UNL     1      43.803  -1.402  27.793  1.00  0.00     0.046 A 
ENDROOT
BRANCH   7  12
HETATM   12  C7  UNL     1      42.979  -1.649  32.707  1.00  0.00     0.042 A 
HETATM   13  C8  UNL     1      42.290  -2.593  33.454  1.00  0.00     0.018 A 
HETATM   14  C9  UNL     1      42.065  -2.376  34.793  1.00  0.00     0.002 A 
HETATM   15  C10 UNL     1      42.528  -1.220  35.380  1.00  0.00     0.015 A 
HETATM   16  C11 UNL     1      43.210  -0.274  34.666  1.00  0.00     0.008 A 
HETATM   17  C18 UNL     1      43.442  -0.494  33.293  1.00  0.00     0.090 A 
BRANCH  16  18
HETATM   18  C12 UNL     1      43.704   0.941  35.253  1.00  0.00    -0.023 A 
HETATM   19  C13 UNL     1      44.969   1.002  35.836  1.00  0.00     0.012 A 
HETATM   20  C14 UNL     1      45.447   2.168  36.401  1.00  0.00     0.001 A 
HETATM   21  C15 UNL     1      44.684   3.315  36.407  1.00  0.00     0.000 A 
HETATM   22  C16 UNL     1      43.445   3.280  35.842  1.00  0.00     0.001 A 
HETATM   23  C17 UNL     1      42.974   2.111  35.280  1.00  0.00     0.012 A 
ENDBRANCH  16  18
BRANCH  17  24
HETATM   24  O1  UNL     1      44.130   0.486  32.624  1.00  0.00    -0.359 OA
ATOM     25  H1  UNL     1      43.897   1.407  32.639  1.00  0.00     0.217 HD
ENDBRANCH  17  24
ENDBRANCH   7  12
BRANCH   1  26
HETATM   26  C1  UNL     1      44.175  -1.902  25.398  1.00  0.00     0.120 C 
HETATM   27  N1  UNL     1      44.555  -2.866  24.439  1.00  0.00    -0.082 NA
HETATM   28  N2  UNL     1      44.059  -0.684  25.049  1.00  0.00    -0.387 N 
ATOM     29  H22 UNL     1      44.232  -0.376  24.092  1.00  0.00     0.157 HD
ATOM     30  H21 UNL     1      43.784   0.012  25.742  1.00  0.00     0.157 HD
ENDBRANCH   1  26
TORSDOF 4
ENDMDL
