MODEL 7
REMARK VINA RESULT: -7.627499126      4.157      6.234
REMARK  4 active torsions:
REMARK  status: ('A' for Active; 'I' for Inactive)
REMARK    1  A    between atoms: C1_2  and  C2_6 
REMARK    2  A    between atoms: C6_12  and  C7_13 
REMARK    3  A    between atoms: C11_17  and  C12_18 
REMARK    4  A    between atoms: C18_24  and  O1_25 
ROOT
HETATM    1  C2  UNL     1      44.109  -2.357  26.190  1.00  0.00     0.007 A 
HETATM    2  C3  UNL     1      44.187  -1.210  26.937  1.00  0.00     0.017 A 
HETATM    3  C4  UNL     1      44.005  -1.257  28.325  1.00  0.00     0.033 A 
HETATM    4  C5  UNL     1      43.746  -2.470  28.935  1.00  0.00     0.060 A 
HETATM    5  N3  UNL     1      43.533  -2.804  30.229  1.00  0.00    -0.340 N 
ATOM      6  H3  UNL     1      43.536  -2.143  31.005  1.00  0.00     0.167 HD
HETATM    7  C6  UNL     1      43.316  -4.139  30.356  1.00  0.00     0.119 A 
HETATM    8  N4  UNL     1      43.403  -4.604  29.114  1.00  0.00    -0.340 N 
ATOM      9  H4  UNL     1      43.287  -5.587  28.870  1.00  0.00     0.167 HD
HETATM   10  C19 UNL     1      43.661  -3.642  28.216  1.00  0.00     0.061 A 
HETATM   11  C20 UNL     1      43.844  -3.556  26.869  1.00  0.00     0.046 A 
ENDROOT
BRANCH   7  12
HETATM   12  C7  UNL     1      43.054  -4.820  31.629  1.00  0.00     0.042 A 
HETATM   13  C8  UNL     1      42.428  -4.111  32.643  1.00  0.00     0.018 A 
HETATM   14  C9  UNL     1      42.168  -4.722  33.848  1.00  0.00     0.002 A 
HETATM   15  C10 UNL     1      42.534  -6.036  34.035  1.00  0.00     0.015 A 
HETATM   16  C11 UNL     1      43.152  -6.758  33.051  1.00  0.00     0.008 A 
HETATM   17  C18 UNL     1      43.419  -6.133  31.815  1.00  0.00     0.090 A 
BRANCH  16  18
HETATM   18  C12 UNL     1      43.544  -8.129  33.218  1.00  0.00    -0.023 A 
HETATM   19  C13 UNL     1      44.804  -8.469  33.709  1.00  0.00     0.012 A 
HETATM   20  C14 UNL     1      45.184  -9.786  33.872  1.00  0.00     0.001 A 
HETATM   21  C15 UNL     1      44.324 -10.814  33.552  1.00  0.00     0.000 A 
HETATM   22  C16 UNL     1      43.087 -10.508  33.071  1.00  0.00     0.001 A 
HETATM   23  C17 UNL     1      42.715  -9.188  32.912  1.00  0.00     0.012 A 
ENDBRANCH  16  18
BRANCH  17  24
HETATM   24  O1  UNL     1      44.040  -6.902  30.863  1.00  0.00    -0.359 OA
ATOM     25  H1  UNL     1      43.608  -7.252  30.093  1.00  0.00     0.217 HD
ENDBRANCH  17  24
ENDBRANCH   7  12
BRANCH   1  26
HETATM   26  C1  UNL     1      44.291  -2.356  24.751  1.00  0.00     0.120 C 
HETATM   27  N1  UNL     1      44.114  -1.142  24.052  1.00  0.00    -0.082 NA
HETATM   28  N2  UNL     1      44.602  -3.409  24.108  1.00  0.00    -0.387 N 
ATOM     29  H22 UNL     1      44.730  -3.407  23.095  1.00  0.00     0.157 HD
ATOM     30  H21 UNL     1      44.730  -4.286  24.613  1.00  0.00     0.157 HD
ENDBRANCH   1  26
TORSDOF 4
ENDMDL
