MODEL 16
REMARK VINA RESULT: -7.249625799      4.337      8.552
REMARK  4 active torsions:
REMARK  status: ('A' for Active; 'I' for Inactive)
REMARK    1  A    between atoms: C1_2  and  C2_6 
REMARK    2  A    between atoms: C6_12  and  C7_13 
REMARK    3  A    between atoms: C11_17  and  C12_18 
REMARK    4  A    between atoms: C18_24  and  O1_25 
ROOT
HETATM    1  C2  UNL     1      37.621   1.737  34.046  1.00  0.00     0.007 A 
HETATM    2  C3  UNL     1      36.803   1.246  33.060  1.00  0.00     0.017 A 
HETATM    3  C4  UNL     1      37.271   0.264  32.179  1.00  0.00     0.033 A 
HETATM    4  C5  UNL     1      38.564  -0.206  32.310  1.00  0.00     0.060 A 
HETATM    5  N3  UNL     1      39.265  -1.132  31.615  1.00  0.00    -0.340 N 
ATOM      6  H3  UNL     1      38.899  -1.659  30.823  1.00  0.00     0.167 HD
HETATM    7  C6  UNL     1      40.521  -1.265  32.114  1.00  0.00     0.119 A 
HETATM    8  N4  UNL     1      40.564  -0.403  33.124  1.00  0.00    -0.340 N 
ATOM      9  H4  UNL     1      41.386  -0.262  33.711  1.00  0.00     0.167 HD
HETATM   10  C19 UNL     1      39.412   0.263  33.289  1.00  0.00     0.061 A 
HETATM   11  C20 UNL     1      38.921   1.218  34.127  1.00  0.00     0.046 A 
ENDROOT
BRANCH   7  12
HETATM   12  C7  UNL     1      41.532  -2.187  31.583  1.00  0.00     0.042 A 
HETATM   13  C8  UNL     1      41.961  -3.233  32.386  1.00  0.00     0.018 A 
HETATM   14  C9  UNL     1      42.907  -4.115  31.917  1.00  0.00     0.002 A 
HETATM   15  C10 UNL     1      43.420  -3.948  30.651  1.00  0.00     0.015 A 
HETATM   16  C11 UNL     1      43.014  -2.925  29.838  1.00  0.00     0.008 A 
HETATM   17  C18 UNL     1      42.043  -2.021  30.318  1.00  0.00     0.090 A 
BRANCH  16  18
HETATM   18  C12 UNL     1      43.532  -2.728  28.514  1.00  0.00    -0.023 A 
HETATM   19  C13 UNL     1      43.361  -3.689  27.517  1.00  0.00     0.012 A 
HETATM   20  C14 UNL     1      43.858  -3.502  26.242  1.00  0.00     0.001 A 
HETATM   21  C15 UNL     1      44.543  -2.354  25.913  1.00  0.00     0.000 A 
HETATM   22  C16 UNL     1      44.723  -1.400  26.868  1.00  0.00     0.001 A 
HETATM   23  C17 UNL     1      44.223  -1.594  28.140  1.00  0.00     0.012 A 
ENDBRANCH  16  18
BRANCH  17  24
HETATM   24  O1  UNL     1      41.672  -1.013  29.463  1.00  0.00    -0.359 OA
ATOM     25  H1  UNL     1      41.203  -1.150  28.648  1.00  0.00     0.217 HD
ENDBRANCH  17  24
ENDBRANCH   7  12
BRANCH   1  26
HETATM   26  C1  UNL     1      37.178   2.754  34.981  1.00  0.00     0.120 C 
HETATM   27  N1  UNL     1      36.134   3.620  34.589  1.00  0.00    -0.082 NA
HETATM   28  N2  UNL     1      37.701   2.886  36.134  1.00  0.00    -0.387 N 
ATOM     29  H22 UNL     1      37.390   3.601  36.791  1.00  0.00     0.157 HD
ATOM     30  H21 UNL     1      38.455   2.260  36.417  1.00  0.00     0.157 HD
ENDBRANCH   1  26
TORSDOF 4
ENDMDL
