MODEL 6
REMARK VINA RESULT: -7.521170210      1.231      1.256
REMARK  4 active torsions:
REMARK  status: ('A' for Active; 'I' for Inactive)
REMARK    1  A    between atoms: C1_2  and  C2_6 
REMARK    2  A    between atoms: C6_12  and  C7_13 
REMARK    3  A    between atoms: C11_17  and  C12_18 
REMARK    4  A    between atoms: C18_24  and  O1_25 
ROOT
HETATM    1  C2  UNL     1      44.089  -3.134  26.569  1.00  0.00     0.005 A 
HETATM    2  C3  UNL     1      44.784  -1.924  26.599  1.00  0.00     0.017 A 
HETATM    3  C4  UNL     1      44.715  -1.075  27.673  1.00  0.00     0.031 A 
HETATM    4  C5  UNL     1      43.916  -1.456  28.762  1.00  0.00     0.043 A 
HETATM    5  N3  UNL     1      43.676  -0.834  29.912  1.00  0.00    -0.355 N 
ATOM      6  H3  UNL     1      44.075   0.071  30.162  1.00  0.00     0.166 HD
HETATM    7  C6  UNL     1      42.833  -1.544  30.721  1.00  0.00     0.046 A 
HETATM    8  C19 UNL     1      42.555  -2.668  29.993  1.00  0.00     0.044 A 
HETATM    9  C20 UNL     1      43.231  -2.620  28.766  1.00  0.00    -0.006 A 
HETATM   10  C21 UNL     1      43.315  -3.451  27.682  1.00  0.00     0.028 A 
ENDROOT
BRANCH   7  11
HETATM   11  C7  UNL     1      42.360  -1.053  32.019  1.00  0.00     0.025 A 
HETATM   12  C8  UNL     1      41.024  -1.241  32.313  1.00  0.00     0.016 A 
HETATM   13  C9  UNL     1      40.450  -0.803  33.474  1.00  0.00     0.002 A 
HETATM   14  C10 UNL     1      41.252  -0.156  34.364  1.00  0.00     0.015 A 
HETATM   15  C11 UNL     1      42.581   0.074  34.155  1.00  0.00     0.008 A 
HETATM   16  C18 UNL     1      43.136  -0.395  32.938  1.00  0.00     0.089 A 
BRANCH  15  17
HETATM   17  C12 UNL     1      43.415   0.769  35.119  1.00  0.00    -0.023 A 
HETATM   18  C13 UNL     1      43.877   0.077  36.210  1.00  0.00     0.012 A 
HETATM   19  C14 UNL     1      44.678   0.662  37.178  1.00  0.00     0.001 A 
HETATM   20  C15 UNL     1      45.021   1.995  37.029  1.00  0.00     0.000 A 
HETATM   21  C16 UNL     1      44.551   2.682  35.924  1.00  0.00     0.001 A 
HETATM   22  C17 UNL     1      43.753   2.099  34.961  1.00  0.00     0.012 A 
ENDBRANCH  15  17
BRANCH  16  23
HETATM   23  O1  UNL     1      44.458  -0.126  32.782  1.00  0.00    -0.359 OA
ATOM     24  H1  UNL     1      45.068  -0.672  32.300  1.00  0.00     0.217 HD
ENDBRANCH  16  23
ENDBRANCH   7  11
BRANCH   1  25
HETATM   25  C1  UNL     1      44.186  -4.009  25.413  1.00  0.00     0.120 C 
HETATM   26  N1  UNL     1      43.877  -3.479  24.126  1.00  0.00    -0.082 NA
HETATM   27  N2  UNL     1      44.538  -5.237  25.506  1.00  0.00    -0.387 N 
ATOM     28  H22 UNL     1      44.606  -5.851  24.695  1.00  0.00     0.157 HD
ATOM     29  H21 UNL     1      44.759  -5.616  26.427  1.00  0.00     0.157 HD
ENDBRANCH   1  25
TORSDOF 4
ENDMDL
