MODEL 3
REMARK VINA RESULT: -7.968259425      1.577      2.060
REMARK  4 active torsions:
REMARK  status: ('A' for Active; 'I' for Inactive)
REMARK    1  A    between atoms: C1_2  and  C2_6 
REMARK    2  A    between atoms: C6_12  and  C7_13 
REMARK    3  A    between atoms: C11_17  and  C12_18 
REMARK    4  A    between atoms: C18_24  and  O1_25 
ROOT
HETATM    1  C2  UNL     1      44.177  -3.052  26.652  1.00  0.00     0.005 A 
HETATM    2  C3  UNL     1      44.688  -1.768  26.844  1.00  0.00     0.017 A 
HETATM    3  C4  UNL     1      44.642  -1.146  28.065  1.00  0.00     0.031 A 
HETATM    4  C5  UNL     1      44.060  -1.841  29.136  1.00  0.00     0.043 A 
HETATM    5  N3  UNL     1      43.889  -1.480  30.404  1.00  0.00    -0.355 N 
ATOM      6  H3  UNL     1      44.184  -0.581  30.783  1.00  0.00     0.166 HD
HETATM    7  C6  UNL     1      43.273  -2.453  31.142  1.00  0.00     0.046 A 
HETATM    8  C19 UNL     1      43.064  -3.461  30.242  1.00  0.00     0.044 A 
HETATM    9  C20 UNL     1      43.555  -3.084  28.983  1.00  0.00    -0.006 A 
HETATM   10  C21 UNL     1      43.613  -3.685  27.755  1.00  0.00     0.028 A 
ENDROOT
BRANCH   7  11
HETATM   11  C7  UNL     1      42.913  -2.285  32.553  1.00  0.00     0.025 A 
HETATM   12  C8  UNL     1      43.090  -3.376  33.381  1.00  0.00     0.016 A 
HETATM   13  C9  UNL     1      42.764  -3.362  34.709  1.00  0.00     0.002 A 
HETATM   14  C10 UNL     1      42.244  -2.209  35.214  1.00  0.00     0.015 A 
HETATM   15  C11 UNL     1      42.034  -1.085  34.469  1.00  0.00     0.008 A 
HETATM   16  C18 UNL     1      42.385  -1.143  33.097  1.00  0.00     0.089 A 
BRANCH  15  17
HETATM   17  C12 UNL     1      41.476   0.132  35.030  1.00  0.00    -0.023 A 
HETATM   18  C13 UNL     1      42.332   1.076  35.539  1.00  0.00     0.012 A 
HETATM   19  C14 UNL     1      41.886   2.265  36.094  1.00  0.00     0.001 A 
HETATM   20  C15 UNL     1      40.521   2.501  36.129  1.00  0.00     0.000 A 
HETATM   21  C16 UNL     1      39.668   1.543  35.612  1.00  0.00     0.001 A 
HETATM   22  C17 UNL     1      40.113   0.359  35.061  1.00  0.00     0.012 A 
ENDBRANCH  15  17
BRANCH  16  23
HETATM   23  O1  UNL     1      42.142   0.001  32.406  1.00  0.00    -0.359 OA
ATOM     24  H1  UNL     1      42.723   0.372  31.752  1.00  0.00     0.217 HD
ENDBRANCH  16  23
ENDBRANCH   7  11
BRANCH   1  25
HETATM   25  C1  UNL     1      44.242  -3.680  25.343  1.00  0.00     0.120 C 
HETATM   26  N1  UNL     1      44.418  -2.853  24.195  1.00  0.00    -0.082 NA
HETATM   27  N2  UNL     1      44.149  -4.947  25.182  1.00  0.00    -0.387 N 
ATOM     28  H22 UNL     1      44.195  -5.388  24.263  1.00  0.00     0.157 HD
ATOM     29  H21 UNL     1      44.023  -5.539  26.003  1.00  0.00     0.157 HD
ENDBRANCH   1  25
TORSDOF 4
ENDMDL
