MODEL 9
REMARK VINA RESULT: -7.308331771      3.021      8.671
REMARK  4 active torsions:
REMARK  status: ('A' for Active; 'I' for Inactive)
REMARK    1  A    between atoms: C1_2  and  C2_6 
REMARK    2  A    between atoms: C6_12  and  C7_13 
REMARK    3  A    between atoms: C11_17  and  C12_18 
REMARK    4  A    between atoms: C18_24  and  O1_25 
ROOT
HETATM    1  C2  UNL     1      45.490   1.062  36.677  1.00  0.00     0.005 A 
HETATM    2  C3  UNL     1      46.557   0.361  36.113  1.00  0.00     0.017 A 
HETATM    3  C4  UNL     1      46.431  -0.322  34.932  1.00  0.00     0.031 A 
HETATM    4  C5  UNL     1      45.183  -0.302  34.290  1.00  0.00     0.043 A 
HETATM    5  N3  UNL     1      44.791  -0.869  33.153  1.00  0.00    -0.355 N 
ATOM      6  H3  UNL     1      45.399  -1.434  32.561  1.00  0.00     0.166 HD
HETATM    7  C6  UNL     1      43.480  -0.607  32.868  1.00  0.00     0.046 A 
HETATM    8  C19 UNL     1      43.068   0.170  33.915  1.00  0.00     0.044 A 
HETATM    9  C20 UNL     1      44.130   0.366  34.809  1.00  0.00    -0.006 A 
HETATM   10  C21 UNL     1      44.280   1.041  35.989  1.00  0.00     0.028 A 
ENDROOT
BRANCH   7  11
HETATM   11  C7  UNL     1      42.783  -1.164  31.703  1.00  0.00     0.025 A 
HETATM   12  C8  UNL     1      41.426  -1.384  31.829  1.00  0.00     0.016 A 
HETATM   13  C9  UNL     1      40.665  -1.927  30.831  1.00  0.00     0.002 A 
HETATM   14  C10 UNL     1      41.298  -2.257  29.671  1.00  0.00     0.015 A 
HETATM   15  C11 UNL     1      42.634  -2.075  29.461  1.00  0.00     0.008 A 
HETATM   16  C18 UNL     1      43.385  -1.510  30.522  1.00  0.00     0.089 A 
BRANCH  15  17
HETATM   17  C12 UNL     1      43.286  -2.436  28.214  1.00  0.00    -0.023 A 
HETATM   18  C13 UNL     1      43.808  -1.438  27.431  1.00  0.00     0.012 A 
HETATM   19  C14 UNL     1      44.446  -1.693  26.227  1.00  0.00     0.001 A 
HETATM   20  C15 UNL     1      44.556  -3.008  25.809  1.00  0.00     0.000 A 
HETATM   21  C16 UNL     1      44.027  -4.006  26.608  1.00  0.00     0.001 A 
HETATM   22  C17 UNL     1      43.392  -3.751  27.806  1.00  0.00     0.012 A 
ENDBRANCH  15  17
BRANCH  16  23
HETATM   23  O1  UNL     1      44.710  -1.365  30.258  1.00  0.00    -0.359 OA
ATOM     24  H1  UNL     1      45.220  -1.953  29.713  1.00  0.00     0.217 HD
ENDBRANCH  16  23
ENDBRANCH   7  11
BRANCH   1  25
HETATM   25  C1  UNL     1      45.660   1.776  37.931  1.00  0.00     0.120 C 
HETATM   26  N1  UNL     1      46.504   1.209  38.931  1.00  0.00    -0.082 NA
HETATM   27  N2  UNL     1      45.083   2.893  38.172  1.00  0.00    -0.387 N 
ATOM     28  H22 UNL     1      45.203   3.394  39.052  1.00  0.00     0.157 HD
ATOM     29  H21 UNL     1      44.479   3.298  37.456  1.00  0.00     0.157 HD
ENDBRANCH   1  25
TORSDOF 4
ENDMDL
