MODEL 8
REMARK VINA RESULT: -7.386781499      3.103      8.510
REMARK  4 active torsions:
REMARK  status: ('A' for Active; 'I' for Inactive)
REMARK    1  A    between atoms: C1_2  and  C2_6 
REMARK    2  A    between atoms: C6_12  and  C7_13 
REMARK    3  A    between atoms: C11_17  and  C12_18 
REMARK    4  A    between atoms: C18_24  and  O1_25 
ROOT
HETATM    1  C2  UNL     1      45.800   0.742  36.488  1.00  0.00     0.005 A 
HETATM    2  C3  UNL     1      45.209   1.905  35.992  1.00  0.00     0.017 A 
HETATM    3  C4  UNL     1      44.405   1.891  34.882  1.00  0.00     0.031 A 
HETATM    4  C5  UNL     1      44.184   0.661  34.244  1.00  0.00     0.043 A 
HETATM    5  N3  UNL     1      43.459   0.367  33.169  1.00  0.00    -0.355 N 
ATOM      6  H3  UNL     1      42.932   1.056  32.633  1.00  0.00     0.166 HD
HETATM    7  C6  UNL     1      43.500  -0.966  32.864  1.00  0.00     0.046 A 
HETATM    8  C19 UNL     1      44.310  -1.496  33.830  1.00  0.00     0.044 A 
HETATM    9  C20 UNL     1      44.741  -0.483  34.698  1.00  0.00    -0.006 A 
HETATM   10  C21 UNL     1      45.541  -0.444  35.808  1.00  0.00     0.028 A 
ENDROOT
BRANCH   7  11
HETATM   11  C7  UNL     1      42.836  -1.543  31.691  1.00  0.00     0.025 A 
HETATM   12  C8  UNL     1      41.531  -1.965  31.852  1.00  0.00     0.016 A 
HETATM   13  C9  UNL     1      40.809  -2.549  30.848  1.00  0.00     0.002 A 
HETATM   14  C10 UNL     1      41.427  -2.711  29.646  1.00  0.00     0.015 A 
HETATM   15  C11 UNL     1      42.713  -2.325  29.399  1.00  0.00     0.008 A 
HETATM   16  C18 UNL     1      43.425  -1.724  30.467  1.00  0.00     0.089 A 
BRANCH  15  17
HETATM   17  C12 UNL     1      43.350  -2.509  28.107  1.00  0.00    -0.023 A 
HETATM   18  C13 UNL     1      43.461  -3.780  27.602  1.00  0.00     0.012 A 
HETATM   19  C14 UNL     1      44.055  -4.046  26.379  1.00  0.00     0.001 A 
HETATM   20  C15 UNL     1      44.551  -2.981  25.645  1.00  0.00     0.000 A 
HETATM   21  C16 UNL     1      44.433  -1.704  26.163  1.00  0.00     0.001 A 
HETATM   22  C17 UNL     1      43.841  -1.441  27.382  1.00  0.00     0.012 A 
ENDBRANCH  15  17
BRANCH  16  23
HETATM   23  O1  UNL     1      44.701  -1.373  30.164  1.00  0.00    -0.359 OA
ATOM     24  H1  UNL     1      45.107  -0.548  30.404  1.00  0.00     0.217 HD
ENDBRANCH  16  23
ENDBRANCH   7  11
BRANCH   1  25
HETATM   25  C1  UNL     1      46.647   0.795  37.667  1.00  0.00     0.120 C 
HETATM   26  N1  UNL     1      48.016   0.415  37.543  1.00  0.00    -0.082 NA
HETATM   27  N2  UNL     1      46.213   1.169  38.812  1.00  0.00    -0.387 N 
ATOM     28  H22 UNL     1      46.808   1.207  39.639  1.00  0.00     0.157 HD
ATOM     29  H21 UNL     1      45.233   1.441  38.900  1.00  0.00     0.157 HD
ENDBRANCH   1  25
TORSDOF 4
ENDMDL
