MODEL 1
REMARK VINA RESULT: -8.552762896      0.000      0.000
REMARK  4 active torsions:
REMARK  status: ('A' for Active; 'I' for Inactive)
REMARK    1  A    between atoms: C1_2  and  C2_6 
REMARK    2  A    between atoms: C6_12  and  C7_13 
REMARK    3  A    between atoms: C11_17  and  C12_18 
REMARK    4  A    between atoms: C18_24  and  O1_25 
ROOT
HETATM    1  C2  UNL     1      44.227  -3.072  26.598  1.00  0.00     0.005 A 
HETATM    2  C3  UNL     1      44.657  -1.747  26.676  1.00  0.00     0.017 A 
HETATM    3  C4  UNL     1      44.682  -1.062  27.863  1.00  0.00     0.031 A 
HETATM    4  C5  UNL     1      44.259  -1.735  29.020  1.00  0.00     0.043 A 
HETATM    5  N3  UNL     1      44.184  -1.317  30.279  1.00  0.00    -0.355 N 
ATOM      6  H3  UNL     1      44.446  -0.379  30.583  1.00  0.00     0.166 HD
HETATM    7  C6  UNL     1      43.716  -2.287  31.121  1.00  0.00     0.046 A 
HETATM    8  C19 UNL     1      43.498  -3.356  30.297  1.00  0.00     0.044 A 
HETATM    9  C20 UNL     1      43.837  -3.017  28.979  1.00  0.00    -0.006 A 
HETATM   10  C21 UNL     1      43.821  -3.680  27.782  1.00  0.00     0.028 A 
ENDROOT
BRANCH   7  11
HETATM   11  C7  UNL     1      43.481  -2.066  32.552  1.00  0.00     0.025 A 
HETATM   12  C8  UNL     1      42.692  -2.988  33.209  1.00  0.00     0.016 A 
HETATM   13  C9  UNL     1      42.370  -2.882  34.534  1.00  0.00     0.002 A 
HETATM   14  C10 UNL     1      42.863  -1.809  35.214  1.00  0.00     0.015 A 
HETATM   15  C11 UNL     1      43.648  -0.850  34.644  1.00  0.00     0.008 A 
HETATM   16  C18 UNL     1      43.957  -0.998  33.268  1.00  0.00     0.089 A 
BRANCH  15  17
HETATM   17  C12 UNL     1      44.160   0.286  35.390  1.00  0.00    -0.023 A 
HETATM   18  C13 UNL     1      45.316   0.133  36.112  1.00  0.00     0.012 A 
HETATM   19  C14 UNL     1      45.875   1.163  36.852  1.00  0.00     0.001 A 
HETATM   20  C15 UNL     1      45.234   2.391  36.854  1.00  0.00     0.000 A 
HETATM   21  C16 UNL     1      44.069   2.534  36.121  1.00  0.00     0.001 A 
HETATM   22  C17 UNL     1      43.514   1.507  35.386  1.00  0.00     0.012 A 
ENDBRANCH  15  17
BRANCH  16  23
HETATM   23  O1  UNL     1      44.731  -0.007  32.756  1.00  0.00    -0.359 OA
ATOM     24  H1  UNL     1      45.268   0.582  33.273  1.00  0.00     0.217 HD
ENDBRANCH  16  23
ENDBRANCH   7  11
BRANCH   1  25
HETATM   25  C1  UNL     1      44.214  -3.767  25.322  1.00  0.00     0.120 C 
HETATM   26  N1  UNL     1      44.362  -3.004  24.126  1.00  0.00    -0.082 NA
HETATM   27  N2  UNL     1      44.074  -5.036  25.230  1.00  0.00    -0.387 N 
ATOM     28  H22 UNL     1      44.065  -5.523  24.334  1.00  0.00     0.157 HD
ATOM     29  H21 UNL     1      43.968  -5.582  26.085  1.00  0.00     0.157 HD
ENDBRANCH   1  25
TORSDOF 4
ENDMDL
