MODEL 5
REMARK VINA RESULT: -7.566876741      1.061      1.590
REMARK  4 active torsions:
REMARK  status: ('A' for Active; 'I' for Inactive)
REMARK    1  A    between atoms: C1_2  and  C2_6 
REMARK    2  A    between atoms: C6_12  and  C7_13 
REMARK    3  A    between atoms: C11_17  and  C12_18 
REMARK    4  A    between atoms: C18_24  and  O1_25 
ROOT
HETATM    1  C2  UNL     1      44.043  -2.948  26.994  1.00  0.00     0.005 A 
HETATM    2  C3  UNL     1      43.516  -4.171  27.412  1.00  0.00     0.017 A 
HETATM    3  C4  UNL     1      43.184  -4.406  28.721  1.00  0.00     0.031 A 
HETATM    4  C5  UNL     1      43.390  -3.373  29.649  1.00  0.00     0.043 A 
HETATM    5  N3  UNL     1      43.159  -3.333  30.957  1.00  0.00    -0.355 N 
ATOM      6  H3  UNL     1      42.772  -4.112  31.490  1.00  0.00     0.166 HD
HETATM    7  C6  UNL     1      43.498  -2.128  31.507  1.00  0.00     0.046 A 
HETATM    8  C19 UNL     1      43.965  -1.405  30.444  1.00  0.00     0.044 A 
HETATM    9  C20 UNL     1      43.900  -2.179  29.277  1.00  0.00    -0.006 A 
HETATM   10  C21 UNL     1      44.223  -1.968  27.964  1.00  0.00     0.028 A 
ENDROOT
BRANCH   7  11
HETATM   11  C7  UNL     1      43.399  -1.842  32.942  1.00  0.00     0.025 A 
HETATM   12  C8  UNL     1      43.136  -2.908  33.778  1.00  0.00     0.016 A 
HETATM   13  C9  UNL     1      42.987  -2.772  35.131  1.00  0.00     0.002 A 
HETATM   14  C10 UNL     1      43.110  -1.520  35.652  1.00  0.00     0.015 A 
HETATM   15  C11 UNL     1      43.369  -0.411  34.900  1.00  0.00     0.008 A 
HETATM   16  C18 UNL     1      43.514  -0.596  33.502  1.00  0.00     0.089 A 
BRANCH  15  17
HETATM   17  C12 UNL     1      43.494   0.914  35.479  1.00  0.00    -0.023 A 
HETATM   18  C13 UNL     1      44.739   1.357  35.850  1.00  0.00     0.012 A 
HETATM   19  C14 UNL     1      44.949   2.607  36.410  1.00  0.00     0.001 A 
HETATM   20  C15 UNL     1      43.854   3.434  36.598  1.00  0.00     0.000 A 
HETATM   21  C16 UNL     1      42.604   2.978  36.220  1.00  0.00     0.001 A 
HETATM   22  C17 UNL     1      42.396   1.733  35.663  1.00  0.00     0.012 A 
ENDBRANCH  15  17
BRANCH  16  23
HETATM   23  O1  UNL     1      43.758   0.545  32.807  1.00  0.00    -0.359 OA
ATOM     24  H1  UNL     1      43.421   1.402  33.040  1.00  0.00     0.217 HD
ENDBRANCH  16  23
ENDBRANCH   7  11
BRANCH   1  25
HETATM   25  C1  UNL     1      44.384  -2.735  25.598  1.00  0.00     0.120 C 
HETATM   26  N1  UNL     1      44.441  -1.398  25.104  1.00  0.00    -0.082 NA
HETATM   27  N2  UNL     1      44.635  -3.700  24.794  1.00  0.00    -0.387 N 
ATOM     28  H22 UNL     1      44.874  -3.550  23.815  1.00  0.00     0.157 HD
ATOM     29  H21 UNL     1      44.593  -4.656  25.148  1.00  0.00     0.157 HD
ENDBRANCH   1  25
TORSDOF 4
ENDMDL
