MODEL 2
REMARK VINA RESULT: -8.274692177      0.985      1.558
REMARK  4 active torsions:
REMARK  status: ('A' for Active; 'I' for Inactive)
REMARK    1  A    between atoms: C1_2  and  C2_6 
REMARK    2  A    between atoms: C6_12  and  C7_13 
REMARK    3  A    between atoms: C11_17  and  C12_18 
REMARK    4  A    between atoms: C18_24  and  O1_25 
ROOT
HETATM    1  C2  UNL     1      44.209  -3.069  26.680  1.00  0.00     0.005 A 
HETATM    2  C3  UNL     1      44.697  -1.769  26.824  1.00  0.00     0.017 A 
HETATM    3  C4  UNL     1      44.694  -1.124  28.033  1.00  0.00     0.031 A 
HETATM    4  C5  UNL     1      44.180  -1.811  29.144  1.00  0.00     0.043 A 
HETATM    5  N3  UNL     1      44.061  -1.429  30.411  1.00  0.00    -0.355 N 
ATOM      6  H3  UNL     1      44.351  -0.515  30.759  1.00  0.00     0.166 HD
HETATM    7  C6  UNL     1      43.504  -2.401  31.196  1.00  0.00     0.046 A 
HETATM    8  C19 UNL     1      43.277  -3.431  30.326  1.00  0.00     0.044 A 
HETATM    9  C20 UNL     1      43.699  -3.069  29.039  1.00  0.00    -0.006 A 
HETATM   10  C21 UNL     1      43.713  -3.692  27.821  1.00  0.00     0.028 A 
ENDROOT
BRANCH   7  11
HETATM   11  C7  UNL     1      43.206  -2.213  32.619  1.00  0.00     0.025 A 
HETATM   12  C8  UNL     1      43.037  -3.352  33.381  1.00  0.00     0.016 A 
HETATM   13  C9  UNL     1      42.725  -3.316  34.713  1.00  0.00     0.002 A 
HETATM   14  C10 UNL     1      42.581  -2.091  35.289  1.00  0.00     0.015 A 
HETATM   15  C11 UNL     1      42.729  -0.915  34.612  1.00  0.00     0.008 A 
HETATM   16  C18 UNL     1      43.051  -0.998  33.234  1.00  0.00     0.089 A 
BRANCH  15  17
HETATM   17  C12 UNL     1      42.569   0.379  35.249  1.00  0.00    -0.023 A 
HETATM   18  C13 UNL     1      41.305   0.894  35.389  1.00  0.00     0.012 A 
HETATM   19  C14 UNL     1      41.062   2.121  35.984  1.00  0.00     0.001 A 
HETATM   20  C15 UNL     1      42.144   2.849  36.454  1.00  0.00     0.000 A 
HETATM   21  C16 UNL     1      43.414   2.320  36.308  1.00  0.00     0.001 A 
HETATM   22  C17 UNL     1      43.654   1.097  35.715  1.00  0.00     0.012 A 
ENDBRANCH  15  17
BRANCH  16  23
HETATM   23  O1  UNL     1      43.174   0.204  32.613  1.00  0.00    -0.359 OA
ATOM     24  H1  UNL     1      44.000   0.627  32.413  1.00  0.00     0.217 HD
ENDBRANCH  16  23
ENDBRANCH   7  11
BRANCH   1  25
HETATM   25  C1  UNL     1      44.228  -3.721  25.382  1.00  0.00     0.120 C 
HETATM   26  N1  UNL     1      44.376  -2.917  24.214  1.00  0.00    -0.082 NA
HETATM   27  N2  UNL     1      44.118  -4.990  25.247  1.00  0.00    -0.387 N 
ATOM     28  H22 UNL     1      44.132  -5.448  24.336  1.00  0.00     0.157 HD
ATOM     29  H21 UNL     1      44.012  -5.565  26.082  1.00  0.00     0.157 HD
ENDBRANCH   1  25
TORSDOF 4
ENDMDL
