MODEL 12
REMARK VINA RESULT: -6.984466552      4.581      8.698
REMARK  4 active torsions:
REMARK  status: ('A' for Active; 'I' for Inactive)
REMARK    1  A    between atoms: C1_2  and  C2_6 
REMARK    2  A    between atoms: C6_12  and  C7_13 
REMARK    3  A    between atoms: C11_17  and  C12_18 
REMARK    4  A    between atoms: C18_24  and  O1_25 
ROOT
HETATM    1  C2  UNL     1      37.631   1.875  34.219  1.00  0.00     0.005 A 
HETATM    2  C3  UNL     1      36.868   1.413  33.146  1.00  0.00     0.017 A 
HETATM    3  C4  UNL     1      37.338   0.460  32.280  1.00  0.00     0.031 A 
HETATM    4  C5  UNL     1      38.627  -0.051  32.501  1.00  0.00     0.043 A 
HETATM    5  N3  UNL     1      39.316  -0.967  31.827  1.00  0.00    -0.355 N 
ATOM      6  H3  UNL     1      38.963  -1.449  31.000  1.00  0.00     0.166 HD
HETATM    7  C6  UNL     1      40.551  -1.190  32.369  1.00  0.00     0.046 A 
HETATM    8  C19 UNL     1      40.594  -0.341  33.440  1.00  0.00     0.044 A 
HETATM    9  C20 UNL     1      39.392   0.375  33.529  1.00  0.00    -0.006 A 
HETATM   10  C21 UNL     1      38.900   1.327  34.380  1.00  0.00     0.028 A 
ENDROOT
BRANCH   7  11
HETATM   11  C7  UNL     1      41.533  -2.107  31.783  1.00  0.00     0.025 A 
HETATM   12  C8  UNL     1      41.960  -3.157  32.570  1.00  0.00     0.016 A 
HETATM   13  C9  UNL     1      42.896  -4.065  32.156  1.00  0.00     0.002 A 
HETATM   14  C10 UNL     1      43.413  -3.905  30.907  1.00  0.00     0.015 A 
HETATM   15  C11 UNL     1      43.050  -2.896  30.063  1.00  0.00     0.008 A 
HETATM   16  C18 UNL     1      42.079  -1.977  30.532  1.00  0.00     0.089 A 
BRANCH  15  17
HETATM   17  C12 UNL     1      43.618  -2.745  28.735  1.00  0.00    -0.023 A 
HETATM   18  C13 UNL     1      43.422  -3.745  27.816  1.00  0.00     0.012 A 
HETATM   19  C14 UNL     1      43.928  -3.683  26.528  1.00  0.00     0.001 A 
HETATM   20  C15 UNL     1      44.658  -2.564  26.163  1.00  0.00     0.000 A 
HETATM   21  C16 UNL     1      44.849  -1.562  27.097  1.00  0.00     0.001 A 
HETATM   22  C17 UNL     1      44.344  -1.625  28.380  1.00  0.00     0.012 A 
ENDBRANCH  15  17
BRANCH  16  23
HETATM   23  O1  UNL     1      41.768  -0.990  29.652  1.00  0.00    -0.359 OA
ATOM     24  H1  UNL     1      42.324  -0.710  28.934  1.00  0.00     0.217 HD
ENDBRANCH  16  23
ENDBRANCH   7  11
BRANCH   1  25
HETATM   25  C1  UNL     1      37.100   2.886  35.117  1.00  0.00     0.120 C 
HETATM   26  N1  UNL     1      37.558   2.912  36.467  1.00  0.00    -0.082 NA
HETATM   27  N2  UNL     1      36.238   3.756  34.742  1.00  0.00    -0.387 N 
ATOM     28  H22 UNL     1      35.866   4.466  35.371  1.00  0.00     0.157 HD
ATOM     29  H21 UNL     1      35.910   3.737  33.776  1.00  0.00     0.157 HD
ENDBRANCH   1  25
TORSDOF 4
ENDMDL
