MODEL 9
REMARK VINA RESULT: -6.822488362      3.781      7.591
REMARK  3 active torsions:
REMARK  status: ('A' for Active; 'I' for Inactive)
REMARK    1  A    between atoms: C5_6  and  O1_7 
REMARK    2  A    between atoms: C6_9  and  C7_10 
REMARK    3  A    between atoms: C11_14  and  C12_15 
ROOT
HETATM    1  C7  UNL     1      43.582  -1.458  31.230  1.00  0.00     0.046 A 
HETATM    2  C8  UNL     1      42.607  -1.398  32.236  1.00  0.00     0.044 A 
HETATM    3  C9  UNL     1      42.964  -0.501  33.201  1.00  0.00    -0.006 A 
HETATM    4  C10 UNL     1      42.430  -0.034  34.382  1.00  0.00     0.028 A 
HETATM    5  C11 UNL     1      43.046   0.909  35.168  1.00  0.00     0.005 A 
HETATM    6  C13 UNL     1      44.258   1.386  34.714  1.00  0.00     0.017 A 
HETATM    7  C14 UNL     1      44.842   0.958  33.544  1.00  0.00     0.031 A 
HETATM    8  C15 UNL     1      44.176   0.009  32.796  1.00  0.00     0.043 A 
HETATM    9  N3  UNL     1      44.516  -0.584  31.615  1.00  0.00    -0.355 N 
ATOM     10  H3  UNL     1      45.371  -0.387  31.094  1.00  0.00     0.166 HD
ENDROOT
BRANCH   1  11
HETATM   11  C6  UNL     1      43.508  -2.318  30.053  1.00  0.00     0.026 A 
HETATM   12  C5  UNL     1      43.995  -1.966  28.820  1.00  0.00     0.095 A 
HETATM   13  C4  UNL     1      43.917  -2.797  27.705  1.00  0.00     0.045 A 
HETATM   14  C3  UNL     1      43.334  -4.013  27.838  1.00  0.00     0.028 A 
HETATM   15 BR1  UNL     1      44.636  -2.183  26.043  1.00  0.00    -0.048 Br
HETATM   16  C2  UNL     1      42.828  -4.407  29.071  1.00  0.00    -0.060 A 
HETATM   17  C1  UNL     1      42.208  -5.749  29.131  1.00  0.00     0.048 C 
HETATM   18  C16 UNL     1      42.918  -3.568  30.156  1.00  0.00     0.023 A 
BRANCH  12  19
HETATM   19  O1  UNL     1      44.594  -0.726  28.665  1.00  0.00    -0.358 OA
ATOM     20  H1  UNL     1      44.289  -0.012  29.213  1.00  0.00     0.217 HD
ENDBRANCH  12  19
ENDBRANCH   1  11
BRANCH   5  21
HETATM   21  C12 UNL     1      42.483   1.413  36.430  1.00  0.00     0.120 C 
HETATM   22  N1  UNL     1      42.538   0.548  37.549  1.00  0.00    -0.082 NA
HETATM   23  N2  UNL     1      41.963   2.589  36.515  1.00  0.00    -0.387 N 
ATOM     24  H22 UNL     1      41.924   3.212  35.709  1.00  0.00     0.157 HD
ATOM     25  H21 UNL     1      41.573   2.939  37.391  1.00  0.00     0.157 HD
ENDBRANCH   5  21
TORSDOF 3
ENDMDL
