MODEL 14
REMARK VINA RESULT: -6.390111453      3.304      5.101
REMARK  3 active torsions:
REMARK  status: ('A' for Active; 'I' for Inactive)
REMARK    1  A    between atoms: C5_6  and  O1_7 
REMARK    2  A    between atoms: C6_9  and  C7_10 
REMARK    3  A    between atoms: C11_14  and  C12_15 
ROOT
HETATM    1  C7  UNL     1      43.742   0.207  34.134  1.00  0.00     0.046 A 
HETATM    2  C8  UNL     1      44.337  -0.236  32.944  1.00  0.00     0.044 A 
HETATM    3  C9  UNL     1      43.409  -0.814  32.127  1.00  0.00    -0.006 A 
HETATM    4  C10 UNL     1      43.400  -1.407  30.884  1.00  0.00     0.028 A 
HETATM    5  C11 UNL     1      42.266  -1.918  30.300  1.00  0.00     0.005 A 
HETATM    6  C13 UNL     1      41.100  -1.809  31.030  1.00  0.00     0.017 A 
HETATM    7  C14 UNL     1      41.048  -1.229  32.276  1.00  0.00     0.031 A 
HETATM    8  C15 UNL     1      42.218  -0.734  32.812  1.00  0.00     0.043 A 
HETATM    9  N3  UNL     1      42.453  -0.118  34.007  1.00  0.00    -0.355 N 
ATOM     10  H3  UNL     1      41.739   0.070  34.711  1.00  0.00     0.166 HD
ENDROOT
BRANCH   1  11
HETATM   11  C6  UNL     1      44.456   0.870  35.221  1.00  0.00     0.026 A 
HETATM   12  C5  UNL     1      44.039   2.039  35.805  1.00  0.00     0.095 A 
HETATM   13  C4  UNL     1      44.731   2.661  36.843  1.00  0.00     0.045 A 
HETATM   14  C3  UNL     1      45.869   2.088  37.302  1.00  0.00     0.028 A 
HETATM   15 BR1  UNL     1      44.039   4.290  37.567  1.00  0.00    -0.048 Br
HETATM   16  C2  UNL     1      46.325   0.902  36.737  1.00  0.00    -0.060 A 
HETATM   17  C1  UNL     1      47.575   0.343  37.296  1.00  0.00     0.048 C 
HETATM   18  C16 UNL     1      45.624   0.309  35.715  1.00  0.00     0.023 A 
BRANCH  12  19
HETATM   19  O1  UNL     1      42.877   2.640  35.348  1.00  0.00    -0.358 OA
ATOM     20  H1  UNL     1      42.942   3.228  34.604  1.00  0.00     0.217 HD
ENDBRANCH  12  19
ENDBRANCH   1  11
BRANCH   5  21
HETATM   21  C12 UNL     1      42.246  -2.552  28.972  1.00  0.00     0.120 C 
HETATM   22  N1  UNL     1      43.293  -2.211  28.082  1.00  0.00    -0.082 NA
HETATM   23  N2  UNL     1      41.319  -3.380  28.633  1.00  0.00    -0.387 N 
ATOM     24  H22 UNL     1      40.565  -3.624  29.275  1.00  0.00     0.157 HD
ATOM     25  H21 UNL     1      41.305  -3.820  27.713  1.00  0.00     0.157 HD
ENDBRANCH   5  21
TORSDOF 3
ENDMDL
