MODEL 2
REMARK VINA RESULT: -7.954601293      1.566      1.574
REMARK  3 active torsions:
REMARK  status: ('A' for Active; 'I' for Inactive)
REMARK    1  A    between atoms: C5_6  and  O1_7 
REMARK    2  A    between atoms: C6_9  and  C7_10 
REMARK    3  A    between atoms: C11_14  and  C12_15 
ROOT
HETATM    1  C7  UNL     1      42.698  -1.779  30.383  1.00  0.00     0.046 A 
HETATM    2  C8  UNL     1      42.605  -2.900  29.545  1.00  0.00     0.044 A 
HETATM    3  C9  UNL     1      43.256  -2.677  28.366  1.00  0.00    -0.006 A 
HETATM    4  C10 UNL     1      43.495  -3.380  27.206  1.00  0.00     0.028 A 
HETATM    5  C11 UNL     1      44.212  -2.871  26.150  1.00  0.00     0.005 A 
HETATM    6  C13 UNL     1      44.698  -1.589  26.302  1.00  0.00     0.017 A 
HETATM    7  C14 UNL     1      44.491  -0.838  27.437  1.00  0.00     0.031 A 
HETATM    8  C15 UNL     1      43.763  -1.402  28.464  1.00  0.00     0.043 A 
HETATM    9  N3  UNL     1      43.412  -0.894  29.682  1.00  0.00    -0.355 N 
ATOM     10  H3  UNL     1      43.661   0.038  30.013  1.00  0.00     0.166 HD
ENDROOT
BRANCH   1  11
HETATM   11  C6  UNL     1      42.112  -1.689  31.716  1.00  0.00     0.026 A 
HETATM   12  C5  UNL     1      41.112  -0.810  32.051  1.00  0.00     0.095 A 
HETATM   13  C4  UNL     1      40.561  -0.735  33.329  1.00  0.00     0.045 A 
HETATM   14  C3  UNL     1      41.029  -1.566  34.290  1.00  0.00     0.028 A 
HETATM   15 BR1  UNL     1      39.172   0.537  33.661  1.00  0.00    -0.048 Br
HETATM   16  C2  UNL     1      42.041  -2.471  33.990  1.00  0.00    -0.060 A 
HETATM   17  C1  UNL     1      42.495  -3.342  35.097  1.00  0.00     0.048 C 
HETATM   18  C16 UNL     1      42.568  -2.526  32.723  1.00  0.00     0.023 A 
BRANCH  12  19
HETATM   19  O1  UNL     1      40.621   0.048  31.080  1.00  0.00    -0.358 OA
ATOM     20  H1  UNL     1      41.247   0.492  30.519  1.00  0.00     0.217 HD
ENDBRANCH  12  19
ENDBRANCH   1  11
BRANCH   5  21
HETATM   21  C12 UNL     1      44.473  -3.614  24.908  1.00  0.00     0.120 C 
HETATM   22  N1  UNL     1      44.602  -2.854  23.720  1.00  0.00    -0.082 NA
HETATM   23  N2  UNL     1      44.580  -4.898  24.899  1.00  0.00    -0.387 N 
ATOM     24  H22 UNL     1      44.486  -5.445  25.754  1.00  0.00     0.157 HD
ATOM     25  H21 UNL     1      44.761  -5.413  24.037  1.00  0.00     0.157 HD
ENDBRANCH   5  21
TORSDOF 3
ENDMDL
