MODEL 13
REMARK VINA RESULT: -6.499058329      3.942      7.767
REMARK  3 active torsions:
REMARK  status: ('A' for Active; 'I' for Inactive)
REMARK    1  A    between atoms: C5_6  and  O1_7 
REMARK    2  A    between atoms: C6_9  and  C7_10 
REMARK    3  A    between atoms: C11_14  and  C12_15 
ROOT
HETATM    1  C7  UNL     1      43.547  -0.978  31.745  1.00  0.00     0.046 A 
HETATM    2  C8  UNL     1      42.812  -0.856  32.933  1.00  0.00     0.044 A 
HETATM    3  C9  UNL     1      43.480  -0.082  33.837  1.00  0.00    -0.006 A 
HETATM    4  C10 UNL     1      43.265   0.372  35.119  1.00  0.00     0.028 A 
HETATM    5  C11 UNL     1      44.156   1.168  35.798  1.00  0.00     0.005 A 
HETATM    6  C13 UNL     1      45.310   1.508  35.122  1.00  0.00     0.017 A 
HETATM    7  C14 UNL     1      45.580   1.085  33.841  1.00  0.00     0.031 A 
HETATM    8  C15 UNL     1      44.648   0.287  33.211  1.00  0.00     0.043 A 
HETATM    9  N3  UNL     1      44.656  -0.266  31.962  1.00  0.00    -0.355 N 
ATOM     10  H3  UNL     1      45.410  -0.151  31.284  1.00  0.00     0.166 HD
ENDROOT
BRANCH   1  11
HETATM   11  C6  UNL     1      43.116  -1.738  30.577  1.00  0.00     0.026 A 
HETATM   12  C5  UNL     1      43.795  -1.754  29.384  1.00  0.00     0.095 A 
HETATM   13  C4  UNL     1      43.371  -2.485  28.277  1.00  0.00     0.045 A 
HETATM   14  C3  UNL     1      42.236  -3.219  28.375  1.00  0.00     0.028 A 
HETATM   15 BR1  UNL     1      44.412  -2.419  26.674  1.00  0.00    -0.048 Br
HETATM   16  C2  UNL     1      41.520  -3.229  29.567  1.00  0.00    -0.060 A 
HETATM   17  C1  UNL     1      40.293  -4.055  29.590  1.00  0.00     0.048 C 
HETATM   18  C16 UNL     1      41.959  -2.500  30.645  1.00  0.00     0.023 A 
BRANCH  12  19
HETATM   19  O1  UNL     1      44.958  -1.010  29.265  1.00  0.00    -0.358 OA
ATOM     20  H1  UNL     1      45.300  -0.589  30.046  1.00  0.00     0.217 HD
ENDBRANCH  12  19
ENDBRANCH   1  11
BRANCH   5  21
HETATM   21  C12 UNL     1      43.935   1.657  37.168  1.00  0.00     0.120 C 
HETATM   22  N1  UNL     1      44.935   2.491  37.721  1.00  0.00    -0.082 NA
HETATM   23  N2  UNL     1      42.878   1.341  37.835  1.00  0.00    -0.387 N 
ATOM     24  H22 UNL     1      42.158   0.740  37.436  1.00  0.00     0.157 HD
ATOM     25  H21 UNL     1      42.725   1.680  38.785  1.00  0.00     0.157 HD
ENDBRANCH   5  21
TORSDOF 3
ENDMDL
