MODEL 1
REMARK VINA RESULT: -8.534781831      0.000      0.000
REMARK  3 active torsions:
REMARK  status: ('A' for Active; 'I' for Inactive)
REMARK    1  A    between atoms: C5_6  and  O1_7 
REMARK    2  A    between atoms: C6_9  and  C7_10 
REMARK    3  A    between atoms: C11_14  and  C12_15 
ROOT
HETATM    1  C7  UNL     1      43.519  -2.052  30.614  1.00  0.00     0.046 A 
HETATM    2  C8  UNL     1      43.408  -3.168  29.772  1.00  0.00     0.044 A 
HETATM    3  C9  UNL     1      43.794  -2.853  28.501  1.00  0.00    -0.006 A 
HETATM    4  C10 UNL     1      43.896  -3.508  27.294  1.00  0.00     0.028 A 
HETATM    5  C11 UNL     1      44.334  -2.903  26.141  1.00  0.00     0.005 A 
HETATM    6  C13 UNL     1      44.679  -1.571  26.243  1.00  0.00     0.017 A 
HETATM    7  C14 UNL     1      44.597  -0.864  27.420  1.00  0.00     0.031 A 
HETATM    8  C15 UNL     1      44.150  -1.525  28.545  1.00  0.00     0.043 A 
HETATM    9  N3  UNL     1      43.974  -1.077  29.823  1.00  0.00    -0.355 N 
ATOM     10  H3  UNL     1      44.164  -0.124  30.133  1.00  0.00     0.166 HD
ENDROOT
BRANCH   1  11
HETATM   11  C6  UNL     1      43.186  -2.049  32.035  1.00  0.00     0.026 A 
HETATM   12  C5  UNL     1      43.304  -0.947  32.843  1.00  0.00     0.095 A 
HETATM   13  C4  UNL     1      42.982  -0.959  34.199  1.00  0.00     0.045 A 
HETATM   14  C3  UNL     1      42.530  -2.110  34.751  1.00  0.00     0.028 A 
HETATM   15 BR1  UNL     1      43.193   0.649  35.212  1.00  0.00    -0.048 Br
HETATM   16  C2  UNL     1      42.396  -3.250  33.965  1.00  0.00    -0.060 A 
HETATM   17  C1  UNL     1      41.896  -4.464  34.646  1.00  0.00     0.048 C 
HETATM   18  C16 UNL     1      42.720  -3.211  32.631  1.00  0.00     0.023 A 
BRANCH  12  19
HETATM   19  O1  UNL     1      43.765   0.240  32.296  1.00  0.00    -0.358 OA
ATOM     20  H1  UNL     1      43.508   0.448  31.405  1.00  0.00     0.217 HD
ENDBRANCH  12  19
ENDBRANCH   1  11
BRANCH   5  21
HETATM   21  C12 UNL     1      44.447  -3.595  24.848  1.00  0.00     0.120 C 
HETATM   22  N1  UNL     1      44.559  -2.784  23.693  1.00  0.00    -0.082 NA
HETATM   23  N2  UNL     1      44.444  -4.881  24.768  1.00  0.00    -0.387 N 
ATOM     24  H22 UNL     1      44.362  -5.465  25.600  1.00  0.00     0.157 HD
ATOM     25  H21 UNL     1      44.522  -5.361  23.871  1.00  0.00     0.157 HD
ENDBRANCH   5  21
TORSDOF 3
ENDMDL
