MODEL 13
REMARK VINA RESULT: -6.642143649      3.893      7.810
REMARK  3 active torsions:
REMARK  status: ('A' for Active; 'I' for Inactive)
REMARK    1  A    between atoms: C5_6  and  O1_7 
REMARK    2  A    between atoms: C6_9  and  C7_10 
REMARK    3  A    between atoms: C10_15  and  C11_16 
ROOT
HETATM    1  C7  UNL     1      43.550  -1.347  31.692  1.00  0.00     0.119 A 
HETATM    2  N1  UNL     1      44.435  -0.441  32.122  1.00  0.00    -0.340 N 
ATOM      3  H1  UNL     1      45.332  -0.251  31.676  1.00  0.00     0.167 HD
HETATM    4  C8  UNL     1      43.980   0.187  33.225  1.00  0.00     0.061 A 
HETATM    5  C9  UNL     1      44.502   1.171  34.023  1.00  0.00     0.046 A 
HETATM    6  C10 UNL     1      43.777   1.631  35.129  1.00  0.00     0.007 A 
HETATM    7  C12 UNL     1      42.549   1.044  35.347  1.00  0.00     0.017 A 
HETATM    8  C13 UNL     1      42.009   0.052  34.554  1.00  0.00     0.033 A 
HETATM    9  C14 UNL     1      42.748  -0.380  33.472  1.00  0.00     0.060 A 
HETATM   10  N4  UNL     1      42.500  -1.306  32.537  1.00  0.00    -0.340 N 
ATOM     11  H4  UNL     1      41.661  -1.882  32.474  1.00  0.00     0.167 HD
ENDROOT
BRANCH   1  12
HETATM   12  C6  UNL     1      43.624  -2.249  30.544  1.00  0.00     0.043 A 
HETATM   13  C5  UNL     1      43.342  -3.587  30.605  1.00  0.00     0.097 A 
HETATM   14  C4  UNL     1      43.431  -4.407  29.464  1.00  0.00     0.045 A 
HETATM   15  C3  UNL     1      43.806  -3.870  28.262  1.00  0.00     0.028 A 
HETATM   16 BR1  UNL     1      43.036  -6.269  29.560  1.00  0.00    -0.048 Br
HETATM   17  C2  UNL     1      44.095  -2.534  28.169  1.00  0.00    -0.060 A 
HETATM   18  C1  UNL     1      44.501  -1.955  26.869  1.00  0.00     0.048 C 
HETATM   19  C15 UNL     1      43.999  -1.746  29.315  1.00  0.00     0.025 A 
BRANCH  13  20
HETATM   20  O1  UNL     1      42.964  -4.187  31.764  1.00  0.00    -0.358 OA
ATOM     21  H1  UNL     1      42.495  -3.650  32.392  1.00  0.00     0.217 HD
ENDBRANCH  13  20
ENDBRANCH   1  12
BRANCH   6  22
HETATM   22  C11 UNL     1      44.334   2.674  35.972  1.00  0.00     0.120 C 
HETATM   23  N2  UNL     1      45.616   2.465  36.533  1.00  0.00    -0.082 NA
HETATM   24  N3  UNL     1      43.710   3.740  36.209  1.00  0.00    -0.387 N 
ATOM     25  H32 UNL     1      42.785   3.891  35.805  1.00  0.00     0.157 HD
ATOM     26  H31 UNL     1      44.101   4.474  36.801  1.00  0.00     0.157 HD
ENDBRANCH   6  22
TORSDOF 3
ENDMDL
