MODEL 2
REMARK VINA RESULT: -7.848696260      1.625      1.670
REMARK  3 active torsions:
REMARK  status: ('A' for Active; 'I' for Inactive)
REMARK    1  A    between atoms: C5_6  and  O1_7 
REMARK    2  A    between atoms: C6_9  and  C7_10 
REMARK    3  A    between atoms: C10_15  and  C11_16 
ROOT
HETATM    1  C7  UNL     1      42.485  -1.815  30.266  1.00  0.00     0.119 A 
HETATM    2  N1  UNL     1      42.424  -2.868  29.444  1.00  0.00    -0.340 N 
ATOM      3  H1  UNL     1      41.909  -3.727  29.641  1.00  0.00     0.167 HD
HETATM    4  C8  UNL     1      43.134  -2.642  28.321  1.00  0.00     0.061 A 
HETATM    5  C9  UNL     1      43.377  -3.393  27.201  1.00  0.00     0.046 A 
HETATM    6  C10 UNL     1      44.177  -2.876  26.174  1.00  0.00     0.007 A 
HETATM    7  C12 UNL     1      44.680  -1.608  26.366  1.00  0.00     0.017 A 
HETATM    8  C13 UNL     1      44.446  -0.839  27.487  1.00  0.00     0.033 A 
HETATM    9  C14 UNL     1      43.655  -1.375  28.482  1.00  0.00     0.060 A 
HETATM   10  N4  UNL     1      43.254  -0.887  29.662  1.00  0.00    -0.340 N 
ATOM     11  H4  UNL     1      43.489   0.030  30.041  1.00  0.00     0.167 HD
ENDROOT
BRANCH   1  12
HETATM   12  C6  UNL     1      41.872  -1.622  31.579  1.00  0.00     0.043 A 
HETATM   13  C5  UNL     1      40.895  -0.699  31.837  1.00  0.00     0.097 A 
HETATM   14  C4  UNL     1      40.341  -0.557  33.124  1.00  0.00     0.045 A 
HETATM   15  C3  UNL     1      40.779  -1.352  34.149  1.00  0.00     0.028 A 
HETATM   16 BR1  UNL     1      38.982   0.731  33.472  1.00  0.00    -0.048 Br
HETATM   17  C2  UNL     1      41.756  -2.287  33.922  1.00  0.00    -0.060 A 
HETATM   18  C1  UNL     1      42.228  -3.145  35.031  1.00  0.00     0.048 C 
HETATM   19  C15 UNL     1      42.286  -2.404  32.637  1.00  0.00     0.025 A 
BRANCH  13  20
HETATM   20  O1  UNL     1      40.413   0.123  30.868  1.00  0.00    -0.358 OA
ATOM     21  H1  UNL     1      40.641   1.043  30.934  1.00  0.00     0.217 HD
ENDBRANCH  13  20
ENDBRANCH   1  12
BRANCH   6  22
HETATM   22  C11 UNL     1      44.432  -3.675  24.988  1.00  0.00     0.120 C 
HETATM   23  N2  UNL     1      44.480  -3.015  23.737  1.00  0.00    -0.082 NA
HETATM   24  N3  UNL     1      44.607  -4.919  25.050  1.00  0.00    -0.387 N 
ATOM     25  H32 UNL     1      44.571  -5.394  25.952  1.00  0.00     0.157 HD
ATOM     26  H31 UNL     1      44.786  -5.480  24.218  1.00  0.00     0.157 HD
ENDBRANCH   6  22
TORSDOF 3
ENDMDL
