MODEL 15
REMARK VINA RESULT: -6.522921758      3.901      7.504
REMARK  3 active torsions:
REMARK  status: ('A' for Active; 'I' for Inactive)
REMARK    1  A    between atoms: C5_6  and  O1_7 
REMARK    2  A    between atoms: C6_9  and  C7_10 
REMARK    3  A    between atoms: C10_15  and  C11_16 
ROOT
HETATM    1  C7  UNL     1      43.412  -1.582  31.310  1.00  0.00     0.119 A 
HETATM    2  N1  UNL     1      42.444  -1.427  32.218  1.00  0.00    -0.340 N 
ATOM      3  H1  UNL     1      41.552  -1.923  32.205  1.00  0.00     0.167 HD
HETATM    4  C8  UNL     1      42.803  -0.525  33.153  1.00  0.00     0.061 A 
HETATM    5  C9  UNL     1      42.175  -0.029  34.265  1.00  0.00     0.046 A 
HETATM    6  C10 UNL     1      42.817   0.927  35.063  1.00  0.00     0.007 A 
HETATM    7  C12 UNL     1      44.077   1.315  34.662  1.00  0.00     0.017 A 
HETATM    8  C13 UNL     1      44.724   0.827  33.546  1.00  0.00     0.033 A 
HETATM    9  C14 UNL     1      44.065  -0.113  32.780  1.00  0.00     0.060 A 
HETATM   10  N4  UNL     1      44.421  -0.761  31.663  1.00  0.00    -0.340 N 
ATOM     11  H4  UNL     1      45.305  -0.653  31.166  1.00  0.00     0.167 HD
ENDROOT
BRANCH   1  12
HETATM   12  C6  UNL     1      43.455  -2.448  30.133  1.00  0.00     0.043 A 
HETATM   13  C5  UNL     1      43.934  -2.054  28.913  1.00  0.00     0.097 A 
HETATM   14  C4  UNL     1      43.950  -2.933  27.813  1.00  0.00     0.045 A 
HETATM   15  C3  UNL     1      43.480  -4.212  27.951  1.00  0.00     0.028 A 
HETATM   16 BR1  UNL     1      44.619  -2.375  26.119  1.00  0.00    -0.048 Br
HETATM   17  C2  UNL     1      42.994  -4.636  29.160  1.00  0.00    -0.060 A 
HETATM   18  C1  UNL     1      42.486  -6.018  29.308  1.00  0.00     0.048 C 
HETATM   19  C15 UNL     1      42.990  -3.743  30.232  1.00  0.00     0.025 A 
BRANCH  13  20
HETATM   20  O1  UNL     1      44.416  -0.801  28.703  1.00  0.00    -0.358 OA
ATOM     21  H1  UNL     1      45.012  -0.456  29.357  1.00  0.00     0.217 HD
ENDBRANCH  13  20
ENDBRANCH   1  12
BRANCH   6  22
HETATM   22  C11 UNL     1      42.147   1.449  36.241  1.00  0.00     0.120 C 
HETATM   23  N2  UNL     1      42.618   1.042  37.512  1.00  0.00    -0.082 NA
HETATM   24  N3  UNL     1      41.174   2.241  36.155  1.00  0.00    -0.387 N 
ATOM     25  H32 UNL     1      40.835   2.535  35.239  1.00  0.00     0.157 HD
ATOM     26  H31 UNL     1      40.704   2.609  36.983  1.00  0.00     0.157 HD
ENDBRANCH   6  22
TORSDOF 3
ENDMDL
