MODEL 4
REMARK VINA RESULT: -7.786829173      1.242      1.258
REMARK  3 active torsions:
REMARK  status: ('A' for Active; 'I' for Inactive)
REMARK    1  A    between atoms: C5_6  and  O1_7 
REMARK    2  A    between atoms: C6_9  and  C7_10 
REMARK    3  A    between atoms: C10_15  and  C11_16 
ROOT
HETATM    1  C7  UNL     1      42.548  -1.833  30.265  1.00  0.00     0.119 A 
HETATM    2  N1  UNL     1      42.521  -2.903  29.464  1.00  0.00    -0.340 N 
ATOM      3  H1  UNL     1      42.063  -3.786  29.693  1.00  0.00     0.167 HD
HETATM    4  C8  UNL     1      43.180  -2.659  28.314  1.00  0.00     0.061 A 
HETATM    5  C9  UNL     1      43.429  -3.416  27.200  1.00  0.00     0.046 A 
HETATM    6  C10 UNL     1      44.164  -2.875  26.137  1.00  0.00     0.007 A 
HETATM    7  C12 UNL     1      44.601  -1.577  26.290  1.00  0.00     0.017 A 
HETATM    8  C13 UNL     1      44.359  -0.801  27.405  1.00  0.00     0.033 A 
HETATM    9  C14 UNL     1      43.633  -1.362  28.435  1.00  0.00     0.060 A 
HETATM   10  N4  UNL     1      43.243  -0.875  29.620  1.00  0.00    -0.340 N 
ATOM     11  H4  UNL     1      43.438   0.061  29.974  1.00  0.00     0.167 HD
ENDROOT
BRANCH   1  12
HETATM   12  C6  UNL     1      41.969  -1.649  31.594  1.00  0.00     0.043 A 
HETATM   13  C5  UNL     1      42.491  -0.817  32.546  1.00  0.00     0.097 A 
HETATM   14  C4  UNL     1      41.888  -0.680  33.811  1.00  0.00     0.045 A 
HETATM   15  C3  UNL     1      40.755  -1.388  34.110  1.00  0.00     0.028 A 
HETATM   16 BR1  UNL     1      42.625   0.481  35.130  1.00  0.00    -0.048 Br
HETATM   17  C2  UNL     1      40.207  -2.230  33.177  1.00  0.00    -0.060 A 
HETATM   18  C1  UNL     1      38.982  -2.994  33.501  1.00  0.00     0.048 C 
HETATM   19  C15 UNL     1      40.827  -2.345  31.933  1.00  0.00     0.025 A 
BRANCH  13  20
HETATM   20  O1  UNL     1      43.613  -0.085  32.319  1.00  0.00    -0.358 OA
ATOM     21  H1  UNL     1      43.591   0.827  32.586  1.00  0.00     0.217 HD
ENDBRANCH  13  20
ENDBRANCH   1  12
BRANCH   6  22
HETATM   22  C11 UNL     1      44.426  -3.682  24.958  1.00  0.00     0.120 C 
HETATM   23  N2  UNL     1      44.490  -3.028  23.704  1.00  0.00    -0.082 NA
HETATM   24  N3  UNL     1      44.593  -4.926  25.028  1.00  0.00    -0.387 N 
ATOM     25  H32 UNL     1      44.546  -5.397  25.931  1.00  0.00     0.157 HD
ATOM     26  H31 UNL     1      44.776  -5.493  24.199  1.00  0.00     0.157 HD
ENDBRANCH   6  22
TORSDOF 3
ENDMDL
