MODEL 6
REMARK VINA RESULT: -7.489068903      1.094      1.861
REMARK  3 active torsions:
REMARK  status: ('A' for Active; 'I' for Inactive)
REMARK    1  A    between atoms: C5_6  and  O1_7 
REMARK    2  A    between atoms: C6_9  and  C7_10 
REMARK    3  A    between atoms: C10_15  and  C11_16 
ROOT
HETATM    1  C7  UNL     1      43.321  -1.975  31.319  1.00  0.00     0.119 A 
HETATM    2  N1  UNL     1      43.474  -1.159  30.271  1.00  0.00    -0.340 N 
ATOM      3  H1  UNL     1      43.427  -0.141  30.318  1.00  0.00     0.167 HD
HETATM    4  C8  UNL     1      43.697  -1.863  29.144  1.00  0.00     0.061 A 
HETATM    5  C9  UNL     1      43.912  -1.499  27.840  1.00  0.00     0.046 A 
HETATM    6  C10 UNL     1      44.117  -2.483  26.865  1.00  0.00     0.007 A 
HETATM    7  C12 UNL     1      44.089  -3.791  27.296  1.00  0.00     0.017 A 
HETATM    8  C13 UNL     1      43.875  -4.175  28.604  1.00  0.00     0.033 A 
HETATM    9  C14 UNL     1      43.675  -3.183  29.542  1.00  0.00     0.060 A 
HETATM   10  N4  UNL     1      43.447  -3.236  30.860  1.00  0.00    -0.340 N 
ATOM     11  H4  UNL     1      43.380  -4.085  31.421  1.00  0.00     0.167 HD
ENDROOT
BRANCH   1  12
HETATM   12  C6  UNL     1      43.064  -1.652  32.721  1.00  0.00     0.043 A 
HETATM   13  C5  UNL     1      43.422  -0.469  33.310  1.00  0.00     0.097 A 
HETATM   14  C4  UNL     1      43.148  -0.213  34.667  1.00  0.00     0.045 A 
HETATM   15  C3  UNL     1      42.511  -1.157  35.428  1.00  0.00     0.028 A 
HETATM   16 BR1  UNL     1      43.651   1.437  35.477  1.00  0.00    -0.048 Br
HETATM   17  C2  UNL     1      42.140  -2.352  34.867  1.00  0.00    -0.060 A 
HETATM   18  C1  UNL     1      41.452  -3.371  35.689  1.00  0.00     0.048 C 
HETATM   19  C15 UNL     1      42.425  -2.577  33.520  1.00  0.00     0.025 A 
BRANCH  13  20
HETATM   20  O1  UNL     1      44.057   0.513  32.617  1.00  0.00    -0.358 OA
ATOM     21  H1  UNL     1      44.663   0.236  31.940  1.00  0.00     0.217 HD
ENDBRANCH  13  20
ENDBRANCH   1  12
BRANCH   6  22
HETATM   22  C11 UNL     1      44.344  -2.092  25.485  1.00  0.00     0.120 C 
HETATM   23  N2  UNL     1      44.562  -3.114  24.530  1.00  0.00    -0.082 NA
HETATM   24  N3  UNL     1      44.351  -0.886  25.128  1.00  0.00    -0.387 N 
ATOM     25  H32 UNL     1      44.194  -0.150  25.817  1.00  0.00     0.157 HD
ATOM     26  H31 UNL     1      44.510  -0.612  24.158  1.00  0.00     0.157 HD
ENDBRANCH   6  22
TORSDOF 3
ENDMDL
