MODEL 1
REMARK VINA RESULT: -8.199040697      0.000      0.000
REMARK  3 active torsions:
REMARK  status: ('A' for Active; 'I' for Inactive)
REMARK    1  A    between atoms: C5_6  and  O1_7 
REMARK    2  A    between atoms: C6_9  and  C7_10 
REMARK    3  A    between atoms: C10_15  and  C11_16 
ROOT
HETATM    1  C7  UNL     1      43.374  -2.331  30.590  1.00  0.00     0.119 A 
HETATM    2  N1  UNL     1      43.270  -3.338  29.718  1.00  0.00    -0.340 N 
ATOM      3  H1  UNL     1      42.904  -4.264  29.942  1.00  0.00     0.167 HD
HETATM    4  C8  UNL     1      43.714  -2.966  28.501  1.00  0.00     0.061 A 
HETATM    5  C9  UNL     1      43.814  -3.620  27.301  1.00  0.00     0.046 A 
HETATM    6  C10 UNL     1      44.331  -2.954  26.183  1.00  0.00     0.007 A 
HETATM    7  C12 UNL     1      44.717  -1.644  26.372  1.00  0.00     0.017 A 
HETATM    8  C13 UNL     1      44.624  -0.971  27.572  1.00  0.00     0.033 A 
HETATM    9  C14 UNL     1      44.111  -1.654  28.656  1.00  0.00     0.060 A 
HETATM   10  N4  UNL     1      43.899  -1.283  29.925  1.00  0.00    -0.340 N 
ATOM     11  H4  UNL     1      44.100  -0.365  30.320  1.00  0.00     0.167 HD
ENDROOT
BRANCH   1  12
HETATM   12  C6  UNL     1      43.015  -2.286  32.007  1.00  0.00     0.043 A 
HETATM   13  C5  UNL     1      43.105  -1.160  32.781  1.00  0.00     0.097 A 
HETATM   14  C4  UNL     1      42.745  -1.177  34.142  1.00  0.00     0.045 A 
HETATM   15  C3  UNL     1      42.294  -2.334  34.718  1.00  0.00     0.028 A 
HETATM   16 BR1  UNL     1      42.873   0.395  35.211  1.00  0.00    -0.048 Br
HETATM   17  C2  UNL     1      42.193  -3.478  33.969  1.00  0.00    -0.060 A 
HETATM   18  C1  UNL     1      41.706  -4.728  34.592  1.00  0.00     0.048 C 
HETATM   19  C15 UNL     1      42.557  -3.431  32.623  1.00  0.00     0.025 A 
BRANCH  13  20
HETATM   20  O1  UNL     1      43.543   0.023  32.277  1.00  0.00    -0.358 OA
ATOM     21  H1  UNL     1      43.325   0.210  31.372  1.00  0.00     0.217 HD
ENDBRANCH  13  20
ENDBRANCH   1  12
BRANCH   6  22
HETATM   22  C11 UNL     1      44.434  -3.651  24.913  1.00  0.00     0.120 C 
HETATM   23  N2  UNL     1      44.587  -2.877  23.738  1.00  0.00    -0.082 NA
HETATM   24  N3  UNL     1      44.392  -4.905  24.838  1.00  0.00    -0.387 N 
ATOM     25  H32 UNL     1      44.282  -5.463  25.685  1.00  0.00     0.157 HD
ATOM     26  H31 UNL     1      44.465  -5.395  23.946  1.00  0.00     0.157 HD
ENDBRANCH   6  22
TORSDOF 3
ENDMDL
