MODEL 12
REMARK VINA RESULT: -7.026186533      3.906      7.464
REMARK  3 active torsions:
REMARK  status: ('A' for Active; 'I' for Inactive)
REMARK    1  A    between atoms: C5_6  and  O1_7 
REMARK    2  A    between atoms: C6_9  and  C7_10 
REMARK    3  A    between atoms: C10_15  and  C11_16 
ROOT
HETATM    1  C7  UNL     1      43.464  -1.516  31.297  1.00  0.00     0.119 A 
HETATM    2  N1  UNL     1      44.428  -0.689  31.715  1.00  0.00    -0.340 N 
ATOM      3  H1  UNL     1      45.306  -0.527  31.221  1.00  0.00     0.167 HD
HETATM    4  C8  UNL     1      44.083  -0.099  32.876  1.00  0.00     0.061 A 
HETATM    5  C9  UNL     1      44.714   0.806  33.689  1.00  0.00     0.046 A 
HETATM    6  C10 UNL     1      44.089   1.245  34.864  1.00  0.00     0.007 A 
HETATM    7  C12 UNL     1      42.843   0.719  35.130  1.00  0.00     0.017 A 
HETATM    8  C13 UNL     1      42.194  -0.193  34.323  1.00  0.00     0.033 A 
HETATM    9  C14 UNL     1      42.835  -0.606  33.173  1.00  0.00     0.060 A 
HETATM   10  N4  UNL     1      42.473  -1.461  32.209  1.00  0.00    -0.340 N 
ATOM     11  H4  UNL     1      41.598  -1.982  32.171  1.00  0.00     0.167 HD
ENDROOT
BRANCH   1  12
HETATM   12  C6  UNL     1      43.410  -2.354  30.100  1.00  0.00     0.043 A 
HETATM   13  C5  UNL     1      43.948  -1.997  28.893  1.00  0.00     0.097 A 
HETATM   14  C4  UNL     1      43.865  -2.847  27.774  1.00  0.00     0.045 A 
HETATM   15  C3  UNL     1      43.237  -4.059  27.878  1.00  0.00     0.028 A 
HETATM   16 BR1  UNL     1      44.617  -2.340  26.098  1.00  0.00    -0.048 Br
HETATM   17  C2  UNL     1      42.688  -4.445  29.074  1.00  0.00    -0.060 A 
HETATM   18  C1  UNL     1      42.010  -5.755  29.186  1.00  0.00     0.048 C 
HETATM   19  C15 UNL     1      42.786  -3.582  30.165  1.00  0.00     0.025 A 
BRANCH  13  20
HETATM   20  O1  UNL     1      44.586  -0.810  28.716  1.00  0.00    -0.358 OA
ATOM     21  H1  UNL     1      45.487  -0.759  29.012  1.00  0.00     0.217 HD
ENDBRANCH  13  20
ENDBRANCH   1  12
BRANCH   6  22
HETATM   22  C11 UNL     1      44.761   2.204  35.722  1.00  0.00     0.120 C 
HETATM   23  N2  UNL     1      44.050   3.364  36.110  1.00  0.00    -0.082 NA
HETATM   24  N3  UNL     1      45.941   2.027  36.120  1.00  0.00    -0.387 N 
ATOM     25  H32 UNL     1      46.453   1.191  35.840  1.00  0.00     0.157 HD
ATOM     26  H31 UNL     1      46.413   2.701  36.723  1.00  0.00     0.157 HD
ENDBRANCH   6  22
TORSDOF 3
ENDMDL
