MODEL 3
REMARK VINA RESULT: -7.756326298      0.987      1.121
REMARK  5 active torsions:
REMARK  status: ('A' for Active; 'I' for Inactive)
REMARK    1  A    between atoms: C1_2  and  C2_6 
REMARK    2  A    between atoms: C6_12  and  C7_13 
REMARK    3  A    between atoms: C9_15  and  C10_16 
REMARK    4  A    between atoms: C10_16  and  C11_17 
REMARK    5  A    between atoms: C14_23  and  O3_24 
ROOT
HETATM    1  C2  UNL     1      44.020  -2.833  26.184  1.00  0.00     0.005 A 
HETATM    2  C3  UNL     1      44.337  -1.506  26.305  1.00  0.00     0.017 A 
HETATM    3  C4  UNL     1      44.243  -0.796  27.500  1.00  0.00     0.031 A 
HETATM    4  C5  UNL     1      43.802  -1.450  28.653  1.00  0.00     0.043 A 
HETATM    5  N3  UNL     1      43.616  -1.039  29.903  1.00  0.00    -0.355 N 
ATOM      6  H3  UNL     1      43.784  -0.091  30.240  1.00  0.00     0.166 HD
HETATM    7  C6  UNL     1      43.165  -2.084  30.671  1.00  0.00     0.046 A 
HETATM    8  C15 UNL     1      43.084  -3.147  29.827  1.00  0.00     0.044 A 
HETATM    9  C16 UNL     1      43.487  -2.769  28.530  1.00  0.00    -0.006 A 
HETATM   10  C17 UNL     1      43.582  -3.467  27.350  1.00  0.00     0.028 A 
ENDROOT
BRANCH   7  11
HETATM   11  C7  UNL     1      42.809  -1.912  32.077  1.00  0.00     0.026 A 
HETATM   12  C8  UNL     1      42.253  -3.015  32.744  1.00  0.00     0.024 A 
HETATM   13  C9  UNL     1      41.846  -2.990  34.053  1.00  0.00    -0.046 A 
HETATM   14  C12 UNL     1      41.994  -1.804  34.755  1.00  0.00     0.029 A 
HETATM   15  C13 UNL     1      42.533  -0.704  34.133  1.00  0.00     0.045 A 
HETATM   16 BR1  UNL     1      42.724   0.920  35.129  1.00  0.00    -0.048 Br
HETATM   17  C14 UNL     1      42.949  -0.741  32.778  1.00  0.00     0.095 A 
BRANCH  13  18
HETATM   18  C10 UNL     1      41.260  -4.172  34.735  1.00  0.00     0.151 C 
BRANCH  18  19
HETATM   19  C11 UNL     1      40.136  -4.728  33.938  1.00  0.00     0.176 C 
HETATM   20  O1  UNL     1      39.053  -4.095  33.845  1.00  0.00    -0.648 OA
HETATM   21  O2  UNL     1      40.215  -5.938  33.272  1.00  0.00    -0.648 OA
ENDBRANCH  18  19
ENDBRANCH  13  18
BRANCH  17  22
HETATM   22  O3  UNL     1      43.444   0.434  32.329  1.00  0.00    -0.358 OA
ATOM     23  H3  UNL     1      43.050   1.295  32.406  1.00  0.00     0.217 HD
ENDBRANCH  17  22
ENDBRANCH   7  11
BRANCH   1  24
HETATM   24  C1  UNL     1      44.125  -3.560  24.935  1.00  0.00     0.120 C 
HETATM   25  N1  UNL     1      44.284  -2.824  23.719  1.00  0.00    -0.082 NA
HETATM   26  N2  UNL     1      44.076  -4.835  24.919  1.00  0.00    -0.387 N 
ATOM     27  H22 UNL     1      44.149  -5.346  24.039  1.00  0.00     0.157 HD
ATOM     28  H21 UNL     1      43.962  -5.360  25.786  1.00  0.00     0.157 HD
ENDBRANCH   1  24
TORSDOF 5
ENDMDL
