MODEL 19
REMARK VINA RESULT: -6.843946168      3.833      5.628
REMARK  5 active torsions:
REMARK  status: ('A' for Active; 'I' for Inactive)
REMARK    1  A    between atoms: C1_2  and  C2_6 
REMARK    2  A    between atoms: C6_12  and  C7_13 
REMARK    3  A    between atoms: C9_15  and  C10_16 
REMARK    4  A    between atoms: C10_16  and  C11_17 
REMARK    5  A    between atoms: C14_23  and  O3_24 
ROOT
HETATM    1  C2  UNL     1      41.985  -1.782  30.514  1.00  0.00     0.005 A 
HETATM    2  C3  UNL     1      40.894  -1.739  31.341  1.00  0.00     0.017 A 
HETATM    3  C4  UNL     1      40.889  -1.106  32.582  1.00  0.00     0.031 A 
HETATM    4  C5  UNL     1      42.050  -0.474  33.032  1.00  0.00     0.043 A 
HETATM    5  N3  UNL     1      42.333   0.194  34.146  1.00  0.00    -0.355 N 
ATOM      6  H3  UNL     1      41.682   0.360  34.914  1.00  0.00     0.166 HD
HETATM    7  C6  UNL     1      43.636   0.627  34.106  1.00  0.00     0.046 A 
HETATM    8  C15 UNL     1      44.129   0.188  32.916  1.00  0.00     0.044 A 
HETATM    9  C16 UNL     1      43.134  -0.517  32.210  1.00  0.00    -0.006 A 
HETATM   10  C17 UNL     1      43.135  -1.142  30.985  1.00  0.00     0.028 A 
ENDROOT
BRANCH   7  11
HETATM   11  C7  UNL     1      44.250   1.334  35.227  1.00  0.00     0.026 A 
HETATM   12  C8  UNL     1      45.378   0.748  35.822  1.00  0.00     0.024 A 
HETATM   13  C9  UNL     1      46.038   1.282  36.899  1.00  0.00    -0.046 A 
HETATM   14  C12 UNL     1      45.560   2.472  37.426  1.00  0.00     0.029 A 
HETATM   15  C13 UNL     1      44.457   3.072  36.869  1.00  0.00     0.045 A 
HETATM   16 BR1  UNL     1      43.820   4.715  37.620  1.00  0.00    -0.048 Br
HETATM   17  C14 UNL     1      43.781   2.509  35.757  1.00  0.00     0.095 A 
BRANCH  13  18
HETATM   18  C10 UNL     1      47.230   0.641  37.510  1.00  0.00     0.151 C 
BRANCH  18  19
HETATM   19  C11 UNL     1      47.801  -0.378  36.591  1.00  0.00     0.176 C 
HETATM   20  O1  UNL     1      48.550  -0.027  35.644  1.00  0.00    -0.648 OA
HETATM   21  O2  UNL     1      47.547  -1.731  36.723  1.00  0.00    -0.648 OA
ENDBRANCH  18  19
ENDBRANCH  13  18
BRANCH  17  22
HETATM   22  O3  UNL     1      42.712   3.228  35.349  1.00  0.00    -0.358 OA
ATOM     23  H3  UNL     1      42.581   4.165  35.428  1.00  0.00     0.217 HD
ENDBRANCH  17  22
ENDBRANCH   7  11
BRANCH   1  24
HETATM   24  C1  UNL     1      41.975  -2.443  29.225  1.00  0.00     0.120 C 
HETATM   25  N1  UNL     1      43.013  -2.144  28.288  1.00  0.00    -0.082 NA
HETATM   26  N2  UNL     1      41.056  -3.278  28.930  1.00  0.00    -0.387 N 
ATOM     27  H22 UNL     1      41.049  -3.744  28.022  1.00  0.00     0.157 HD
ATOM     28  H21 UNL     1      40.316  -3.491  29.599  1.00  0.00     0.157 HD
ENDBRANCH   1  24
TORSDOF 5
ENDMDL
