MODEL 18
REMARK VINA RESULT: -6.862314270      3.796      7.233
REMARK  5 active torsions:
REMARK  status: ('A' for Active; 'I' for Inactive)
REMARK    1  A    between atoms: C1_2  and  C2_6 
REMARK    2  A    between atoms: C6_12  and  C7_13 
REMARK    3  A    between atoms: C9_15  and  C10_16 
REMARK    4  A    between atoms: C10_16  and  C11_17 
REMARK    5  A    between atoms: C14_23  and  O3_24 
ROOT
HETATM    1  C2  UNL     1      42.979   1.322  35.167  1.00  0.00     0.005 A 
HETATM    2  C3  UNL     1      44.158   1.730  34.602  1.00  0.00     0.017 A 
HETATM    3  C4  UNL     1      44.655   1.226  33.402  1.00  0.00     0.031 A 
HETATM    4  C5  UNL     1      43.930   0.247  32.718  1.00  0.00     0.043 A 
HETATM    5  N3  UNL     1      44.151  -0.402  31.580  1.00  0.00    -0.355 N 
ATOM      6  H3  UNL     1      44.964  -0.272  30.977  1.00  0.00     0.166 HD
HETATM    7  C6  UNL     1      43.120  -1.276  31.339  1.00  0.00     0.046 A 
HETATM    8  C15 UNL     1      42.264  -1.127  32.385  1.00  0.00     0.044 A 
HETATM    9  C16 UNL     1      42.758  -0.157  33.281  1.00  0.00    -0.006 A 
HETATM   10  C17 UNL     1      42.270   0.343  34.464  1.00  0.00     0.028 A 
ENDROOT
BRANCH   7  11
HETATM   11  C7  UNL     1      43.124  -2.177  30.189  1.00  0.00     0.026 A 
HETATM   12  C8  UNL     1      42.694  -3.497  30.399  1.00  0.00     0.024 A 
HETATM   13  C9  UNL     1      42.673  -4.458  29.422  1.00  0.00    -0.046 A 
HETATM   14  C12 UNL     1      43.101  -4.101  28.152  1.00  0.00     0.029 A 
HETATM   15  C13 UNL     1      43.530  -2.818  27.912  1.00  0.00     0.045 A 
HETATM   16 BR1  UNL     1      44.116  -2.355  26.148  1.00  0.00    -0.048 Br
HETATM   17  C14 UNL     1      43.550  -1.833  28.931  1.00  0.00     0.095 A 
BRANCH  13  18
HETATM   18  C10 UNL     1      42.213  -5.848  29.671  1.00  0.00     0.151 C 
BRANCH  18  19
HETATM   19  C11 UNL     1      42.764  -6.356  30.954  1.00  0.00     0.176 C 
HETATM   20  O1  UNL     1      41.996  -6.612  31.916  1.00  0.00    -0.648 OA
HETATM   21  O2  UNL     1      44.116  -6.569  31.156  1.00  0.00    -0.648 OA
ENDBRANCH  18  19
ENDBRANCH  13  18
BRANCH  17  22
HETATM   22  O3  UNL     1      44.012  -0.632  28.518  1.00  0.00    -0.358 OA
ATOM     23  H3  UNL     1      43.563   0.005  27.975  1.00  0.00     0.217 HD
ENDBRANCH  17  22
ENDBRANCH   7  11
BRANCH   1  24
HETATM   24  C1  UNL     1      42.474   1.857  36.415  1.00  0.00     0.120 C 
HETATM   25  N1  UNL     1      43.057   1.413  37.643  1.00  0.00    -0.082 NA
HETATM   26  N2  UNL     1      41.524   2.710  36.419  1.00  0.00    -0.387 N 
ATOM     27  H22 UNL     1      41.168   3.086  37.298  1.00  0.00     0.157 HD
ATOM     28  H21 UNL     1      41.108   3.026  35.543  1.00  0.00     0.157 HD
ENDBRANCH   1  24
TORSDOF 5
ENDMDL
