MODEL 1
REMARK VINA RESULT: -7.981500615      0.000      0.000
REMARK  5 active torsions:
REMARK  status: ('A' for Active; 'I' for Inactive)
REMARK    1  A    between atoms: C1_2  and  C2_6 
REMARK    2  A    between atoms: C6_12  and  C7_13 
REMARK    3  A    between atoms: C9_15  and  C10_16 
REMARK    4  A    between atoms: C10_16  and  C11_17 
REMARK    5  A    between atoms: C14_23  and  O3_24 
ROOT
HETATM    1  C2  UNL     1      44.052  -2.837  26.211  1.00  0.00     0.005 A 
HETATM    2  C3  UNL     1      44.367  -1.510  26.334  1.00  0.00     0.017 A 
HETATM    3  C4  UNL     1      44.261  -0.798  27.527  1.00  0.00     0.031 A 
HETATM    4  C5  UNL     1      43.807  -1.451  28.676  1.00  0.00     0.043 A 
HETATM    5  N3  UNL     1      43.609  -1.038  29.923  1.00  0.00    -0.355 N 
ATOM      6  H3  UNL     1      43.773  -0.089  30.261  1.00  0.00     0.166 HD
HETATM    7  C6  UNL     1      43.149  -2.082  30.688  1.00  0.00     0.046 A 
HETATM    8  C15 UNL     1      43.077  -3.146  29.844  1.00  0.00     0.044 A 
HETATM    9  C16 UNL     1      43.493  -2.770  28.552  1.00  0.00    -0.006 A 
HETATM   10  C17 UNL     1      43.601  -3.469  27.374  1.00  0.00     0.028 A 
ENDROOT
BRANCH   7  11
HETATM   11  C7  UNL     1      42.778  -1.908  32.090  1.00  0.00     0.026 A 
HETATM   12  C8  UNL     1      42.150  -2.986  32.732  1.00  0.00     0.024 A 
HETATM   13  C9  UNL     1      41.721  -2.955  34.034  1.00  0.00    -0.046 A 
HETATM   14  C12 UNL     1      41.923  -1.788  34.755  1.00  0.00     0.029 A 
HETATM   15  C13 UNL     1      42.533  -0.713  34.157  1.00  0.00     0.045 A 
HETATM   16 BR1  UNL     1      42.797   0.886  35.178  1.00  0.00    -0.048 Br
HETATM   17  C14 UNL     1      42.970  -0.755  32.809  1.00  0.00     0.095 A 
BRANCH  13  18
HETATM   18  C10 UNL     1      41.059  -4.111  34.690  1.00  0.00     0.151 C 
BRANCH  18  19
HETATM   19  C11 UNL     1      42.060  -5.152  35.041  1.00  0.00     0.176 C 
HETATM   20  O1  UNL     1      42.621  -5.137  36.166  1.00  0.00    -0.648 OA
HETATM   21  O2  UNL     1      42.419  -6.169  34.174  1.00  0.00    -0.648 OA
ENDBRANCH  18  19
ENDBRANCH  13  18
BRANCH  17  22
HETATM   22  O3  UNL     1      43.538   0.396  32.385  1.00  0.00    -0.358 OA
ATOM     23  H3  UNL     1      43.541   1.236  32.827  1.00  0.00     0.217 HD
ENDBRANCH  17  22
ENDBRANCH   7  11
BRANCH   1  24
HETATM   24  C1  UNL     1      44.169  -3.565  24.964  1.00  0.00     0.120 C 
HETATM   25  N1  UNL     1      44.337  -2.830  23.749  1.00  0.00    -0.082 NA
HETATM   26  N2  UNL     1      44.123  -4.840  24.949  1.00  0.00    -0.387 N 
ATOM     27  H22 UNL     1      44.205  -5.353  24.071  1.00  0.00     0.157 HD
ATOM     28  H21 UNL     1      44.002  -5.364  25.817  1.00  0.00     0.157 HD
ENDBRANCH   1  24
TORSDOF 5
ENDMDL
