MODEL 12
REMARK VINA RESULT: -7.061470970      1.011      1.503
REMARK  5 active torsions:
REMARK  status: ('A' for Active; 'I' for Inactive)
REMARK    1  A    between atoms: C1_2  and  C2_6 
REMARK    2  A    between atoms: C6_12  and  C7_13 
REMARK    3  A    between atoms: C9_15  and  C10_16 
REMARK    4  A    between atoms: C10_16  and  C11_17 
REMARK    5  A    between atoms: C14_23  and  O3_24 
ROOT
HETATM    1  C2  UNL     1      43.862  -2.597  26.356  1.00  0.00     0.005 A 
HETATM    2  C3  UNL     1      43.503  -3.849  26.779  1.00  0.00     0.017 A 
HETATM    3  C4  UNL     1      43.146  -4.148  28.092  1.00  0.00     0.031 A 
HETATM    4  C5  UNL     1      43.149  -3.131  29.051  1.00  0.00     0.043 A 
HETATM    5  N3  UNL     1      42.862  -3.121  30.348  1.00  0.00    -0.355 N 
ATOM      6  H3  UNL     1      42.569  -3.934  30.891  1.00  0.00     0.166 HD
HETATM    7  C6  UNL     1      43.020  -1.852  30.846  1.00  0.00     0.046 A 
HETATM    8  C15 UNL     1      43.417  -1.093  29.789  1.00  0.00     0.044 A 
HETATM    9  C16 UNL     1      43.507  -1.887  28.629  1.00  0.00    -0.006 A 
HETATM   10  C17 UNL     1      43.857  -1.596  27.332  1.00  0.00     0.028 A 
ENDROOT
BRANCH   7  11
HETATM   11  C7  UNL     1      42.838  -1.549  32.263  1.00  0.00     0.026 A 
HETATM   12  C8  UNL     1      42.064  -2.441  33.022  1.00  0.00     0.024 A 
HETATM   13  C9  UNL     1      41.785  -2.269  34.353  1.00  0.00    -0.046 A 
HETATM   14  C12 UNL     1      42.301  -1.147  34.983  1.00  0.00     0.029 A 
HETATM   15  C13 UNL     1      43.062  -0.252  34.271  1.00  0.00     0.045 A 
HETATM   16 BR1  UNL     1      43.760   1.289  35.169  1.00  0.00    -0.048 Br
HETATM   17  C14 UNL     1      43.342  -0.439  32.894  1.00  0.00     0.095 A 
BRANCH  13  18
HETATM   18  C10 UNL     1      40.963  -3.229  35.133  1.00  0.00     0.151 C 
BRANCH  18  19
HETATM   19  C11 UNL     1      41.486  -4.611  34.972  1.00  0.00     0.176 C 
HETATM   20  O1  UNL     1      42.470  -4.999  35.652  1.00  0.00    -0.648 OA
HETATM   21  O2  UNL     1      40.933  -5.522  34.091  1.00  0.00    -0.648 OA
ENDBRANCH  18  19
ENDBRANCH  13  18
BRANCH  17  22
HETATM   22  O3  UNL     1      44.094   0.545  32.353  1.00  0.00    -0.358 OA
ATOM     23  H3  UNL     1      44.320   1.381  32.743  1.00  0.00     0.217 HD
ENDBRANCH  17  22
ENDBRANCH   7  11
BRANCH   1  24
HETATM   24  C1  UNL     1      44.230  -2.300  24.986  1.00  0.00     0.120 C 
HETATM   25  N1  UNL     1      44.144  -0.949  24.525  1.00  0.00    -0.082 NA
HETATM   26  N2  UNL     1      44.624  -3.228  24.204  1.00  0.00    -0.387 N 
ATOM     27  H22 UNL     1      44.883  -3.019  23.239  1.00  0.00     0.157 HD
ATOM     28  H21 UNL     1      44.685  -4.192  24.533  1.00  0.00     0.157 HD
ENDBRANCH   1  24
TORSDOF 5
ENDMDL
