MODEL 20
REMARK VINA RESULT: -6.797772466      3.839      7.285
REMARK  5 active torsions:
REMARK  status: ('A' for Active; 'I' for Inactive)
REMARK    1  A    between atoms: C1_2  and  C2_6 
REMARK    2  A    between atoms: C6_12  and  C7_13 
REMARK    3  A    between atoms: C9_15  and  C10_16 
REMARK    4  A    between atoms: C10_16  and  C11_17 
REMARK    5  A    between atoms: C14_23  and  O3_24 
ROOT
HETATM    1  C2  UNL     1      43.076   1.307  35.188  1.00  0.00     0.005 A 
HETATM    2  C3  UNL     1      44.238   1.726  34.595  1.00  0.00     0.017 A 
HETATM    3  C4  UNL     1      44.708   1.229  33.381  1.00  0.00     0.031 A 
HETATM    4  C5  UNL     1      43.973   0.246  32.713  1.00  0.00     0.043 A 
HETATM    5  N3  UNL     1      44.171  -0.398  31.568  1.00  0.00    -0.355 N 
ATOM      6  H3  UNL     1      44.968  -0.259  30.945  1.00  0.00     0.166 HD
HETATM    7  C6  UNL     1      43.141  -1.278  31.349  1.00  0.00     0.046 A 
HETATM    8  C15 UNL     1      42.310  -1.138  32.417  1.00  0.00     0.044 A 
HETATM    9  C16 UNL     1      42.819  -0.168  33.303  1.00  0.00    -0.006 A 
HETATM   10  C17 UNL     1      42.357   0.325  34.500  1.00  0.00     0.028 A 
ENDROOT
BRANCH   7  11
HETATM   11  C7  UNL     1      43.122  -2.176  30.197  1.00  0.00     0.026 A 
HETATM   12  C8  UNL     1      42.685  -3.493  30.408  1.00  0.00     0.024 A 
HETATM   13  C9  UNL     1      42.643  -4.451  29.429  1.00  0.00    -0.046 A 
HETATM   14  C12 UNL     1      43.057  -4.093  28.155  1.00  0.00     0.029 A 
HETATM   15  C13 UNL     1      43.493  -2.813  27.912  1.00  0.00     0.045 A 
HETATM   16 BR1  UNL     1      44.061  -2.349  26.143  1.00  0.00    -0.048 Br
HETATM   17  C14 UNL     1      43.535  -1.831  28.934  1.00  0.00     0.095 A 
BRANCH  13  18
HETATM   18  C10 UNL     1      42.175  -5.837  29.680  1.00  0.00     0.151 C 
BRANCH  18  19
HETATM   19  C11 UNL     1      40.970  -5.830  30.550  1.00  0.00     0.176 C 
HETATM   20  O1  UNL     1      41.037  -6.268  31.727  1.00  0.00    -0.648 OA
HETATM   21  O2  UNL     1      39.743  -5.353  30.126  1.00  0.00    -0.648 OA
ENDBRANCH  18  19
ENDBRANCH  13  18
BRANCH  17  22
HETATM   22  O3  UNL     1      44.002  -0.633  28.519  1.00  0.00    -0.358 OA
ATOM     23  H3  UNL     1      44.170  -0.356  27.627  1.00  0.00     0.217 HD
ENDBRANCH  17  22
ENDBRANCH   7  11
BRANCH   1  24
HETATM   24  C1  UNL     1      42.598   1.835  36.450  1.00  0.00     0.120 C 
HETATM   25  N1  UNL     1      42.988   1.184  37.662  1.00  0.00    -0.082 NA
HETATM   26  N2  UNL     1      41.842   2.862  36.480  1.00  0.00    -0.387 N 
ATOM     27  H22 UNL     1      41.505   3.234  37.369  1.00  0.00     0.157 HD
ATOM     28  H21 UNL     1      41.564   3.326  35.615  1.00  0.00     0.157 HD
ENDBRANCH   1  24
TORSDOF 5
ENDMDL
