MODEL 5
REMARK VINA RESULT: -8.193416959      3.339      8.659
REMARK  4 active torsions:
REMARK  status: ('A' for Active; 'I' for Inactive)
REMARK    1  A    between atoms: C1_2  and  C2_6 
REMARK    2  A    between atoms: C6_12  and  C7_13 
REMARK    3  A    between atoms: C11_17  and  C12_18 
REMARK    4  A    between atoms: C18_24  and  O1_25 
ROOT
HETATM    1  C2  UNL     1      14.668   9.903  22.787  1.00  0.00     0.005 A 
HETATM    2  C3  UNL     1      13.747  10.872  23.188  1.00  0.00     0.017 A 
HETATM    3  C4  UNL     1      12.459  10.550  23.530  1.00  0.00     0.031 A 
HETATM    4  C5  UNL     1      12.080   9.200  23.467  1.00  0.00     0.043 A 
HETATM    5  N3  UNL     1      10.915   8.620  23.740  1.00  0.00    -0.355 N 
ATOM      6  H3  UNL     1      10.088   9.128  24.053  1.00  0.00     0.166 HD
HETATM    7  C6  UNL     1      10.953   7.266  23.553  1.00  0.00     0.046 A 
HETATM    8  C19 UNL     1      12.234   7.031  23.138  1.00  0.00     0.044 A 
HETATM    9  C20 UNL     1      12.946   8.237  23.083  1.00  0.00    -0.006 A 
HETATM   10  C21 UNL     1      14.226   8.584  22.746  1.00  0.00     0.028 A 
ENDROOT
BRANCH   7  11
HETATM   11  C7  UNL     1       9.784   6.397  23.725  1.00  0.00     0.025 A 
HETATM   12  C8  UNL     1       8.546   7.008  23.761  1.00  0.00     0.016 A 
HETATM   13  C9  UNL     1       7.381   6.317  23.948  1.00  0.00     0.002 A 
HETATM   14  C10 UNL     1       7.472   4.967  24.103  1.00  0.00     0.015 A 
HETATM   15  C11 UNL     1       8.652   4.282  24.083  1.00  0.00     0.008 A 
HETATM   16  C18 UNL     1       9.836   5.037  23.888  1.00  0.00     0.089 A 
BRANCH  15  17
HETATM   17  C12 UNL     1       8.723   2.842  24.252  1.00  0.00    -0.023 A 
HETATM   18  C13 UNL     1       8.428   2.307  25.480  1.00  0.00     0.012 A 
HETATM   19  C14 UNL     1       8.471   0.945  25.730  1.00  0.00     0.001 A 
HETATM   20  C15 UNL     1       8.826   0.099  24.692  1.00  0.00     0.000 A 
HETATM   21  C16 UNL     1       9.121   0.649  23.457  1.00  0.00     0.001 A 
HETATM   22  C17 UNL     1       9.078   2.006  23.211  1.00  0.00     0.012 A 
ENDBRANCH  15  17
BRANCH  16  23
HETATM   23  O1  UNL     1      10.978   4.302  23.889  1.00  0.00    -0.359 OA
ATOM     24  H1  UNL     1      11.307   3.813  23.144  1.00  0.00     0.217 HD
ENDBRANCH  16  23
ENDBRANCH   7  11
BRANCH   1  25
HETATM   25  C1  UNL     1      16.025  10.281  22.432  1.00  0.00     0.120 C 
HETATM   26  N1  UNL     1      16.226  11.465  21.663  1.00  0.00    -0.082 NA
HETATM   27  N2  UNL     1      17.046   9.593  22.783  1.00  0.00    -0.387 N 
ATOM     28  H22 UNL     1      17.999   9.859  22.534  1.00  0.00     0.157 HD
ATOM     29  H21 UNL     1      16.902   8.746  23.333  1.00  0.00     0.157 HD
ENDBRANCH   1  25
TORSDOF 4
ENDMDL
