MODEL 8
REMARK VINA RESULT: -7.891975317      0.834      1.773
REMARK  4 active torsions:
REMARK  status: ('A' for Active; 'I' for Inactive)
REMARK    1  A    between atoms: C1_2  and  C2_6 
REMARK    2  A    between atoms: C6_12  and  C7_13 
REMARK    3  A    between atoms: C11_17  and  C12_18 
REMARK    4  A    between atoms: C18_24  and  O1_25 
ROOT
HETATM    1  C2  UNL     1       8.658   0.801  24.316  1.00  0.00     0.005 A 
HETATM    2  C3  UNL     1       8.441   1.077  25.666  1.00  0.00     0.017 A 
HETATM    3  C4  UNL     1       8.604   2.336  26.184  1.00  0.00     0.031 A 
HETATM    4  C5  UNL     1       9.002   3.360  25.310  1.00  0.00     0.043 A 
HETATM    5  N3  UNL     1       9.229   4.649  25.543  1.00  0.00    -0.355 N 
ATOM      6  H3  UNL     1       9.134   5.086  26.459  1.00  0.00     0.166 HD
HETATM    7  C6  UNL     1       9.604   5.322  24.413  1.00  0.00     0.046 A 
HETATM    8  C19 UNL     1       9.598   4.358  23.443  1.00  0.00     0.044 A 
HETATM    9  C20 UNL     1       9.222   3.126  23.998  1.00  0.00    -0.006 A 
HETATM   10  C21 UNL     1       9.052   1.861  23.505  1.00  0.00     0.028 A 
ENDROOT
BRANCH   7  11
HETATM   11  C7  UNL     1       9.971   6.741  24.406  1.00  0.00     0.025 A 
HETATM   12  C8  UNL     1       9.211   7.590  25.186  1.00  0.00     0.016 A 
HETATM   13  C9  UNL     1       9.428   8.940  25.245  1.00  0.00     0.002 A 
HETATM   14  C10 UNL     1      10.444   9.444  24.492  1.00  0.00     0.015 A 
HETATM   15  C11 UNL     1      11.243   8.679  23.692  1.00  0.00     0.008 A 
HETATM   16  C18 UNL     1      10.983   7.285  23.660  1.00  0.00     0.089 A 
BRANCH  15  17
HETATM   17  C12 UNL     1      12.320   9.240  22.896  1.00  0.00    -0.023 A 
HETATM   18  C13 UNL     1      13.562   9.366  23.464  1.00  0.00     0.012 A 
HETATM   19  C14 UNL     1      14.645   9.891  22.777  1.00  0.00     0.001 A 
HETATM   20  C15 UNL     1      14.456  10.301  21.468  1.00  0.00     0.000 A 
HETATM   21  C16 UNL     1      13.199  10.168  20.905  1.00  0.00     0.001 A 
HETATM   22  C17 UNL     1      12.121   9.646  21.590  1.00  0.00     0.012 A 
ENDBRANCH  15  17
BRANCH  16  23
HETATM   23  O1  UNL     1      11.803   6.580  22.838  1.00  0.00    -0.359 OA
ATOM     24  H1  UNL     1      12.187   6.918  22.037  1.00  0.00     0.217 HD
ENDBRANCH  16  23
ENDBRANCH   7  11
BRANCH   1  25
HETATM   25  C1  UNL     1       8.475  -0.546  23.802  1.00  0.00     0.120 C 
HETATM   26  N1  UNL     1       8.430  -1.630  24.727  1.00  0.00    -0.082 NA
HETATM   27  N2  UNL     1       8.353  -0.796  22.552  1.00  0.00    -0.387 N 
ATOM     28  H22 UNL     1       8.225  -1.741  22.192  1.00  0.00     0.157 HD
ATOM     29  H21 UNL     1       8.387  -0.020  21.891  1.00  0.00     0.157 HD
ENDBRANCH   1  25
TORSDOF 4
ENDMDL
