MODEL 7
REMARK VINA RESULT: -7.985511569      2.988      8.594
REMARK  4 active torsions:
REMARK  status: ('A' for Active; 'I' for Inactive)
REMARK    1  A    between atoms: C1_2  and  C2_6 
REMARK    2  A    between atoms: C6_12  and  C7_13 
REMARK    3  A    between atoms: C11_17  and  C12_18 
REMARK    4  A    between atoms: C18_24  and  O1_25 
ROOT
HETATM    1  C2  UNL     1      14.315   9.979  23.070  1.00  0.00     0.005 A 
HETATM    2  C3  UNL     1      14.812   8.831  22.452  1.00  0.00     0.017 A 
HETATM    3  C4  UNL     1      14.071   7.681  22.359  1.00  0.00     0.031 A 
HETATM    4  C5  UNL     1      12.780   7.684  22.908  1.00  0.00     0.043 A 
HETATM    5  N3  UNL     1      11.863   6.722  22.955  1.00  0.00    -0.355 N 
ATOM      6  H3  UNL     1      11.998   5.789  22.566  1.00  0.00     0.166 HD
HETATM    7  C6  UNL     1      10.718   7.127  23.583  1.00  0.00     0.046 A 
HETATM    8  C19 UNL     1      10.980   8.422  23.934  1.00  0.00     0.044 A 
HETATM    9  C20 UNL     1      12.269   8.778  23.513  1.00  0.00    -0.006 A 
HETATM   10  C21 UNL     1      13.028   9.914  23.594  1.00  0.00     0.028 A 
ENDROOT
BRANCH   7  11
HETATM   11  C7  UNL     1       9.575   6.240  23.822  1.00  0.00     0.025 A 
HETATM   12  C8  UNL     1       8.336   6.834  23.955  1.00  0.00     0.016 A 
HETATM   13  C9  UNL     1       7.194   6.125  24.211  1.00  0.00     0.002 A 
HETATM   14  C10 UNL     1       7.312   4.774  24.336  1.00  0.00     0.015 A 
HETATM   15  C11 UNL     1       8.496   4.105  24.221  1.00  0.00     0.008 A 
HETATM   16  C18 UNL     1       9.654   4.879  23.957  1.00  0.00     0.089 A 
BRANCH  15  17
HETATM   17  C12 UNL     1       8.595   2.663  24.360  1.00  0.00    -0.023 A 
HETATM   18  C13 UNL     1       8.301   2.095  25.573  1.00  0.00     0.012 A 
HETATM   19  C14 UNL     1       8.370   0.729  25.794  1.00  0.00     0.001 A 
HETATM   20  C15 UNL     1       8.751  -0.086  24.741  1.00  0.00     0.000 A 
HETATM   21  C16 UNL     1       9.045   0.497  23.521  1.00  0.00     0.001 A 
HETATM   22  C17 UNL     1       8.976   1.858  23.304  1.00  0.00     0.012 A 
ENDBRANCH  15  17
BRANCH  16  23
HETATM   23  O1  UNL     1      10.802   4.158  23.865  1.00  0.00    -0.359 OA
ATOM     24  H1  UNL     1      11.218   3.709  24.592  1.00  0.00     0.217 HD
ENDBRANCH  16  23
ENDBRANCH   7  11
BRANCH   1  25
HETATM   25  C1  UNL     1      15.129  11.180  23.151  1.00  0.00     0.120 C 
HETATM   26  N1  UNL     1      16.182  11.230  24.110  1.00  0.00    -0.082 NA
HETATM   27  N2  UNL     1      14.937  12.195  22.393  1.00  0.00    -0.387 N 
ATOM     28  H22 UNL     1      15.508  13.037  22.449  1.00  0.00     0.157 HD
ATOM     29  H21 UNL     1      14.183  12.159  21.707  1.00  0.00     0.157 HD
ENDBRANCH   1  25
TORSDOF 4
ENDMDL
