MODEL 1
REMARK VINA RESULT: -8.952539254      0.000      0.000
REMARK  4 active torsions:
REMARK  status: ('A' for Active; 'I' for Inactive)
REMARK    1  A    between atoms: C1_2  and  C2_6 
REMARK    2  A    between atoms: C6_12  and  C7_13 
REMARK    3  A    between atoms: C11_17  and  C12_18 
REMARK    4  A    between atoms: C18_24  and  O1_25 
ROOT
HETATM    1  C2  UNL     1       8.615   0.736  24.975  1.00  0.00     0.005 A 
HETATM    2  C3  UNL     1       9.177   0.735  23.697  1.00  0.00     0.017 A 
HETATM    3  C4  UNL     1       9.666   1.879  23.121  1.00  0.00     0.031 A 
HETATM    4  C5  UNL     1       9.588   3.071  23.856  1.00  0.00     0.043 A 
HETATM    5  N3  UNL     1       9.981   4.302  23.543  1.00  0.00    -0.355 N 
ATOM      6  H3  UNL     1      10.422   4.549  22.658  1.00  0.00     0.166 HD
HETATM    7  C6  UNL     1       9.726   5.199  24.544  1.00  0.00     0.046 A 
HETATM    8  C19 UNL     1       9.139   4.440  25.518  1.00  0.00     0.044 A 
HETATM    9  C20 UNL     1       9.050   3.107  25.094  1.00  0.00    -0.006 A 
HETATM   10  C21 UNL     1       8.568   1.952  25.649  1.00  0.00     0.028 A 
ENDROOT
BRANCH   7  11
HETATM   11  C7  UNL     1      10.006   6.633  24.429  1.00  0.00     0.025 A 
HETATM   12  C8  UNL     1       9.112   7.498  25.027  1.00  0.00     0.016 A 
HETATM   13  C9  UNL     1       9.239   8.859  24.967  1.00  0.00     0.002 A 
HETATM   14  C10 UNL     1      10.305   9.358  24.282  1.00  0.00     0.015 A 
HETATM   15  C11 UNL     1      11.236   8.578  23.661  1.00  0.00     0.008 A 
HETATM   16  C18 UNL     1      11.065   7.173  23.746  1.00  0.00     0.089 A 
BRANCH  15  17
HETATM   17  C12 UNL     1      12.364   9.134  22.935  1.00  0.00    -0.023 A 
HETATM   18  C13 UNL     1      12.202   9.456  21.611  1.00  0.00     0.012 A 
HETATM   19  C14 UNL     1      13.224   9.991  20.844  1.00  0.00     0.001 A 
HETATM   20  C15 UNL     1      14.453  10.206  21.446  1.00  0.00     0.000 A 
HETATM   21  C16 UNL     1      14.605   9.878  22.782  1.00  0.00     0.001 A 
HETATM   22  C17 UNL     1      13.586   9.345  23.544  1.00  0.00     0.012 A 
ENDBRANCH  15  17
BRANCH  16  23
HETATM   23  O1  UNL     1      12.016   6.451  23.099  1.00  0.00    -0.359 OA
ATOM     24  H1  UNL     1      12.847   6.799  22.795  1.00  0.00     0.217 HD
ENDBRANCH  16  23
ENDBRANCH   7  11
BRANCH   1  25
HETATM   25  C1  UNL     1       8.106  -0.496  25.554  1.00  0.00     0.120 C 
HETATM   26  N1  UNL     1       7.867  -1.609  24.695  1.00  0.00    -0.082 NA
HETATM   27  N2  UNL     1       7.864  -0.620  26.805  1.00  0.00    -0.387 N 
ATOM     28  H22 UNL     1       7.507  -1.485  27.211  1.00  0.00     0.157 HD
ATOM     29  H21 UNL     1       8.035   0.176  27.419  1.00  0.00     0.157 HD
ENDBRANCH   1  25
TORSDOF 4
ENDMDL
