MODEL 6
REMARK VINA RESULT: -8.010403753      2.865      8.632
REMARK  4 active torsions:
REMARK  status: ('A' for Active; 'I' for Inactive)
REMARK    1  A    between atoms: C1_2  and  C2_6 
REMARK    2  A    between atoms: C6_12  and  C7_13 
REMARK    3  A    between atoms: C11_17  and  C12_18 
REMARK    4  A    between atoms: C18_24  and  O1_25 
ROOT
HETATM    1  C2  UNL     1      12.025   9.926  21.514  1.00  0.00     0.005 A 
HETATM    2  C3  UNL     1      13.041   8.972  21.437  1.00  0.00     0.017 A 
HETATM    3  C4  UNL     1      12.929   7.745  22.037  1.00  0.00     0.031 A 
HETATM    4  C5  UNL     1      11.749   7.463  22.743  1.00  0.00     0.043 A 
HETATM    5  N3  UNL     1      11.384   6.370  23.406  1.00  0.00    -0.355 N 
ATOM      6  H3  UNL     1      11.965   5.536  23.490  1.00  0.00     0.166 HD
HETATM    7  C6  UNL     1      10.141   6.492  23.963  1.00  0.00     0.046 A 
HETATM    8  C19 UNL     1       9.745   7.750  23.602  1.00  0.00     0.044 A 
HETATM    9  C20 UNL     1      10.747   8.364  22.837  1.00  0.00    -0.006 A 
HETATM   10  C21 UNL     1      10.883   9.582  22.229  1.00  0.00     0.028 A 
ENDROOT
BRANCH   7  11
HETATM   11  C7  UNL     1       9.528   5.454  24.797  1.00  0.00     0.025 A 
HETATM   12  C8  UNL     1       9.076   5.835  26.045  1.00  0.00     0.016 A 
HETATM   13  C9  UNL     1       8.514   4.959  26.932  1.00  0.00     0.002 A 
HETATM   14  C10 UNL     1       8.406   3.659  26.544  1.00  0.00     0.015 A 
HETATM   15  C11 UNL     1       8.826   3.195  25.332  1.00  0.00     0.008 A 
HETATM   16  C18 UNL     1       9.404   4.136  24.443  1.00  0.00     0.089 A 
BRANCH  15  17
HETATM   17  C12 UNL     1       8.700   1.802  24.941  1.00  0.00    -0.023 A 
HETATM   18  C13 UNL     1       8.192   0.906  25.847  1.00  0.00     0.012 A 
HETATM   19  C14 UNL     1       8.038  -0.440  25.558  1.00  0.00     0.001 A 
HETATM   20  C15 UNL     1       8.414  -0.889  24.303  1.00  0.00     0.000 A 
HETATM   21  C16 UNL     1       8.925   0.023  23.397  1.00  0.00     0.001 A 
HETATM   22  C17 UNL     1       9.078   1.364  23.686  1.00  0.00     0.012 A 
ENDBRANCH  15  17
BRANCH  16  23
HETATM   23  O1  UNL     1       9.813   3.612  23.258  1.00  0.00    -0.359 OA
ATOM     24  H1  UNL     1      10.605   3.101  23.137  1.00  0.00     0.217 HD
ENDBRANCH  16  23
ENDBRANCH   7  11
BRANCH   1  25
HETATM   25  C1  UNL     1      12.179  11.217  20.865  1.00  0.00     0.120 C 
HETATM   26  N1  UNL     1      12.913  12.237  21.538  1.00  0.00    -0.082 NA
HETATM   27  N2  UNL     1      11.682  11.473  19.713  1.00  0.00    -0.387 N 
ATOM     28  H22 UNL     1      11.791  12.379  19.258  1.00  0.00     0.157 HD
ATOM     29  H21 UNL     1      11.157  10.742  19.232  1.00  0.00     0.157 HD
ENDBRANCH   1  25
TORSDOF 4
ENDMDL
