MODEL 2
REMARK VINA RESULT: -8.714215763      0.850      1.024
REMARK  4 active torsions:
REMARK  status: ('A' for Active; 'I' for Inactive)
REMARK    1  A    between atoms: C1_2  and  C2_6 
REMARK    2  A    between atoms: C6_12  and  C7_13 
REMARK    3  A    between atoms: C11_17  and  C12_18 
REMARK    4  A    between atoms: C18_24  and  O1_25 
ROOT
HETATM    1  C2  UNL     1       8.683   1.056  24.850  1.00  0.00     0.005 A 
HETATM    2  C3  UNL     1       9.199   1.125  23.556  1.00  0.00     0.017 A 
HETATM    3  C4  UNL     1       9.613   2.309  23.003  1.00  0.00     0.031 A 
HETATM    4  C5  UNL     1       9.505   3.471  23.781  1.00  0.00     0.043 A 
HETATM    5  N3  UNL     1       9.828   4.730  23.498  1.00  0.00    -0.355 N 
ATOM      6  H3  UNL     1      10.226   5.027  22.607  1.00  0.00     0.166 HD
HETATM    7  C6  UNL     1       9.567   5.579  24.537  1.00  0.00     0.046 A 
HETATM    8  C19 UNL     1       9.050   4.762  25.504  1.00  0.00     0.044 A 
HETATM    9  C20 UNL     1       9.010   3.440  25.037  1.00  0.00    -0.006 A 
HETATM   10  C21 UNL     1       8.603   2.246  25.567  1.00  0.00     0.028 A 
ENDROOT
BRANCH   7  11
HETATM   11  C7  UNL     1       9.775   7.029  24.462  1.00  0.00     0.025 A 
HETATM   12  C8  UNL     1       9.166   7.802  25.430  1.00  0.00     0.016 A 
HETATM   13  C9  UNL     1       9.253   9.166  25.457  1.00  0.00     0.002 A 
HETATM   14  C10 UNL     1       9.980   9.766  24.474  1.00  0.00     0.015 A 
HETATM   15  C11 UNL     1      10.614   9.081  23.478  1.00  0.00     0.008 A 
HETATM   16  C18 UNL     1      10.496   7.668  23.488  1.00  0.00     0.089 A 
BRANCH  15  17
HETATM   17  C12 UNL     1      11.382   9.743  22.439  1.00  0.00    -0.023 A 
HETATM   18  C13 UNL     1      10.723  10.538  21.536  1.00  0.00     0.012 A 
HETATM   19  C14 UNL     1      11.378  11.206  20.514  1.00  0.00     0.001 A 
HETATM   20  C15 UNL     1      12.751  11.061  20.410  1.00  0.00     0.000 A 
HETATM   21  C16 UNL     1      13.406  10.257  21.326  1.00  0.00     0.001 A 
HETATM   22  C17 UNL     1      12.753   9.592  22.343  1.00  0.00     0.012 A 
ENDBRANCH  15  17
BRANCH  16  23
HETATM   23  O1  UNL     1      11.138   7.044  22.466  1.00  0.00    -0.359 OA
ATOM     24  H1  UNL     1      11.169   7.362  21.572  1.00  0.00     0.217 HD
ENDBRANCH  16  23
ENDBRANCH   7  11
BRANCH   1  25
HETATM   25  C1  UNL     1       8.253  -0.217  25.403  1.00  0.00     0.120 C 
HETATM   26  N1  UNL     1       8.121  -1.334  24.527  1.00  0.00    -0.082 NA
HETATM   27  N2  UNL     1       7.990  -0.374  26.647  1.00  0.00    -0.387 N 
ATOM     28  H22 UNL     1       7.688  -1.268  27.035  1.00  0.00     0.157 HD
ATOM     29  H21 UNL     1       8.084   0.425  27.273  1.00  0.00     0.157 HD
ENDBRANCH   1  25
TORSDOF 4
ENDMDL
