MODEL 4
REMARK VINA RESULT: -9.251558723      1.283      1.727
REMARK  5 active torsions:
REMARK  status: ('A' for Active; 'I' for Inactive)
REMARK    1  A    between atoms: C7_7  and  O1_8 
REMARK    2  A    between atoms: O1_8  and  C8_9 
REMARK    3  A    between atoms: C12_13  and  C13_14 
REMARK    4  A    between atoms: C16_19  and  C17_20 
REMARK    5  A    between atoms: C21_31  and  O2_32 
ROOT
HETATM    1  C13 UNL     1       9.502   5.052  24.454  1.00  0.00     0.119 A 
HETATM    2  N1  UNL     1       8.939   4.329  25.447  1.00  0.00    -0.340 N 
ATOM      3  H1  UNL     1       8.595   4.721  26.323  1.00  0.00     0.167 HD
HETATM    4  C14 UNL     1       8.894   3.028  25.128  1.00  0.00     0.061 A 
HETATM    5  C15 UNL     1       8.426   1.886  25.779  1.00  0.00     0.050 A 
HETATM    6  C16 UNL     1       8.516   0.652  25.187  1.00  0.00     0.045 A 
HETATM    7  C18 UNL     1       9.088   0.558  23.913  1.00  0.00     0.132 A 
HETATM    8  F1  UNL     1       9.157  -0.695  23.359  1.00  0.00    -0.205 F 
HETATM    9  C19 UNL     1       9.545   1.664  23.273  1.00  0.00     0.075 A 
HETATM   10  C20 UNL     1       9.451   2.901  23.874  1.00  0.00     0.063 A 
HETATM   11  N4  UNL     1       9.802   4.135  23.508  1.00  0.00    -0.340 N 
ATOM     12  H4  UNL     1      10.244   4.361  22.617  1.00  0.00     0.167 HD
ENDROOT
BRANCH   1  13
HETATM   13  C12 UNL     1       9.756   6.489  24.362  1.00  0.00     0.044 A 
HETATM   14  C11 UNL     1       8.866   7.334  24.987  1.00  0.00     0.018 A 
HETATM   15  C10 UNL     1       9.029   8.702  24.953  1.00  0.00     0.004 A 
HETATM   16  C9  UNL     1      10.094   9.210  24.285  1.00  0.00     0.040 A 
HETATM   17  C8  UNL     1      11.053   8.420  23.619  1.00  0.00     0.103 A 
HETATM   18  C21 UNL     1      10.827   7.037  23.692  1.00  0.00     0.113 A 
BRANCH  17  19
HETATM   19  O1  UNL     1      12.078   9.027  22.981  1.00  0.00    -0.343 OA
BRANCH  19  20
HETATM   20  C7  UNL     1      12.392   9.248  21.692  1.00  0.00     0.132 C 
HETATM   21  C2  UNL     1      13.895   9.198  21.404  1.00  0.00     0.011 C 
HETATM   22  C1  UNL     1      14.659   8.681  22.606  1.00  0.00     0.012 C 
HETATM   23  C3  UNL     1      14.442  10.492  20.909  1.00  0.00     0.007 C 
HETATM   24  C4  UNL     1      14.093  11.677  21.773  1.00  0.00     0.001 C 
HETATM   25  C5  UNL     1      12.644  11.607  22.245  1.00  0.00     0.002 C 
HETATM   26  C6  UNL     1      11.935  10.674  21.286  1.00  0.00     0.033 C 
ENDBRANCH  19  20
ENDBRANCH  17  19
BRANCH  18  27
HETATM   27  O2  UNL     1      11.722   6.235  23.067  1.00  0.00    -0.357 OA
ATOM     28  H2  UNL     1      11.841   6.369  22.134  1.00  0.00     0.217 HD
ENDBRANCH  18  27
ENDBRANCH   1  13
BRANCH   6  29
HETATM   29  C17 UNL     1       8.042  -0.560  25.827  1.00  0.00     0.123 C 
HETATM   30  N2  UNL     1       7.217  -1.482  25.121  1.00  0.00    -0.082 NA
HETATM   31  N3  UNL     1       8.351  -0.830  27.032  1.00  0.00    -0.387 N 
ATOM     32  H32 UNL     1       8.941  -0.170  27.538  1.00  0.00     0.157 HD
ATOM     33  H31 UNL     1       8.018  -1.682  27.482  1.00  0.00     0.157 HD
ENDBRANCH   6  29
TORSDOF 5
ENDMDL
