MODEL 2
REMARK VINA RESULT: -9.367256778      1.539      2.331
REMARK  5 active torsions:
REMARK  status: ('A' for Active; 'I' for Inactive)
REMARK    1  A    between atoms: C7_7  and  O1_8 
REMARK    2  A    between atoms: O1_8  and  C8_9 
REMARK    3  A    between atoms: C12_13  and  C13_14 
REMARK    4  A    between atoms: C16_19  and  C17_20 
REMARK    5  A    between atoms: C21_31  and  O2_32 
ROOT
HETATM    1  C13 UNL     1       9.459   5.476  24.625  1.00  0.00     0.119 A 
HETATM    2  N1  UNL     1       8.760   4.688  25.471  1.00  0.00    -0.340 N 
ATOM      3  H1  UNL     1       8.191   5.033  26.244  1.00  0.00     0.167 HD
HETATM    4  C14 UNL     1       8.915   3.394  25.162  1.00  0.00     0.061 A 
HETATM    5  C15 UNL     1       8.427   2.203  25.700  1.00  0.00     0.050 A 
HETATM    6  C16 UNL     1       8.768   0.992  25.154  1.00  0.00     0.045 A 
HETATM    7  C18 UNL     1       9.618   0.971  24.043  1.00  0.00     0.132 A 
HETATM    8  F1  UNL     1       9.933  -0.261  23.530  1.00  0.00    -0.205 F 
HETATM    9  C19 UNL     1      10.098   2.125  23.513  1.00  0.00     0.075 A 
HETATM   10  C20 UNL     1       9.751   3.338  24.067  1.00  0.00     0.063 A 
HETATM   11  N4  UNL     1      10.052   4.606  23.779  1.00  0.00    -0.340 N 
ATOM     12  H4  UNL     1      10.661   4.885  23.009  1.00  0.00     0.167 HD
ENDROOT
BRANCH   1  13
HETATM   13  C12 UNL     1       9.586   6.932  24.581  1.00  0.00     0.044 A 
HETATM   14  C11 UNL     1       9.135   7.644  25.671  1.00  0.00     0.018 A 
HETATM   15  C10 UNL     1       9.216   9.018  25.715  1.00  0.00     0.004 A 
HETATM   16  C9  UNL     1       9.754   9.669  24.654  1.00  0.00     0.040 A 
HETATM   17  C8  UNL     1      10.240   9.022  23.500  1.00  0.00     0.103 A 
HETATM   18  C21 UNL     1      10.126   7.623  23.520  1.00  0.00     0.113 A 
BRANCH  17  19
HETATM   19  O1  UNL     1      10.757   9.765  22.497  1.00  0.00    -0.343 OA
BRANCH  19  20
HETATM   20  C7  UNL     1      11.745  10.673  22.405  1.00  0.00     0.132 C 
HETATM   21  C2  UNL     1      11.581  11.651  21.239  1.00  0.00     0.011 C 
HETATM   22  C1  UNL     1      10.214  11.505  20.599  1.00  0.00     0.012 C 
HETATM   23  C3  UNL     1      12.678  11.560  20.236  1.00  0.00     0.007 C 
HETATM   24  C4  UNL     1      12.942  10.161  19.739  1.00  0.00     0.001 C 
HETATM   25  C5  UNL     1      12.885   9.151  20.881  1.00  0.00     0.002 C 
HETATM   26  C6  UNL     1      13.093   9.945  22.153  1.00  0.00     0.033 C 
ENDBRANCH  19  20
ENDBRANCH  17  19
BRANCH  18  27
HETATM   27  O2  UNL     1      10.579   6.955  22.433  1.00  0.00    -0.357 OA
ATOM     28  H2  UNL     1       9.927   6.637  21.820  1.00  0.00     0.217 HD
ENDBRANCH  18  27
ENDBRANCH   1  13
BRANCH   6  29
HETATM   29  C17 UNL     1       8.282  -0.269  25.681  1.00  0.00     0.123 C 
HETATM   30  N2  UNL     1       7.621  -1.206  24.835  1.00  0.00    -0.082 NA
HETATM   31  N3  UNL     1       8.434  -0.570  26.909  1.00  0.00    -0.387 N 
ATOM     32  H32 UNL     1       8.907   0.100  27.514  1.00  0.00     0.157 HD
ATOM     33  H31 UNL     1       8.093  -1.457  27.279  1.00  0.00     0.157 HD
ENDBRANCH   6  29
TORSDOF 5
ENDMDL
