MODEL 8
REMARK VINA RESULT: -8.885511015      3.283      5.419
REMARK  5 active torsions:
REMARK  status: ('A' for Active; 'I' for Inactive)
REMARK    1  A    between atoms: C7_7  and  O1_8 
REMARK    2  A    between atoms: O1_8  and  C8_9 
REMARK    3  A    between atoms: C12_13  and  C13_14 
REMARK    4  A    between atoms: C16_19  and  C17_20 
REMARK    5  A    between atoms: C21_31  and  O2_32 
ROOT
HETATM    1  C13 UNL     1       8.567   5.515  23.436  1.00  0.00     0.119 A 
HETATM    2  N1  UNL     1       8.081   4.827  24.492  1.00  0.00    -0.340 N 
ATOM      3  H1  UNL     1       7.546   5.241  25.255  1.00  0.00     0.167 HD
HETATM    4  C14 UNL     1       8.395   3.527  24.405  1.00  0.00     0.061 A 
HETATM    5  C15 UNL     1       8.146   2.413  25.206  1.00  0.00     0.050 A 
HETATM    6  C16 UNL     1       8.608   1.172  24.850  1.00  0.00     0.045 A 
HETATM    7  C18 UNL     1       9.336   1.042  23.662  1.00  0.00     0.132 A 
HETATM    8  F1  UNL     1       9.778  -0.217  23.344  1.00  0.00    -0.205 F 
HETATM    9  C19 UNL     1       9.583   2.120  22.876  1.00  0.00     0.075 A 
HETATM   10  C20 UNL     1       9.116   3.365  23.241  1.00  0.00     0.063 A 
HETATM   11  N4  UNL     1       9.195   4.579  22.693  1.00  0.00    -0.340 N 
ATOM     12  H4  UNL     1       9.675   4.777  21.815  1.00  0.00     0.167 HD
ENDROOT
BRANCH   1  13
HETATM   13  C12 UNL     1       8.470   6.938  23.114  1.00  0.00     0.044 A 
HETATM   14  C11 UNL     1       9.645   7.651  23.017  1.00  0.00     0.018 A 
HETATM   15  C10 UNL     1       9.647   8.996  22.717  1.00  0.00     0.004 A 
HETATM   16  C9  UNL     1       8.458   9.616  22.517  1.00  0.00     0.040 A 
HETATM   17  C8  UNL     1       7.210   8.966  22.597  1.00  0.00     0.103 A 
HETATM   18  C21 UNL     1       7.279   7.599  22.906  1.00  0.00     0.113 A 
BRANCH  17  19
HETATM   19  O1  UNL     1       6.082   9.677  22.381  1.00  0.00    -0.343 OA
BRANCH  19  20
HETATM   20  C7  UNL     1       5.449  10.669  23.034  1.00  0.00     0.132 C 
HETATM   21  C2  UNL     1       3.924  10.535  23.037  1.00  0.00     0.011 C 
HETATM   22  C1  UNL     1       3.499   9.183  22.497  1.00  0.00     0.012 C 
HETATM   23  C3  UNL     1       3.234  11.655  22.341  1.00  0.00     0.007 C 
HETATM   24  C4  UNL     1       3.752  11.929  20.952  1.00  0.00     0.001 C 
HETATM   25  C5  UNL     1       5.275  11.842  20.905  1.00  0.00     0.002 C 
HETATM   26  C6  UNL     1       5.748  12.021  22.332  1.00  0.00     0.033 C 
ENDBRANCH  19  20
ENDBRANCH  17  19
BRANCH  18  27
HETATM   27  O2  UNL     1       6.106   6.929  22.995  1.00  0.00    -0.357 OA
ATOM     28  H2  UNL     1       5.663   6.725  22.179  1.00  0.00     0.217 HD
ENDBRANCH  18  27
ENDBRANCH   1  13
BRANCH   6  29
HETATM   29  C17 UNL     1       8.371  -0.012  25.653  1.00  0.00     0.123 C 
HETATM   30  N2  UNL     1       7.753  -1.164  25.087  1.00  0.00    -0.082 NA
HETATM   31  N3  UNL     1       8.708  -0.052  26.880  1.00  0.00    -0.387 N 
ATOM     32  H32 UNL     1       9.151   0.772  27.285  1.00  0.00     0.157 HD
ATOM     33  H31 UNL     1       8.542  -0.885  27.444  1.00  0.00     0.157 HD
ENDBRANCH   6  29
TORSDOF 5
ENDMDL
