MODEL 12
REMARK VINA RESULT: -8.641585981      4.644      9.527
REMARK  5 active torsions:
REMARK  status: ('A' for Active; 'I' for Inactive)
REMARK    1  A    between atoms: C7_7  and  O1_8 
REMARK    2  A    between atoms: O1_8  and  C8_9 
REMARK    3  A    between atoms: C12_13  and  C13_14 
REMARK    4  A    between atoms: C16_19  and  C17_20 
REMARK    5  A    between atoms: C21_31  and  O2_32 
ROOT
HETATM    1  C13 UNL     1      10.690   9.046  22.909  1.00  0.00     0.119 A 
HETATM    2  N1  UNL     1      10.234  10.204  22.386  1.00  0.00    -0.340 N 
ATOM      3  H1  UNL     1       9.348  10.643  22.638  1.00  0.00     0.167 HD
HETATM    4  C14 UNL     1      11.098  10.701  21.490  1.00  0.00     0.061 A 
HETATM    5  C15 UNL     1      11.111  11.839  20.683  1.00  0.00     0.050 A 
HETATM    6  C16 UNL     1      12.163  12.091  19.840  1.00  0.00     0.045 A 
HETATM    7  C18 UNL     1      13.227  11.183  19.803  1.00  0.00     0.132 A 
HETATM    8  F1  UNL     1      14.258  11.476  18.946  1.00  0.00    -0.205 F 
HETATM    9  C19 UNL     1      13.222  10.074  20.585  1.00  0.00     0.075 A 
HETATM   10  C20 UNL     1      12.162   9.827  21.430  1.00  0.00     0.063 A 
HETATM   11  N4  UNL     1      11.877   8.851  22.294  1.00  0.00    -0.340 N 
ATOM     12  H4  UNL     1      12.485   8.051  22.470  1.00  0.00     0.167 HD
ENDROOT
BRANCH   1  13
HETATM   13  C12 UNL     1      10.090   8.162  23.908  1.00  0.00     0.044 A 
HETATM   14  C11 UNL     1       9.523   8.749  25.019  1.00  0.00     0.018 A 
HETATM   15  C10 UNL     1       8.935   7.993  26.009  1.00  0.00     0.004 A 
HETATM   16  C9  UNL     1       8.924   6.644  25.873  1.00  0.00     0.040 A 
HETATM   17  C8  UNL     1       9.479   5.961  24.772  1.00  0.00     0.103 A 
HETATM   18  C21 UNL     1      10.062   6.790  23.801  1.00  0.00     0.113 A 
BRANCH  17  19
HETATM   19  O1  UNL     1       9.415   4.612  24.733  1.00  0.00    -0.343 OA
BRANCH  19  20
HETATM   20  C7  UNL     1       8.517   3.720  24.277  1.00  0.00     0.132 C 
HETATM   21  C2  UNL     1       8.281   2.540  25.223  1.00  0.00     0.011 C 
HETATM   22  C1  UNL     1       8.952   2.778  26.562  1.00  0.00     0.012 C 
HETATM   23  C3  UNL     1       8.665   1.228  24.633  1.00  0.00     0.007 C 
HETATM   24  C4  UNL     1      10.059   1.195  24.060  1.00  0.00     0.001 C 
HETATM   25  C5  UNL     1      10.372   2.480  23.298  1.00  0.00     0.002 C 
HETATM   26  C6  UNL     1       9.033   3.098  22.952  1.00  0.00     0.033 C 
ENDBRANCH  19  20
ENDBRANCH  17  19
BRANCH  18  27
HETATM   27  O2  UNL     1      10.611   6.181  22.723  1.00  0.00    -0.357 OA
ATOM     28  H2  UNL     1      10.239   6.391  21.874  1.00  0.00     0.217 HD
ENDBRANCH  18  27
ENDBRANCH   1  13
BRANCH   6  29
HETATM   29  C17 UNL     1      12.218  13.262  18.986  1.00  0.00     0.123 C 
HETATM   30  N2  UNL     1      12.844  14.461  19.432  1.00  0.00    -0.082 NA
HETATM   31  N3  UNL     1      11.710  13.247  17.818  1.00  0.00    -0.387 N 
ATOM     32  H32 UNL     1      11.262  12.389  17.499  1.00  0.00     0.157 HD
ATOM     33  H31 UNL     1      11.749  14.070  17.217  1.00  0.00     0.157 HD
ENDBRANCH   6  29
TORSDOF 5
ENDMDL
