MODEL 11
REMARK VINA RESULT: -8.659148463      3.734      6.098
REMARK  5 active torsions:
REMARK  status: ('A' for Active; 'I' for Inactive)
REMARK    1  A    between atoms: C7_7  and  O1_8 
REMARK    2  A    between atoms: O1_8  and  C8_9 
REMARK    3  A    between atoms: C12_13  and  C13_14 
REMARK    4  A    between atoms: C16_19  and  C17_20 
REMARK    5  A    between atoms: C21_31  and  O2_32 
ROOT
HETATM    1  C13 UNL     1       8.197   5.726  23.539  1.00  0.00     0.119 A 
HETATM    2  N1  UNL     1       7.659   4.911  24.472  1.00  0.00    -0.340 N 
ATOM      3  H1  UNL     1       6.938   5.190  25.137  1.00  0.00     0.167 HD
HETATM    4  C14 UNL     1       8.198   3.686  24.408  1.00  0.00     0.061 A 
HETATM    5  C15 UNL     1       8.005   2.503  25.122  1.00  0.00     0.050 A 
HETATM    6  C16 UNL     1       8.724   1.375  24.822  1.00  0.00     0.045 A 
HETATM    7  C18 UNL     1       9.658   1.430  23.781  1.00  0.00     0.132 A 
HETATM    8  F1  UNL     1      10.354   0.278  23.516  1.00  0.00    -0.205 F 
HETATM    9  C19 UNL     1       9.852   2.576  23.082  1.00  0.00     0.075 A 
HETATM   10  C20 UNL     1       9.126   3.707  23.389  1.00  0.00     0.063 A 
HETATM   11  N4  UNL     1       9.093   4.947  22.897  1.00  0.00    -0.340 N 
ATOM     12  H4  UNL     1       9.677   5.268  22.124  1.00  0.00     0.167 HD
ENDROOT
BRANCH   1  13
HETATM   13  C12 UNL     1       7.919   7.131  23.243  1.00  0.00     0.044 A 
HETATM   14  C11 UNL     1       8.962   7.903  22.779  1.00  0.00     0.018 A 
HETATM   15  C10 UNL     1       8.789   9.236  22.475  1.00  0.00     0.004 A 
HETATM   16  C9  UNL     1       7.560   9.784  22.641  1.00  0.00     0.040 A 
HETATM   17  C8  UNL     1       6.438   9.069  23.109  1.00  0.00     0.103 A 
HETATM   18  C21 UNL     1       6.683   7.718  23.400  1.00  0.00     0.113 A 
BRANCH  17  19
HETATM   19  O1  UNL     1       5.256   9.710  23.239  1.00  0.00    -0.343 OA
BRANCH  19  20
HETATM   20  C7  UNL     1       4.277  10.071  22.390  1.00  0.00     0.132 C 
HETATM   21  C2  UNL     1       3.637  11.422  22.722  1.00  0.00     0.011 C 
HETATM   22  C1  UNL     1       4.421  12.142  23.802  1.00  0.00     0.012 C 
HETATM   23  C3  UNL     1       2.190  11.320  23.058  1.00  0.00     0.007 C 
HETATM   24  C4  UNL     1       1.876  10.294  24.117  1.00  0.00     0.001 C 
HETATM   25  C5  UNL     1       2.689   9.020  23.909  1.00  0.00     0.002 C 
HETATM   26  C6  UNL     1       3.125   9.034  22.459  1.00  0.00     0.033 C 
ENDBRANCH  19  20
ENDBRANCH  17  19
BRANCH  18  27
HETATM   27  O2  UNL     1       5.636   6.989  23.854  1.00  0.00    -0.357 OA
ATOM     28  H2  UNL     1       5.668   6.051  23.705  1.00  0.00     0.217 HD
ENDBRANCH  18  27
ENDBRANCH   1  13
BRANCH   6  29
HETATM   29  C17 UNL     1       8.554   0.125  25.538  1.00  0.00     0.123 C 
HETATM   30  N2  UNL     1       8.206  -1.071  24.844  1.00  0.00    -0.082 NA
HETATM   31  N3  UNL     1       8.713   0.063  26.799  1.00  0.00    -0.387 N 
ATOM     32  H32 UNL     1       8.963   0.918  27.295  1.00  0.00     0.157 HD
ATOM     33  H31 UNL     1       8.594  -0.815  27.303  1.00  0.00     0.157 HD
ENDBRANCH   6  29
TORSDOF 5
ENDMDL
