MODEL 3
REMARK VINA RESULT: -9.182739974      3.646      8.705
REMARK  4 active torsions:
REMARK  status: ('A' for Active; 'I' for Inactive)
REMARK    1  A    between atoms: C1_2  and  C2_6 
REMARK    2  A    between atoms: C6_10  and  C7_11 
REMARK    3  A    between atoms: C11_15  and  C12_16 
REMARK    4  A    between atoms: C18_22  and  O1_23 
ROOT
HETATM    1  C2  UNL     1      14.523   0.251  32.624  1.00  0.00     0.027 A 
HETATM    2  C3  UNL     1      15.040  -1.020  32.601  1.00  0.00     0.030 A 
HETATM    3  C4  UNL     1      15.495  -1.558  31.399  1.00  0.00    -0.006 A 
HETATM    4  C5  UNL     1      16.046  -2.774  31.085  1.00  0.00     0.044 A 
HETATM    5  C6  UNL     1      16.324  -2.786  29.716  1.00  0.00     0.046 A 
HETATM    6  N3  UNL     1      15.938  -1.596  29.254  1.00  0.00    -0.355 N 
ATOM      7  H3  UNL     1      16.016  -1.305  28.279  1.00  0.00     0.166 HD
HETATM    8  C19 UNL     1      15.430  -0.823  30.240  1.00  0.00     0.044 A 
HETATM    9  C20 UNL     1      14.917   0.452  30.243  1.00  0.00     0.055 A 
HETATM   10  C21 UNL     1      14.471   0.971  31.436  1.00  0.00     0.049 A 
HETATM   11 CL1  UNL     1      13.806   2.611  31.465  1.00  0.00    -0.083 Cl
ENDROOT
BRANCH   5  12
HETATM   12  C7  UNL     1      16.926  -3.922  28.991  1.00  0.00     0.025 A 
HETATM   13  C8  UNL     1      18.101  -4.486  29.469  1.00  0.00     0.016 A 
HETATM   14  C9  UNL     1      18.703  -5.547  28.833  1.00  0.00     0.002 A 
HETATM   15  C10 UNL     1      18.128  -6.065  27.692  1.00  0.00     0.015 A 
HETATM   16  C11 UNL     1      16.964  -5.527  27.194  1.00  0.00     0.008 A 
HETATM   17  C18 UNL     1      16.389  -4.469  27.853  1.00  0.00     0.089 A 
BRANCH  16  18
HETATM   18  C12 UNL     1      16.334  -6.099  26.001  1.00  0.00    -0.023 A 
HETATM   19  C13 UNL     1      15.181  -5.543  25.476  1.00  0.00     0.012 A 
HETATM   20  C14 UNL     1      14.622  -6.085  24.342  1.00  0.00     0.001 A 
HETATM   21  C15 UNL     1      15.163  -7.177  23.684  1.00  0.00     0.000 A 
HETATM   22  C16 UNL     1      16.305  -7.701  24.236  1.00  0.00     0.001 A 
HETATM   23  C17 UNL     1      16.884  -7.181  25.366  1.00  0.00     0.012 A 
ENDBRANCH  16  18
BRANCH  17  24
HETATM   24  O1  UNL     1      15.226  -3.921  27.360  1.00  0.00    -0.359 OA
ATOM     25  H1  UNL     1      15.254  -3.026  27.044  1.00  0.00     0.217 HD
ENDBRANCH  17  24
ENDBRANCH   5  12
BRANCH   1  26
HETATM   26  C1  UNL     1      14.027   0.882  33.838  1.00  0.00     0.121 C 
HETATM   27  N1  UNL     1      14.878   1.712  34.610  1.00  0.00    -0.082 NA
HETATM   28  N2  UNL     1      12.819   0.685  34.209  1.00  0.00    -0.387 N 
ATOM     29  H22 UNL     1      12.471   1.128  35.060  1.00  0.00     0.157 HD
ATOM     30  H21 UNL     1      12.207   0.088  33.654  1.00  0.00     0.157 HD
ENDBRANCH   1  26
TORSDOF 4
ENDMDL
