MODEL 4
REMARK VINA RESULT: -9.104154464      1.290      1.591
REMARK  4 active torsions:
REMARK  status: ('A' for Active; 'I' for Inactive)
REMARK    1  A    between atoms: C1_2  and  C2_6 
REMARK    2  A    between atoms: C6_10  and  C7_11 
REMARK    3  A    between atoms: C11_15  and  C12_16 
REMARK    4  A    between atoms: C18_22  and  O1_23 
ROOT
HETATM    1  C2  UNL     1      16.323  -7.029  25.461  1.00  0.00     0.027 A 
HETATM    2  C3  UNL     1      16.758  -6.736  26.729  1.00  0.00     0.030 A 
HETATM    3  C4  UNL     1      16.122  -5.737  27.462  1.00  0.00    -0.006 A 
HETATM    4  C5  UNL     1      16.337  -5.241  28.722  1.00  0.00     0.044 A 
HETATM    5  C6  UNL     1      15.399  -4.233  28.961  1.00  0.00     0.046 A 
HETATM    6  N3  UNL     1      14.658  -4.154  27.855  1.00  0.00    -0.355 N 
ATOM      7  H3  UNL     1      13.884  -3.503  27.728  1.00  0.00     0.166 HD
HETATM    8  C19 UNL     1      15.064  -5.046  26.923  1.00  0.00     0.044 A 
HETATM    9  C20 UNL     1      14.613  -5.326  25.654  1.00  0.00     0.055 A 
HETATM   10  C21 UNL     1      15.250  -6.315  24.942  1.00  0.00     0.049 A 
HETATM   11 CL1  UNL     1      14.688  -6.693  23.307  1.00  0.00    -0.083 Cl
ENDROOT
BRANCH   5  12
HETATM   12  C7  UNL     1      15.303  -3.454  30.211  1.00  0.00     0.025 A 
HETATM   13  C8  UNL     1      14.980  -4.106  31.394  1.00  0.00     0.016 A 
HETATM   14  C9  UNL     1      14.878  -3.428  32.586  1.00  0.00     0.002 A 
HETATM   15  C10 UNL     1      15.101  -2.067  32.611  1.00  0.00     0.015 A 
HETATM   16  C11 UNL     1      15.423  -1.394  31.455  1.00  0.00     0.008 A 
HETATM   17  C18 UNL     1      15.516  -2.101  30.282  1.00  0.00     0.089 A 
BRANCH  16  18
HETATM   18  C12 UNL     1      15.694   0.045  31.486  1.00  0.00    -0.023 A 
HETATM   19  C13 UNL     1      14.669   0.961  31.334  1.00  0.00     0.012 A 
HETATM   20  C14 UNL     1      14.947   2.307  31.391  1.00  0.00     0.001 A 
HETATM   21  C15 UNL     1      16.223   2.804  31.597  1.00  0.00     0.000 A 
HETATM   22  C16 UNL     1      17.213   1.864  31.742  1.00  0.00     0.001 A 
HETATM   23  C17 UNL     1      16.964   0.516  31.690  1.00  0.00     0.012 A 
ENDBRANCH  16  18
BRANCH  17  24
HETATM   24  O1  UNL     1      15.833  -1.435  29.119  1.00  0.00    -0.359 OA
ATOM     25  H1  UNL     1      15.119  -1.114  28.581  1.00  0.00     0.217 HD
ENDBRANCH  17  24
ENDBRANCH   5  12
BRANCH   1  26
HETATM   26  C1  UNL     1      16.935  -8.058  24.632  1.00  0.00     0.121 C 
HETATM   27  N1  UNL     1      16.177  -9.177  24.207  1.00  0.00    -0.082 NA
HETATM   28  N2  UNL     1      18.163  -7.951  24.290  1.00  0.00    -0.387 N 
ATOM     29  H22 UNL     1      18.592  -8.672  23.709  1.00  0.00     0.157 HD
ATOM     30  H21 UNL     1      18.709  -7.146  24.596  1.00  0.00     0.157 HD
ENDBRANCH   1  26
TORSDOF 4
ENDMDL
