MODEL 5
REMARK VINA RESULT: -8.210354428      1.229      1.937
REMARK  4 active torsions:
REMARK  status: ('A' for Active; 'I' for Inactive)
REMARK    1  A    between atoms: C1_2  and  C2_6 
REMARK    2  A    between atoms: C6_10  and  C7_11 
REMARK    3  A    between atoms: C11_15  and  C12_16 
REMARK    4  A    between atoms: C18_22  and  O1_23 
ROOT
HETATM    1  C2  UNL     1      15.365  -6.303  25.070  1.00  0.00     0.027 A 
HETATM    2  C3  UNL     1      15.049  -5.217  25.846  1.00  0.00     0.030 A 
HETATM    3  C4  UNL     1      15.804  -4.939  26.983  1.00  0.00    -0.006 A 
HETATM    4  C5  UNL     1      15.719  -3.945  27.924  1.00  0.00     0.044 A 
HETATM    5  C6  UNL     1      16.738  -4.142  28.860  1.00  0.00     0.046 A 
HETATM    6  N3  UNL     1      17.395  -5.231  28.460  1.00  0.00    -0.355 N 
ATOM      7  H3  UNL     1      18.199  -5.627  28.947  1.00  0.00     0.166 HD
HETATM    8  C19 UNL     1      16.862  -5.744  27.329  1.00  0.00     0.044 A 
HETATM    9  C20 UNL     1      17.195  -6.836  26.563  1.00  0.00     0.055 A 
HETATM   10  C21 UNL     1      16.441  -7.099  25.444  1.00  0.00     0.049 A 
HETATM   11 CL1  UNL     1      16.851  -8.500  24.442  1.00  0.00    -0.083 Cl
ENDROOT
BRANCH   5  12
HETATM   12  C7  UNL     1      16.980  -3.278  30.032  1.00  0.00     0.025 A 
HETATM   13  C8  UNL     1      17.855  -3.707  31.022  1.00  0.00     0.016 A 
HETATM   14  C9  UNL     1      18.117  -2.941  32.134  1.00  0.00     0.002 A 
HETATM   15  C10 UNL     1      17.498  -1.717  32.273  1.00  0.00     0.015 A 
HETATM   16  C11 UNL     1      16.627  -1.265  31.308  1.00  0.00     0.008 A 
HETATM   17  C18 UNL     1      16.387  -2.054  30.211  1.00  0.00     0.089 A 
BRANCH  16  18
HETATM   18  C12 UNL     1      15.996   0.051  31.437  1.00  0.00    -0.023 A 
HETATM   19  C13 UNL     1      14.712   0.173  31.937  1.00  0.00     0.012 A 
HETATM   20  C14 UNL     1      14.151   1.422  32.070  1.00  0.00     0.001 A 
HETATM   21  C15 UNL     1      14.816   2.587  31.724  1.00  0.00     0.000 A 
HETATM   22  C16 UNL     1      16.087   2.424  31.231  1.00  0.00     0.001 A 
HETATM   23  C17 UNL     1      16.671   1.191  31.089  1.00  0.00     0.012 A 
ENDBRANCH  16  18
BRANCH  17  24
HETATM   24  O1  UNL     1      15.513  -1.612  29.243  1.00  0.00    -0.359 OA
ATOM     25  H1  UNL     1      15.731  -1.783  28.335  1.00  0.00     0.217 HD
ENDBRANCH  17  24
ENDBRANCH   5  12
BRANCH   1  26
HETATM   26  C1  UNL     1      14.625  -6.660  23.868  1.00  0.00     0.121 C 
HETATM   27  N1  UNL     1      13.212  -6.569  23.847  1.00  0.00    -0.082 NA
HETATM   28  N2  UNL     1      15.255  -7.058  22.828  1.00  0.00    -0.387 N 
ATOM     29  H22 UNL     1      14.736  -7.308  21.986  1.00  0.00     0.157 HD
ATOM     30  H21 UNL     1      16.273  -7.123  22.843  1.00  0.00     0.157 HD
ENDBRANCH   1  26
TORSDOF 4
ENDMDL
