MODEL 1
REMARK VINA RESULT: -9.415684435      0.000      0.000
REMARK  4 active torsions:
REMARK  status: ('A' for Active; 'I' for Inactive)
REMARK    1  A    between atoms: C1_2  and  C2_6 
REMARK    2  A    between atoms: C6_10  and  C7_11 
REMARK    3  A    between atoms: C11_15  and  C12_16 
REMARK    4  A    between atoms: C18_22  and  O1_23 
ROOT
HETATM    1  C2  UNL     1      16.090  -6.740  25.247  1.00  0.00     0.027 A 
HETATM    2  C3  UNL     1      16.931  -6.441  26.289  1.00  0.00     0.030 A 
HETATM    3  C4  UNL     1      16.588  -5.428  27.183  1.00  0.00    -0.006 A 
HETATM    4  C5  UNL     1      17.221  -4.924  28.290  1.00  0.00     0.044 A 
HETATM    5  C6  UNL     1      16.427  -3.905  28.821  1.00  0.00     0.046 A 
HETATM    6  N3  UNL     1      15.356  -3.827  28.029  1.00  0.00    -0.355 N 
ATOM      7  H3  UNL     1      14.589  -3.168  28.164  1.00  0.00     0.166 HD
HETATM    8  C19 UNL     1      15.415  -4.731  27.026  1.00  0.00     0.044 A 
HETATM    9  C20 UNL     1      14.559  -5.017  25.988  1.00  0.00     0.055 A 
HETATM   10  C21 UNL     1      14.910  -6.019  25.114  1.00  0.00     0.049 A 
HETATM   11 CL1  UNL     1      13.824  -6.405  23.770  1.00  0.00    -0.083 Cl
ENDROOT
BRANCH   5  12
HETATM   12  C7  UNL     1      16.765  -3.113  30.020  1.00  0.00     0.025 A 
HETATM   13  C8  UNL     1      17.746  -3.580  30.885  1.00  0.00     0.016 A 
HETATM   14  C9  UNL     1      18.100  -2.882  32.016  1.00  0.00     0.002 A 
HETATM   15  C10 UNL     1      17.469  -1.689  32.301  1.00  0.00     0.015 A 
HETATM   16  C11 UNL     1      16.494  -1.202  31.462  1.00  0.00     0.008 A 
HETATM   17  C18 UNL     1      16.163  -1.924  30.341  1.00  0.00     0.089 A 
BRANCH  16  18
HETATM   18  C12 UNL     1      15.846   0.081  31.744  1.00  0.00    -0.023 A 
HETATM   19  C13 UNL     1      16.375   1.262  31.254  1.00  0.00     0.012 A 
HETATM   20  C14 UNL     1      15.734   2.451  31.514  1.00  0.00     0.001 A 
HETATM   21  C15 UNL     1      14.566   2.532  32.253  1.00  0.00     0.000 A 
HETATM   22  C16 UNL     1      14.074   1.339  32.722  1.00  0.00     0.001 A 
HETATM   23  C17 UNL     1      14.691   0.139  32.478  1.00  0.00     0.012 A 
ENDBRANCH  16  18
BRANCH  17  24
HETATM   24  O1  UNL     1      15.185  -1.446  29.498  1.00  0.00    -0.359 OA
ATOM     25  H1  UNL     1      14.401  -1.970  29.382  1.00  0.00     0.217 HD
ENDBRANCH  17  24
ENDBRANCH   5  12
BRANCH   1  26
HETATM   26  C1  UNL     1      16.378  -7.783  24.272  1.00  0.00     0.121 C 
HETATM   27  N1  UNL     1      16.837  -9.053  24.700  1.00  0.00    -0.082 NA
HETATM   28  N2  UNL     1      16.217  -7.548  23.025  1.00  0.00    -0.387 N 
ATOM     29  H22 UNL     1      16.418  -8.279  22.342  1.00  0.00     0.157 HD
ATOM     30  H21 UNL     1      15.887  -6.634  22.717  1.00  0.00     0.157 HD
ENDBRANCH   1  26
TORSDOF 4
ENDMDL
