MODEL 9
REMARK VINA RESULT: -7.659353823      4.718      8.638
REMARK  4 active torsions:
REMARK  status: ('A' for Active; 'I' for Inactive)
REMARK    1  A    between atoms: C1_2  and  C2_6 
REMARK    2  A    between atoms: C6_10  and  C7_11 
REMARK    3  A    between atoms: C11_15  and  C12_16 
REMARK    4  A    between atoms: C18_22  and  O1_23 
ROOT
HETATM    1  C2  UNL     1      12.008  -3.757  34.815  1.00  0.00     0.027 A 
HETATM    2  C3  UNL     1      12.584  -4.651  33.947  1.00  0.00     0.030 A 
HETATM    3  C4  UNL     1      13.620  -4.234  33.114  1.00  0.00    -0.006 A 
HETATM    4  C5  UNL     1      14.364  -4.893  32.169  1.00  0.00     0.044 A 
HETATM    5  C6  UNL     1      15.279  -3.988  31.625  1.00  0.00     0.046 A 
HETATM    6  N3  UNL     1      15.062  -2.830  32.250  1.00  0.00    -0.355 N 
ATOM      7  H3  UNL     1      15.583  -1.972  32.065  1.00  0.00     0.166 HD
HETATM    8  C19 UNL     1      14.066  -2.935  33.157  1.00  0.00     0.044 A 
HETATM    9  C20 UNL     1      13.502  -2.025  34.020  1.00  0.00     0.055 A 
HETATM   10  C21 UNL     1      12.481  -2.451  34.837  1.00  0.00     0.049 A 
HETATM   11 CL1  UNL     1      11.740  -1.297  35.957  1.00  0.00    -0.083 Cl
ENDROOT
BRANCH   5  12
HETATM   12  C7  UNL     1      16.262  -4.317  30.574  1.00  0.00     0.025 A 
HETATM   13  C8  UNL     1      17.618  -4.233  30.863  1.00  0.00     0.016 A 
HETATM   14  C9  UNL     1      18.575  -4.529  29.921  1.00  0.00     0.002 A 
HETATM   15  C10 UNL     1      18.183  -4.919  28.658  1.00  0.00     0.015 A 
HETATM   16  C11 UNL     1      16.847  -5.012  28.343  1.00  0.00     0.008 A 
HETATM   17  C18 UNL     1      15.917  -4.709  29.306  1.00  0.00     0.089 A 
BRANCH  16  18
HETATM   18  C12 UNL     1      16.428  -5.460  27.012  1.00  0.00    -0.023 A 
HETATM   19  C13 UNL     1      15.688  -4.632  26.188  1.00  0.00     0.012 A 
HETATM   20  C14 UNL     1      15.328  -5.067  24.934  1.00  0.00     0.001 A 
HETATM   21  C15 UNL     1      15.674  -6.315  24.442  1.00  0.00     0.000 A 
HETATM   22  C16 UNL     1      16.407  -7.108  25.290  1.00  0.00     0.001 A 
HETATM   23  C17 UNL     1      16.780  -6.699  26.545  1.00  0.00     0.012 A 
ENDBRANCH  16  18
BRANCH  17  24
HETATM   24  O1  UNL     1      14.578  -4.795  28.998  1.00  0.00    -0.359 OA
ATOM     25  H1  UNL     1      14.271  -5.577  28.556  1.00  0.00     0.217 HD
ENDBRANCH  17  24
ENDBRANCH   5  12
BRANCH   1  26
HETATM   26  C1  UNL     1      10.923  -4.116  35.716  1.00  0.00     0.121 C 
HETATM   27  N1  UNL     1      11.206  -4.606  37.015  1.00  0.00    -0.082 NA
HETATM   28  N2  UNL     1       9.710  -3.988  35.332  1.00  0.00    -0.387 N 
ATOM     29  H22 UNL     1       8.949  -4.240  35.964  1.00  0.00     0.157 HD
ATOM     30  H21 UNL     1       9.506  -3.636  34.397  1.00  0.00     0.157 HD
ENDBRANCH   1  26
TORSDOF 4
ENDMDL
