MODEL 2
REMARK VINA RESULT: -9.378814780      0.645      1.157
REMARK  4 active torsions:
REMARK  status: ('A' for Active; 'I' for Inactive)
REMARK    1  A    between atoms: C1_2  and  C2_6 
REMARK    2  A    between atoms: C6_10  and  C7_11 
REMARK    3  A    between atoms: C11_15  and  C12_16 
REMARK    4  A    between atoms: C18_22  and  O1_23 
ROOT
HETATM    1  C2  UNL     1      16.543  -6.737  25.593  1.00  0.00     0.027 A 
HETATM    2  C3  UNL     1      17.250  -6.406  26.721  1.00  0.00     0.030 A 
HETATM    3  C4  UNL     1      16.825  -5.341  27.514  1.00  0.00    -0.006 A 
HETATM    4  C5  UNL     1      17.324  -4.798  28.670  1.00  0.00     0.044 A 
HETATM    5  C6  UNL     1      16.499  -3.734  29.043  1.00  0.00     0.046 A 
HETATM    6  N3  UNL     1      15.543  -3.669  28.115  1.00  0.00    -0.355 N 
ATOM      7  H3  UNL     1      14.786  -2.986  28.117  1.00  0.00     0.166 HD
HETATM    8  C19 UNL     1      15.705  -4.624  27.171  1.00  0.00     0.044 A 
HETATM    9  C20 UNL     1      14.982  -4.941  26.045  1.00  0.00     0.055 A 
HETATM   10  C21 UNL     1      15.413  -5.994  25.272  1.00  0.00     0.049 A 
HETATM   11 CL1  UNL     1      14.499  -6.420  23.817  1.00  0.00    -0.083 Cl
ENDROOT
BRANCH   5  12
HETATM   12  C7  UNL     1      16.704  -2.892  30.238  1.00  0.00     0.025 A 
HETATM   13  C8  UNL     1      17.714  -3.218  31.133  1.00  0.00     0.016 A 
HETATM   14  C9  UNL     1      17.948  -2.467  32.261  1.00  0.00     0.002 A 
HETATM   15  C10 UNL     1      17.161  -1.362  32.514  1.00  0.00     0.015 A 
HETATM   16  C11 UNL     1      16.153  -1.015  31.645  1.00  0.00     0.008 A 
HETATM   17  C18 UNL     1      15.946  -1.786  30.528  1.00  0.00     0.089 A 
BRANCH  16  18
HETATM   18  C12 UNL     1      15.340   0.178  31.893  1.00  0.00    -0.023 A 
HETATM   19  C13 UNL     1      14.251   0.127  32.744  1.00  0.00     0.012 A 
HETATM   20  C14 UNL     1      13.518   1.267  32.978  1.00  0.00     0.001 A 
HETATM   21  C15 UNL     1      13.817   2.488  32.396  1.00  0.00     0.000 A 
HETATM   22  C16 UNL     1      14.903   2.498  31.557  1.00  0.00     0.001 A 
HETATM   23  C17 UNL     1      15.652   1.376  31.306  1.00  0.00     0.012 A 
ENDBRANCH  16  18
BRANCH  17  24
HETATM   24  O1  UNL     1      14.936  -1.447  29.655  1.00  0.00    -0.359 OA
ATOM     25  H1  UNL     1      15.179  -1.100  28.805  1.00  0.00     0.217 HD
ENDBRANCH  17  24
ENDBRANCH   5  12
BRANCH   1  26
HETATM   26  C1  UNL     1      16.922  -7.834  24.714  1.00  0.00     0.121 C 
HETATM   27  N1  UNL     1      15.960  -8.794  24.315  1.00  0.00    -0.082 NA
HETATM   28  N2  UNL     1      18.129  -7.930  24.304  1.00  0.00    -0.387 N 
ATOM     29  H22 UNL     1      18.396  -8.699  23.688  1.00  0.00     0.157 HD
ATOM     30  H21 UNL     1      18.822  -7.239  24.592  1.00  0.00     0.157 HD
ENDBRANCH   1  26
TORSDOF 4
ENDMDL
