MODEL 6
REMARK VINA RESULT: -7.938565946      4.688      8.785
REMARK  4 active torsions:
REMARK  status: ('A' for Active; 'I' for Inactive)
REMARK    1  A    between atoms: C1_2  and  C2_6 
REMARK    2  A    between atoms: C6_10  and  C7_11 
REMARK    3  A    between atoms: C11_15  and  C12_16 
REMARK    4  A    between atoms: C18_22  and  O1_23 
ROOT
HETATM    1  C2  UNL     1      12.152  -3.067  35.008  1.00  0.00     0.027 A 
HETATM    2  C3  UNL     1      13.272  -2.624  34.352  1.00  0.00     0.030 A 
HETATM    3  C4  UNL     1      13.810  -3.383  33.315  1.00  0.00    -0.006 A 
HETATM    4  C5  UNL     1      14.897  -3.192  32.502  1.00  0.00     0.044 A 
HETATM    5  C6  UNL     1      14.981  -4.275  31.623  1.00  0.00     0.046 A 
HETATM    6  N3  UNL     1      13.957  -5.073  31.928  1.00  0.00    -0.355 N 
ATOM      7  H3  UNL     1      13.753  -5.952  31.453  1.00  0.00     0.166 HD
HETATM    8  C19 UNL     1      13.224  -4.570  32.947  1.00  0.00     0.044 A 
HETATM    9  C20 UNL     1      12.101  -5.031  33.592  1.00  0.00     0.055 A 
HETATM   10  C21 UNL     1      11.581  -4.271  34.614  1.00  0.00     0.049 A 
HETATM   11 CL1  UNL     1      10.135  -4.844  35.459  1.00  0.00    -0.083 Cl
ENDROOT
BRANCH   5  12
HETATM   12  C7  UNL     1      16.020  -4.438  30.587  1.00  0.00     0.025 A 
HETATM   13  C8  UNL     1      17.345  -4.169  30.907  1.00  0.00     0.016 A 
HETATM   14  C9  UNL     1      18.352  -4.306  29.981  1.00  0.00     0.002 A 
HETATM   15  C10 UNL     1      18.043  -4.719  28.702  1.00  0.00     0.015 A 
HETATM   16  C11 UNL     1      16.740  -4.993  28.356  1.00  0.00     0.008 A 
HETATM   17  C18 UNL     1      15.759  -4.846  29.305  1.00  0.00     0.089 A 
BRANCH  16  18
HETATM   18  C12 UNL     1      16.415  -5.466  27.008  1.00  0.00    -0.023 A 
HETATM   19  C13 UNL     1      16.836  -6.710  26.574  1.00  0.00     0.012 A 
HETATM   20  C14 UNL     1      16.498  -7.139  25.312  1.00  0.00     0.001 A 
HETATM   21  C15 UNL     1      15.741  -6.379  24.436  1.00  0.00     0.000 A 
HETATM   22  C16 UNL     1      15.343  -5.151  24.902  1.00  0.00     0.001 A 
HETATM   23  C17 UNL     1      15.666  -4.697  26.156  1.00  0.00     0.012 A 
ENDBRANCH  16  18
BRANCH  17  24
HETATM   24  O1  UNL     1      14.451  -5.113  28.966  1.00  0.00    -0.359 OA
ATOM     25  H1  UNL     1      13.784  -4.988  29.630  1.00  0.00     0.217 HD
ENDBRANCH  17  24
ENDBRANCH   5  12
BRANCH   1  26
HETATM   26  C1  UNL     1      11.531  -2.332  36.101  1.00  0.00     0.121 C 
HETATM   27  N1  UNL     1      10.374  -1.548  35.867  1.00  0.00    -0.082 NA
HETATM   28  N2  UNL     1      12.034  -2.395  37.275  1.00  0.00    -0.387 N 
ATOM     29  H22 UNL     1      11.599  -1.879  38.041  1.00  0.00     0.157 HD
ATOM     30  H21 UNL     1      12.867  -2.959  37.443  1.00  0.00     0.157 HD
ENDBRANCH   1  26
TORSDOF 4
ENDMDL
