MODEL 10
REMARK VINA RESULT: -8.852304322      4.552      6.175
REMARK  5 active torsions:
REMARK  status: ('A' for Active; 'I' for Inactive)
REMARK    1  A    between atoms: C7_7  and  O1_8 
REMARK    2  A    between atoms: O1_8  and  C8_9 
REMARK    3  A    between atoms: C12_13  and  C13_14 
REMARK    4  A    between atoms: C16_19  and  C17_20 
REMARK    5  A    between atoms: C21_31  and  O2_32 
ROOT
HETATM    1  C13 UNL     1      19.118 -14.166  20.325  1.00  0.00     0.119 A 
HETATM    2  N1  UNL     1      20.419 -14.353  20.563  1.00  0.00    -0.340 N 
ATOM      3  H1  UNL     1      21.124 -14.455  19.833  1.00  0.00     0.167 HD
HETATM    4  C14 UNL     1      20.688 -14.391  21.880  1.00  0.00     0.061 A 
HETATM    5  C15 UNL     1      21.856 -14.559  22.620  1.00  0.00     0.050 A 
HETATM    6  C16 UNL     1      21.844 -14.557  23.996  1.00  0.00     0.045 A 
HETATM    7  C18 UNL     1      20.593 -14.376  24.603  1.00  0.00     0.132 A 
HETATM    8  F1  UNL     1      20.593 -14.375  25.969  1.00  0.00    -0.205 F 
HETATM    9  C19 UNL     1      19.425 -14.208  23.916  1.00  0.00     0.075 A 
HETATM   10  C20 UNL     1      19.484 -14.217  22.526  1.00  0.00     0.063 A 
HETATM   11  N4  UNL     1      18.568 -14.085  21.573  1.00  0.00    -0.340 N 
ATOM     12  H4  UNL     1      17.574 -13.942  21.753  1.00  0.00     0.167 HD
ENDROOT
BRANCH   1  13
HETATM   13  C12 UNL     1      18.349 -14.055  19.095  1.00  0.00     0.044 A 
HETATM   14  C11 UNL     1      16.998 -14.363  19.091  1.00  0.00     0.018 A 
HETATM   15  C10 UNL     1      16.256 -14.262  17.925  1.00  0.00     0.004 A 
HETATM   16  C9  UNL     1      16.816 -13.862  16.757  1.00  0.00     0.040 A 
HETATM   17  C8  UNL     1      18.182 -13.538  16.709  1.00  0.00     0.103 A 
HETATM   18  C21 UNL     1      18.912 -13.650  17.907  1.00  0.00     0.113 A 
BRANCH  17  19
HETATM   19  O1  UNL     1      18.726 -13.143  15.544  1.00  0.00    -0.343 OA
BRANCH  19  20
HETATM   20  C7  UNL     1      19.047 -11.966  14.980  1.00  0.00     0.132 C 
HETATM   21  C2  UNL     1      20.238 -12.043  14.025  1.00  0.00     0.011 C 
HETATM   22  C1  UNL     1      21.168 -13.123  14.539  1.00  0.00     0.012 C 
HETATM   23  C3  UNL     1      19.850 -12.367  12.631  1.00  0.00     0.007 C 
HETATM   24  C4  UNL     1      18.545 -13.134  12.639  1.00  0.00     0.001 C 
HETATM   25  C5  UNL     1      17.470 -12.145  13.029  1.00  0.00     0.002 C 
HETATM   26  C6  UNL     1      17.831 -11.388  14.253  1.00  0.00     0.033 C 
ENDBRANCH  19  20
ENDBRANCH  17  19
BRANCH  18  27
HETATM   27  O2  UNL     1      20.252 -13.335  17.870  1.00  0.00    -0.357 OA
ATOM     28  H2  UNL     1      20.553 -12.778  17.162  1.00  0.00     0.217 HD
ENDBRANCH  18  27
ENDBRANCH   1  13
BRANCH   6  29
HETATM   29  C17 UNL     1      23.032 -14.728  24.817  1.00  0.00     0.123 C 
HETATM   30  N2  UNL     1      24.064 -13.753  24.774  1.00  0.00    -0.082 NA
HETATM   31  N3  UNL     1      23.175 -15.734  25.579  1.00  0.00    -0.387 N 
ATOM     32  H32 UNL     1      22.433 -16.434  25.610  1.00  0.00     0.157 HD
ATOM     33  H31 UNL     1      24.008 -15.854  26.155  1.00  0.00     0.157 HD
ENDBRANCH   6  29
TORSDOF 5
ENDMDL
