MODEL 6
REMARK VINA RESULT: -9.058202708      2.014      3.008
REMARK  5 active torsions:
REMARK  status: ('A' for Active; 'I' for Inactive)
REMARK    1  A    between atoms: C7_7  and  O1_8 
REMARK    2  A    between atoms: O1_8  and  C8_9 
REMARK    3  A    between atoms: C12_13  and  C13_14 
REMARK    4  A    between atoms: C16_19  and  C17_20 
REMARK    5  A    between atoms: C21_31  and  O2_32 
ROOT
HETATM    1  C13 UNL     1      14.076 -13.463  19.485  1.00  0.00     0.119 A 
HETATM    2  N1  UNL     1      14.220 -12.236  19.997  1.00  0.00    -0.340 N 
ATOM      3  H1  UNL     1      14.870 -11.539  19.633  1.00  0.00     0.167 HD
HETATM    4  C14 UNL     1      13.406 -12.033  21.048  1.00  0.00     0.061 A 
HETATM    5  C15 UNL     1      13.187 -10.953  21.900  1.00  0.00     0.050 A 
HETATM    6  C16 UNL     1      12.269 -11.018  22.924  1.00  0.00     0.045 A 
HETATM    7  C18 UNL     1      11.575 -12.229  23.055  1.00  0.00     0.132 A 
HETATM    8  F1  UNL     1      10.666 -12.282  24.074  1.00  0.00    -0.205 F 
HETATM    9  C19 UNL     1      11.759 -13.311  22.243  1.00  0.00     0.075 A 
HETATM   10  C20 UNL     1      12.698 -13.200  21.221  1.00  0.00     0.063 A 
HETATM   11  N4  UNL     1      13.118 -14.033  20.275  1.00  0.00    -0.340 N 
ATOM     12  H4  UNL     1      12.767 -14.983  20.153  1.00  0.00     0.167 HD
ENDROOT
BRANCH   1  13
HETATM   13  C12 UNL     1      14.715 -14.144  18.371  1.00  0.00     0.044 A 
HETATM   14  C11 UNL     1      14.540 -15.508  18.199  1.00  0.00     0.018 A 
HETATM   15  C10 UNL     1      15.145 -16.168  17.140  1.00  0.00     0.004 A 
HETATM   16  C9  UNL     1      15.920 -15.512  16.243  1.00  0.00     0.040 A 
HETATM   17  C8  UNL     1      16.128 -14.129  16.373  1.00  0.00     0.103 A 
HETATM   18  C21 UNL     1      15.503 -13.484  17.457  1.00  0.00     0.113 A 
BRANCH  17  19
HETATM   19  O1  UNL     1      16.901 -13.491  15.475  1.00  0.00    -0.343 OA
BRANCH  19  20
HETATM   20  C7  UNL     1      18.217 -13.416  15.217  1.00  0.00     0.132 C 
HETATM   21  C2  UNL     1      18.560 -13.468  13.729  1.00  0.00     0.011 C 
HETATM   22  C1  UNL     1      17.519 -14.334  13.050  1.00  0.00     0.012 C 
HETATM   23  C3  UNL     1      18.569 -12.133  13.083  1.00  0.00     0.007 C 
HETATM   24  C4  UNL     1      17.659 -11.199  13.850  1.00  0.00     0.001 C 
HETATM   25  C5  UNL     1      18.353 -10.905  15.161  1.00  0.00     0.002 C 
HETATM   26  C6  UNL     1      18.798 -12.145  15.842  1.00  0.00     0.033 C 
ENDBRANCH  19  20
ENDBRANCH  17  19
BRANCH  18  27
HETATM   27  O2  UNL     1      15.701 -12.129  17.592  1.00  0.00    -0.357 OA
ATOM     28  H2  UNL     1      16.499 -11.841  18.019  1.00  0.00     0.217 HD
ENDBRANCH  18  27
ENDBRANCH   1  13
BRANCH   6  29
HETATM   29  C17 UNL     1      11.999  -9.923  23.841  1.00  0.00     0.123 C 
HETATM   30  N2  UNL     1      12.939  -8.867  23.972  1.00  0.00    -0.082 NA
HETATM   31  N3  UNL     1      10.937  -9.884  24.537  1.00  0.00    -0.387 N 
ATOM     32  H32 UNL     1      10.262 -10.643  24.443  1.00  0.00     0.157 HD
ATOM     33  H31 UNL     1      10.748  -9.115  25.181  1.00  0.00     0.157 HD
ENDBRANCH   6  29
TORSDOF 5
ENDMDL
