MODEL 7
REMARK VINA RESULT: -9.025351231      2.027      3.164
REMARK  5 active torsions:
REMARK  status: ('A' for Active; 'I' for Inactive)
REMARK    1  A    between atoms: C7_7  and  O1_8 
REMARK    2  A    between atoms: O1_8  and  C8_9 
REMARK    3  A    between atoms: C12_13  and  C13_14 
REMARK    4  A    between atoms: C16_19  and  C17_20 
REMARK    5  A    between atoms: C21_31  and  O2_32 
ROOT
HETATM    1  C13 UNL     1      14.260 -13.570  19.360  1.00  0.00     0.119 A 
HETATM    2  N1  UNL     1      13.660 -14.099  20.431  1.00  0.00    -0.340 N 
ATOM      3  H1  UNL     1      13.676 -15.092  20.662  1.00  0.00     0.167 HD
HETATM    4  C14 UNL     1      13.034 -13.163  21.168  1.00  0.00     0.061 A 
HETATM    5  C15 UNL     1      12.287 -13.205  22.343  1.00  0.00     0.050 A 
HETATM    6  C16 UNL     1      11.746 -12.066  22.893  1.00  0.00     0.045 A 
HETATM    7  C18 UNL     1      11.991 -10.870  22.203  1.00  0.00     0.132 A 
HETATM    8  F1  UNL     1      11.450  -9.745  22.759  1.00  0.00    -0.205 F 
HETATM    9  C19 UNL     1      12.717 -10.784  21.050  1.00  0.00     0.075 A 
HETATM   10  C20 UNL     1      13.245 -11.962  20.530  1.00  0.00     0.063 A 
HETATM   11  N4  UNL     1      13.979 -12.236  19.456  1.00  0.00    -0.340 N 
ATOM     12  H4  UNL     1      14.294 -11.535  18.786  1.00  0.00     0.167 HD
ENDROOT
BRANCH   1  13
HETATM   13  C12 UNL     1      15.046 -14.154  18.285  1.00  0.00     0.044 A 
HETATM   14  C11 UNL     1      14.707 -15.395  17.772  1.00  0.00     0.018 A 
HETATM   15  C10 UNL     1      15.449 -15.961  16.748  1.00  0.00     0.004 A 
HETATM   16  C9  UNL     1      16.523 -15.329  16.214  1.00  0.00     0.040 A 
HETATM   17  C8  UNL     1      16.908 -14.068  16.699  1.00  0.00     0.103 A 
HETATM   18  C21 UNL     1      16.137 -13.517  17.740  1.00  0.00     0.113 A 
BRANCH  17  19
HETATM   19  O1  UNL     1      17.976 -13.452  16.161  1.00  0.00    -0.343 OA
BRANCH  19  20
HETATM   20  C7  UNL     1      18.182 -12.343  15.430  1.00  0.00     0.132 C 
HETATM   21  C2  UNL     1      19.571 -12.268  14.797  1.00  0.00     0.011 C 
HETATM   22  C1  UNL     1      20.536 -12.971  15.729  1.00  0.00     0.012 C 
HETATM   23  C3  UNL     1      19.640 -12.909  13.462  1.00  0.00     0.007 C 
HETATM   24  C4  UNL     1      18.569 -13.973  13.360  1.00  0.00     0.001 C 
HETATM   25  C5  UNL     1      17.247 -13.244  13.276  1.00  0.00     0.002 C 
HETATM   26  C6  UNL     1      17.107 -12.227  14.347  1.00  0.00     0.033 C 
ENDBRANCH  19  20
ENDBRANCH  17  19
BRANCH  18  27
HETATM   27  O2  UNL     1      16.506 -12.282  18.221  1.00  0.00    -0.357 OA
ATOM     28  H2  UNL     1      15.964 -11.893  18.898  1.00  0.00     0.217 HD
ENDBRANCH  18  27
ENDBRANCH   1  13
BRANCH   6  29
HETATM   29  C17 UNL     1      10.959 -12.051  24.116  1.00  0.00     0.123 C 
HETATM   30  N2  UNL     1      11.179 -11.035  25.082  1.00  0.00    -0.082 NA
HETATM   31  N3  UNL     1      10.071 -12.930  24.347  1.00  0.00    -0.387 N 
ATOM     32  H32 UNL     1       9.913 -13.660  23.652  1.00  0.00     0.157 HD
ATOM     33  H31 UNL     1       9.519 -12.919  25.205  1.00  0.00     0.157 HD
ENDBRANCH   6  29
TORSDOF 5
ENDMDL
