MODEL 9
REMARK VINA RESULT: -8.901248885      5.427      9.463
REMARK  5 active torsions:
REMARK  status: ('A' for Active; 'I' for Inactive)
REMARK    1  A    between atoms: C7_7  and  O1_8 
REMARK    2  A    between atoms: O1_8  and  C8_9 
REMARK    3  A    between atoms: C12_13  and  C13_14 
REMARK    4  A    between atoms: C16_19  and  C17_20 
REMARK    5  A    between atoms: C21_31  and  O2_32 
ROOT
HETATM    1  C13 UNL     1      19.125 -14.251  18.575  1.00  0.00     0.119 A 
HETATM    2  N1  UNL     1      20.098 -14.151  17.664  1.00  0.00    -0.340 N 
ATOM      3  H1  UNL     1      21.004 -14.613  17.745  1.00  0.00     0.167 HD
HETATM    4  C14 UNL     1      19.739 -13.370  16.629  1.00  0.00     0.061 A 
HETATM    5  C15 UNL     1      20.381 -12.965  15.461  1.00  0.00     0.050 A 
HETATM    6  C16 UNL     1      19.764 -12.140  14.549  1.00  0.00     0.045 A 
HETATM    7  C18 UNL     1      18.459 -11.735  14.867  1.00  0.00     0.132 A 
HETATM    8  F1  UNL     1      17.857 -10.916  13.954  1.00  0.00    -0.205 F 
HETATM    9  C19 UNL     1      17.794 -12.107  15.999  1.00  0.00     0.075 A 
HETATM   10  C20 UNL     1      18.457 -12.943  16.893  1.00  0.00     0.063 A 
HETATM   11  N4  UNL     1      18.118 -13.484  18.058  1.00  0.00    -0.340 N 
ATOM     12  H4  UNL     1      17.215 -13.344  18.512  1.00  0.00     0.167 HD
ENDROOT
BRANCH   1  13
HETATM   13  C12 UNL     1      19.030 -14.962  19.839  1.00  0.00     0.044 A 
HETATM   14  C11 UNL     1      18.076 -15.952  20.009  1.00  0.00     0.018 A 
HETATM   15  C10 UNL     1      17.976 -16.636  21.211  1.00  0.00     0.004 A 
HETATM   16  C9  UNL     1      18.800 -16.367  22.253  1.00  0.00     0.040 A 
HETATM   17  C8  UNL     1      19.785 -15.373  22.131  1.00  0.00     0.103 A 
HETATM   18  C21 UNL     1      19.863 -14.693  20.900  1.00  0.00     0.113 A 
BRANCH  17  19
HETATM   19  O1  UNL     1      20.596 -15.116  23.173  1.00  0.00    -0.343 OA
BRANCH  19  20
HETATM   20  C7  UNL     1      21.090 -15.819  24.206  1.00  0.00     0.132 C 
HETATM   21  C2  UNL     1      22.379 -15.240  24.788  1.00  0.00     0.011 C 
HETATM   22  C1  UNL     1      23.136 -14.579  23.654  1.00  0.00     0.012 C 
HETATM   23  C3  UNL     1      22.141 -14.238  25.855  1.00  0.00     0.007 C 
HETATM   24  C4  UNL     1      20.782 -13.604  25.653  1.00  0.00     0.001 C 
HETATM   25  C5  UNL     1      19.760 -14.663  26.000  1.00  0.00     0.002 C 
HETATM   26  C6  UNL     1      20.032 -15.944  25.304  1.00  0.00     0.033 C 
ENDBRANCH  19  20
ENDBRANCH  17  19
BRANCH  18  27
HETATM   27  O2  UNL     1      20.826 -13.718  20.771  1.00  0.00    -0.357 OA
ATOM     28  H2  UNL     1      21.108 -13.271  21.560  1.00  0.00     0.217 HD
ENDBRANCH  18  27
ENDBRANCH   1  13
BRANCH   6  29
HETATM   29  C17 UNL     1      20.385 -11.687  13.316  1.00  0.00     0.123 C 
HETATM   30  N2  UNL     1      19.907 -12.169  12.068  1.00  0.00    -0.082 NA
HETATM   31  N3  UNL     1      21.354 -10.865  13.321  1.00  0.00    -0.387 N 
ATOM     32  H32 UNL     1      21.697 -10.518  14.217  1.00  0.00     0.157 HD
ATOM     33  H31 UNL     1      21.790 -10.547  12.455  1.00  0.00     0.157 HD
ENDBRANCH   6  29
TORSDOF 5
ENDMDL
