MODEL 8
REMARK VINA RESULT: -9.017139161      6.092      7.900
REMARK  5 active torsions:
REMARK  status: ('A' for Active; 'I' for Inactive)
REMARK    1  A    between atoms: C7_7  and  O1_8 
REMARK    2  A    between atoms: O1_8  and  C8_9 
REMARK    3  A    between atoms: C12_13  and  C13_14 
REMARK    4  A    between atoms: C16_19  and  C17_20 
REMARK    5  A    between atoms: C21_31  and  O2_32 
ROOT
HETATM    1  C13 UNL     1      14.122 -12.803  11.236  1.00  0.00     0.119 A 
HETATM    2  N1  UNL     1      13.254 -11.788  11.296  1.00  0.00    -0.340 N 
ATOM      3  H1  UNL     1      13.523 -10.815  11.437  1.00  0.00     0.167 HD
HETATM    4  C14 UNL     1      11.983 -12.206  11.149  1.00  0.00     0.061 A 
HETATM    5  C15 UNL     1      10.752 -11.555  11.138  1.00  0.00     0.050 A 
HETATM    6  C16 UNL     1       9.574 -12.245  10.965  1.00  0.00     0.045 A 
HETATM    7  C18 UNL     1       9.690 -13.633  10.801  1.00  0.00     0.132 A 
HETATM    8  F1  UNL     1       8.514 -14.307  10.630  1.00  0.00    -0.205 F 
HETATM    9  C19 UNL     1      10.875 -14.310  10.806  1.00  0.00     0.075 A 
HETATM   10  C20 UNL     1      12.041 -13.571  10.985  1.00  0.00     0.063 A 
HETATM   11  N4  UNL     1      13.328 -13.898  11.040  1.00  0.00    -0.340 N 
ATOM     12  H4  UNL     1      13.679 -14.851  10.948  1.00  0.00     0.167 HD
ENDROOT
BRANCH   1  13
HETATM   13  C12 UNL     1      15.571 -12.864  11.336  1.00  0.00     0.044 A 
HETATM   14  C11 UNL     1      16.343 -12.962  10.191  1.00  0.00     0.018 A 
HETATM   15  C10 UNL     1      17.726 -13.022  10.275  1.00  0.00     0.004 A 
HETATM   16  C9  UNL     1      18.367 -12.987  11.468  1.00  0.00     0.040 A 
HETATM   17  C8  UNL     1      17.630 -12.888  12.659  1.00  0.00     0.103 A 
HETATM   18  C21 UNL     1      16.228 -12.829  12.544  1.00  0.00     0.113 A 
BRANCH  17  19
HETATM   19  O1  UNL     1      18.280 -12.854  13.837  1.00  0.00    -0.343 OA
BRANCH  19  20
HETATM   20  C7  UNL     1      18.755 -11.894  14.648  1.00  0.00     0.132 C 
HETATM   21  C2  UNL     1      19.044 -12.373  16.070  1.00  0.00     0.011 C 
HETATM   22  C1  UNL     1      18.048 -13.468  16.395  1.00  0.00     0.012 C 
HETATM   23  C3  UNL     1      20.417 -12.907  16.241  1.00  0.00     0.007 C 
HETATM   24  C4  UNL     1      20.926 -13.415  14.910  1.00  0.00     0.001 C 
HETATM   25  C5  UNL     1      21.180 -12.196  14.054  1.00  0.00     0.002 C 
HETATM   26  C6  UNL     1      20.016 -11.276  14.039  1.00  0.00     0.033 C 
ENDBRANCH  19  20
ENDBRANCH  17  19
BRANCH  18  27
HETATM   27  O2  UNL     1      15.497 -12.732  13.707  1.00  0.00    -0.357 OA
ATOM     28  H2  UNL     1      14.553 -12.816  13.641  1.00  0.00     0.217 HD
ENDBRANCH  18  27
ENDBRANCH   1  13
BRANCH   6  29
HETATM   29  C17 UNL     1       8.263 -11.618  10.945  1.00  0.00     0.123 C 
HETATM   30  N2  UNL     1       7.742 -11.115   9.723  1.00  0.00    -0.082 NA
HETATM   31  N3  UNL     1       7.562 -11.505  11.998  1.00  0.00    -0.387 N 
ATOM     32  H32 UNL     1       7.937 -11.867  12.876  1.00  0.00     0.157 HD
ATOM     33  H31 UNL     1       6.642 -11.065  11.984  1.00  0.00     0.157 HD
ENDBRANCH   6  29
TORSDOF 5
ENDMDL
