MODEL 3
REMARK VINA RESULT: -9.275233946      2.931      8.425
REMARK  10 active torsions:
REMARK  status: ('A' for Active; 'I' for Inactive)
REMARK    1  A    between atoms: C1_2  and  C2_4 
REMARK    2  A    between atoms: N2_6  and  C4_7 
REMARK    3  A    between atoms: C4_7  and  C5_8 
REMARK    4  A    between atoms: C4_7  and  C6_11 
REMARK    5  A    between atoms: C5_8  and  O2_9 
REMARK    6  A    between atoms: C6_11  and  C7_12 
REMARK    7  A    between atoms: C7_12  and  N3_13 
REMARK    8  A    between atoms: C13_19  and  N4_20 
REMARK       I    between atoms: N4_20  and  C14_22 
REMARK       I    between atoms: C14_22  and  N5_24 
REMARK    9  A    between atoms: N5_24  and  C15_26 
REMARK   10  A    between atoms: C15_26  and  C16_27 
ROOT
HETATM    1  N3  UNL     1      50.976  54.024  20.805  1.00  0.00    -0.356 N 
HETATM    2  C8  UNL     1      51.725  53.698  21.855  1.00  0.00     0.092 A 
HETATM    3  C9  UNL     1      51.975  54.878  22.557  1.00  0.00     0.031 A 
HETATM    4  C10 UNL     1      51.357  55.916  21.900  1.00  0.00    -0.008 A 
HETATM    5  C11 UNL     1      51.284  57.267  22.156  1.00  0.00     0.016 A 
HETATM    6  C12 UNL     1      50.563  58.066  21.277  1.00  0.00     0.030 A 
HETATM    7  C13 UNL     1      49.928  57.575  20.177  1.00  0.00     0.038 A 
HETATM    8  C22 UNL     1      50.035  56.194  19.964  1.00  0.00     0.060 A 
HETATM    9  C23 UNL     1      50.736  55.360  20.805  1.00  0.00     0.046 A 
ENDROOT
BRANCH   1  10
HETATM   10  C7  UNL     1      50.478  53.105  19.788  1.00  0.00     0.131 C 
BRANCH  10  11
HETATM   11  C6  UNL     1      50.602  51.659  20.199  1.00  0.00     0.048 C 
BRANCH  11  12
HETATM   12  C4  UNL     1      51.395  50.837  19.222  1.00  0.00     0.115 C 
BRANCH  12  13
HETATM   13  N2  UNL     1      50.584  50.447  18.075  1.00  0.00    -0.344 N 
HETATM   14  C3  UNL     1      50.784  50.672  16.765  1.00  0.00     0.127 A 
HETATM   15  C2  UNL     1      49.745  50.115  16.033  1.00  0.00     0.114 A 
HETATM   16  N6  UNL     1      48.936  49.563  16.925  1.00  0.00    -0.347 N 
HETATM   17  C24 UNL     1      49.433  49.757  18.176  1.00  0.00     0.183 A 
ATOM     18  H6  UNL     1      48.071  49.068  16.706  1.00  0.00     0.167 HD
BRANCH  15  19
HETATM   19  C1  UNL     1      49.582  50.135  14.574  1.00  0.00     0.282 C 
HETATM   20  N1  UNL     1      50.709  50.117  13.706  1.00  0.00    -0.056 NA
HETATM   21  O1  UNL     1      48.418  50.170  14.103  1.00  0.00    -0.269 OA
ENDBRANCH  15  19
ENDBRANCH  12  13
BRANCH  12  22
HETATM   22  C5  UNL     1      52.624  51.595  18.748  1.00  0.00     0.189 C 
BRANCH  22  23
HETATM   23  O2  UNL     1      53.616  51.551  19.759  1.00  0.00    -0.399 OA
ATOM     24  H2  UNL     1      54.314  52.157  19.538  1.00  0.00     0.209 HD
ENDBRANCH  22  23
ENDBRANCH  12  22
ENDBRANCH  11  12
ENDBRANCH  10  11
ENDBRANCH   1  10
BRANCH   7  25
HETATM   25  N4  UNL     1      49.189  58.319  19.244  1.00  0.00    -0.309 N 
HETATM   26  C14 UNL     1      47.834  58.684  19.379  1.00  0.00     0.320 C 
HETATM   27  O3  UNL     1      47.172  58.368  20.365  1.00  0.00    -0.247 OA
HETATM   28  N5  UNL     1      47.151  59.447  18.371  1.00  0.00    -0.339 N 
ATOM     29  H5  UNL     1      47.653  59.736  17.531  1.00  0.00     0.164 HD
ATOM     30  H4  UNL     1      49.672  58.620  18.398  1.00  0.00     0.170 HD
BRANCH  28  31
HETATM   31  C15 UNL     1      45.761  59.809  18.533  1.00  0.00     0.162 C 
BRANCH  31  32
HETATM   32  C16 UNL     1      45.547  61.265  18.719  1.00  0.00    -0.040 A 
HETATM   33  C17 UNL     1      46.601  62.128  18.918  1.00  0.00     0.009 A 
HETATM   34  C18 UNL     1      46.389  63.501  19.089  1.00  0.00     0.001 A 
HETATM   35  C19 UNL     1      45.114  64.030  19.063  1.00  0.00     0.000 A 
HETATM   36  C20 UNL     1      44.058  63.166  18.864  1.00  0.00     0.001 A 
HETATM   37  C21 UNL     1      44.269  61.809  18.695  1.00  0.00     0.009 A 
ENDBRANCH  31  32
ENDBRANCH  28  31
ENDBRANCH   7  25
TORSDOF 10
ENDMDL
