MODEL 4
REMARK VINA RESULT: -9.264156499      2.419      5.136
REMARK  10 active torsions:
REMARK  status: ('A' for Active; 'I' for Inactive)
REMARK    1  A    between atoms: C1_2  and  C2_4 
REMARK    2  A    between atoms: N2_6  and  C4_7 
REMARK    3  A    between atoms: C4_7  and  C5_8 
REMARK    4  A    between atoms: C4_7  and  C6_11 
REMARK    5  A    between atoms: C5_8  and  O2_9 
REMARK    6  A    between atoms: C6_11  and  C7_12 
REMARK    7  A    between atoms: C7_12  and  N3_13 
REMARK    8  A    between atoms: C13_19  and  N4_20 
REMARK       I    between atoms: N4_20  and  C14_22 
REMARK       I    between atoms: C14_22  and  N5_24 
REMARK    9  A    between atoms: N5_24  and  C15_26 
REMARK   10  A    between atoms: C15_26  and  C16_27 
ROOT
HETATM    1  N3  UNL     1      50.579  53.702  20.173  1.00  0.00    -0.356 N 
HETATM    2  C8  UNL     1      51.185  54.054  21.304  1.00  0.00     0.092 A 
HETATM    3  C9  UNL     1      51.559  52.874  21.948  1.00  0.00     0.031 A 
HETATM    4  C10 UNL     1      51.162  51.809  21.174  1.00  0.00    -0.008 A 
HETATM    5  C11 UNL     1      51.278  50.447  21.337  1.00  0.00     0.016 A 
HETATM    6  C12 UNL     1      50.759  49.619  20.349  1.00  0.00     0.030 A 
HETATM    7  C13 UNL     1      50.143  50.093  19.230  1.00  0.00     0.038 A 
HETATM    8  C22 UNL     1      50.052  51.486  19.116  1.00  0.00     0.060 A 
HETATM    9  C23 UNL     1      50.550  52.348  20.067  1.00  0.00     0.046 A 
ENDROOT
BRANCH   1  10
HETATM   10  C7  UNL     1      50.017  54.611  19.182  1.00  0.00     0.131 C 
BRANCH  10  11
HETATM   11  C6  UNL     1      49.037  55.590  19.779  1.00  0.00     0.048 C 
BRANCH  11  12
HETATM   12  C4  UNL     1      49.388  57.022  19.493  1.00  0.00     0.115 C 
BRANCH  12  13
HETATM   13  N2  UNL     1      50.648  57.395  20.123  1.00  0.00    -0.344 N 
HETATM   14  C3  UNL     1      51.905  57.299  19.655  1.00  0.00     0.127 A 
HETATM   15  C2  UNL     1      52.794  57.778  20.607  1.00  0.00     0.114 A 
HETATM   16  N6  UNL     1      52.048  58.155  21.635  1.00  0.00    -0.347 N 
HETATM   17  C24 UNL     1      50.736  57.929  21.355  1.00  0.00     0.183 A 
ATOM     18  H6  UNL     1      52.404  58.554  22.504  1.00  0.00     0.167 HD
BRANCH  15  19
HETATM   19  C1  UNL     1      54.256  57.849  20.494  1.00  0.00     0.282 C 
HETATM   20  N1  UNL     1      54.957  57.097  19.509  1.00  0.00    -0.056 NA
HETATM   21  O1  UNL     1      54.883  58.591  21.290  1.00  0.00    -0.269 OA
ENDBRANCH  15  19
ENDBRANCH  12  13
BRANCH  12  22
HETATM   22  C5  UNL     1      49.470  57.272  17.995  1.00  0.00     0.189 C 
BRANCH  22  23
HETATM   23  O2  UNL     1      48.339  58.023  17.587  1.00  0.00    -0.399 OA
ATOM     24  H2  UNL     1      48.327  58.849  18.055  1.00  0.00     0.209 HD
ENDBRANCH  22  23
ENDBRANCH  12  22
ENDBRANCH  11  12
ENDBRANCH  10  11
ENDBRANCH   1  10
BRANCH   7  25
HETATM   25  N4  UNL     1      49.590  49.320  18.196  1.00  0.00    -0.309 N 
HETATM   26  C14 UNL     1      48.231  48.970  18.076  1.00  0.00     0.320 C 
HETATM   27  O3  UNL     1      47.392  49.330  18.898  1.00  0.00    -0.247 OA
HETATM   28  N5  UNL     1      47.749  48.171  16.983  1.00  0.00    -0.339 N 
ATOM     29  H5  UNL     1      48.402  47.844  16.271  1.00  0.00     0.164 HD
ATOM     30  H4  UNL     1      50.226  48.985  17.472  1.00  0.00     0.170 HD
BRANCH  28  31
HETATM   31  C15 UNL     1      46.349  47.825  16.881  1.00  0.00     0.162 C 
BRANCH  31  32
HETATM   32  C16 UNL     1      45.798  47.987  15.514  1.00  0.00    -0.040 A 
HETATM   33  C17 UNL     1      46.558  48.499  14.487  1.00  0.00     0.009 A 
HETATM   34  C18 UNL     1      46.029  48.646  13.199  1.00  0.00     0.001 A 
HETATM   35  C19 UNL     1      44.727  48.281  12.922  1.00  0.00     0.000 A 
HETATM   36  C20 UNL     1      43.965  47.768  13.950  1.00  0.00     0.001 A 
HETATM   37  C21 UNL     1      44.488  47.624  15.223  1.00  0.00     0.009 A 
ENDBRANCH  31  32
ENDBRANCH  28  31
ENDBRANCH   7  25
TORSDOF 10
ENDMDL
