MODEL 1
REMARK VINA RESULT: -10.000995010      0.000      0.000
REMARK  10 active torsions:
REMARK  status: ('A' for Active; 'I' for Inactive)
REMARK    1  A    between atoms: C1_2  and  C2_4 
REMARK    2  A    between atoms: N2_6  and  C4_7 
REMARK    3  A    between atoms: C4_7  and  C5_8 
REMARK    4  A    between atoms: C4_7  and  C6_11 
REMARK    5  A    between atoms: C5_8  and  O2_9 
REMARK    6  A    between atoms: C6_11  and  C7_12 
REMARK    7  A    between atoms: C7_12  and  N3_13 
REMARK    8  A    between atoms: C13_19  and  N4_20 
REMARK       I    between atoms: N4_20  and  C14_22 
REMARK       I    between atoms: C14_22  and  N5_24 
REMARK    9  A    between atoms: N5_24  and  C15_26 
REMARK   10  A    between atoms: C15_26  and  C16_27 
ROOT
HETATM    1  N3  UNL     1      49.307  58.121  19.431  1.00  0.00    -0.356 N 
HETATM    2  C8  UNL     1      48.706  59.215  18.971  1.00  0.00     0.092 A 
HETATM    3  C9  UNL     1      48.149  58.883  17.735  1.00  0.00     0.031 A 
HETATM    4  C10 UNL     1      48.432  57.564  17.470  1.00  0.00    -0.008 A 
HETATM    5  C11 UNL     1      48.126  56.744  16.407  1.00  0.00     0.016 A 
HETATM    6  C12 UNL     1      48.571  55.427  16.442  1.00  0.00     0.030 A 
HETATM    7  C13 UNL     1      49.293  54.914  17.476  1.00  0.00     0.038 A 
HETATM    8  C22 UNL     1      49.576  55.792  18.531  1.00  0.00     0.060 A 
HETATM    9  C23 UNL     1      49.158  57.104  18.543  1.00  0.00     0.046 A 
ENDROOT
BRANCH   1  10
HETATM   10  C7  UNL     1      50.029  58.004  20.693  1.00  0.00     0.131 C 
BRANCH  10  11
HETATM   11  C6  UNL     1      51.526  58.014  20.510  1.00  0.00     0.048 C 
BRANCH  11  12
HETATM   12  C4  UNL     1      52.263  57.394  21.663  1.00  0.00     0.115 C 
BRANCH  12  13
HETATM   13  N2  UNL     1      52.136  55.942  21.654  1.00  0.00    -0.344 N 
HETATM   14  C3  UNL     1      52.244  55.076  20.631  1.00  0.00     0.127 A 
HETATM   15  C2  UNL     1      52.045  53.783  21.094  1.00  0.00     0.114 A 
HETATM   16  N6  UNL     1      51.821  53.899  22.394  1.00  0.00    -0.347 N 
HETATM   17  C24 UNL     1      51.874  55.210  22.752  1.00  0.00     0.183 A 
ATOM     18  H6  UNL     1      51.637  53.122  23.030  1.00  0.00     0.167 HD
BRANCH  15  19
HETATM   19  C1  UNL     1      52.078  52.547  20.302  1.00  0.00     0.282 C 
HETATM   20  N1  UNL     1      53.310  51.915  19.972  1.00  0.00    -0.056 NA
HETATM   21  O1  UNL     1      50.989  52.053  19.918  1.00  0.00    -0.269 OA
ENDBRANCH  15  19
ENDBRANCH  12  13
BRANCH  12  22
HETATM   22  C5  UNL     1      53.733  57.781  21.638  1.00  0.00     0.189 C 
BRANCH  22  23
HETATM   23  O2  UNL     1      53.886  59.063  22.222  1.00  0.00    -0.399 OA
ATOM     24  H2  UNL     1      54.597  59.037  22.851  1.00  0.00     0.209 HD
ENDBRANCH  22  23
ENDBRANCH  12  22
ENDBRANCH  11  12
ENDBRANCH  10  11
ENDBRANCH   1  10
BRANCH   7  25
HETATM   25  N4  UNL     1      49.780  53.601  17.578  1.00  0.00    -0.309 N 
HETATM   26  C14 UNL     1      49.277  52.487  16.878  1.00  0.00     0.320 C 
HETATM   27  O3  UNL     1      48.338  52.584  16.090  1.00  0.00    -0.247 OA
HETATM   28  N5  UNL     1      49.835  51.173  17.044  1.00  0.00    -0.339 N 
ATOM     29  H5  UNL     1      50.616  51.034  17.685  1.00  0.00     0.164 HD
ATOM     30  H4  UNL     1      50.562  53.441  18.213  1.00  0.00     0.170 HD
BRANCH  28  31
HETATM   31  C15 UNL     1      49.301  50.046  16.314  1.00  0.00     0.162 C 
BRANCH  31  32
HETATM   32  C16 UNL     1      48.039  49.515  16.884  1.00  0.00    -0.040 A 
HETATM   33  C17 UNL     1      47.865  49.376  18.243  1.00  0.00     0.009 A 
HETATM   34  C18 UNL     1      46.670  48.876  18.771  1.00  0.00     0.001 A 
HETATM   35  C19 UNL     1      45.628  48.508  17.944  1.00  0.00     0.000 A 
HETATM   36  C20 UNL     1      45.801  48.647  16.583  1.00  0.00     0.001 A 
HETATM   37  C21 UNL     1      46.984  49.141  16.061  1.00  0.00     0.009 A 
ENDBRANCH  31  32
ENDBRANCH  28  31
ENDBRANCH   7  25
TORSDOF 10
ENDMDL
