MODEL 2
REMARK VINA RESULT: -9.536819200      2.193      4.984
REMARK  10 active torsions:
REMARK  status: ('A' for Active; 'I' for Inactive)
REMARK    1  A    between atoms: C1_2  and  C2_4 
REMARK    2  A    between atoms: N2_6  and  C4_7 
REMARK    3  A    between atoms: C4_7  and  C5_8 
REMARK    4  A    between atoms: C4_7  and  C6_11 
REMARK    5  A    between atoms: C5_8  and  O2_9 
REMARK    6  A    between atoms: C6_11  and  C7_12 
REMARK    7  A    between atoms: C7_12  and  N3_13 
REMARK    8  A    between atoms: C13_19  and  N4_20 
REMARK       I    between atoms: N4_20  and  C14_22 
REMARK       I    between atoms: C14_22  and  N5_24 
REMARK    9  A    between atoms: N5_24  and  C15_26 
REMARK   10  A    between atoms: C15_26  and  C16_27 
ROOT
HETATM    1  N3  UNL     1      50.186  54.058  20.637  1.00  0.00    -0.356 N 
HETATM    2  C8  UNL     1      50.918  54.489  21.661  1.00  0.00     0.092 A 
HETATM    3  C9  UNL     1      51.845  53.485  21.948  1.00  0.00     0.031 A 
HETATM    4  C10 UNL     1      51.649  52.446  21.070  1.00  0.00    -0.008 A 
HETATM    5  C11 UNL     1      52.276  51.230  20.914  1.00  0.00     0.016 A 
HETATM    6  C12 UNL     1      51.827  50.382  19.907  1.00  0.00     0.030 A 
HETATM    7  C13 UNL     1      50.800  50.700  19.071  1.00  0.00     0.038 A 
HETATM    8  C22 UNL     1      50.198  51.949  19.275  1.00  0.00     0.060 A 
HETATM    9  C23 UNL     1      50.605  52.823  20.257  1.00  0.00     0.046 A 
ENDROOT
BRANCH   1  10
HETATM   10  C7  UNL     1      49.090  54.779  20.002  1.00  0.00     0.131 C 
BRANCH  10  11
HETATM   11  C6  UNL     1      49.256  56.276  20.079  1.00  0.00     0.048 C 
BRANCH  11  12
HETATM   12  C4  UNL     1      50.155  56.824  19.007  1.00  0.00     0.115 C 
BRANCH  12  13
HETATM   13  N2  UNL     1      51.516  57.004  19.497  1.00  0.00    -0.344 N 
HETATM   14  C3  UNL     1      51.981  57.814  20.465  1.00  0.00     0.127 A 
HETATM   15  C2  UNL     1      53.353  57.651  20.588  1.00  0.00     0.114 A 
HETATM   16  N6  UNL     1      53.688  56.741  19.685  1.00  0.00    -0.347 N 
HETATM   17  C24 UNL     1      52.578  56.336  19.011  1.00  0.00     0.183 A 
ATOM     18  H6  UNL     1      54.634  56.397  19.521  1.00  0.00     0.167 HD
BRANCH  15  19
HETATM   19  C1  UNL     1      54.245  58.346  21.524  1.00  0.00     0.282 C 
HETATM   20  N1  UNL     1      55.495  57.784  21.907  1.00  0.00    -0.056 NA
HETATM   21  O1  UNL     1      53.880  59.456  21.987  1.00  0.00    -0.269 OA
ENDBRANCH  15  19
ENDBRANCH  12  13
BRANCH  12  22
HETATM   22  C5  UNL     1      50.164  55.913  17.790  1.00  0.00     0.189 C 
BRANCH  22  23
HETATM   23  O2  UNL     1      49.694  56.635  16.665  1.00  0.00    -0.399 OA
ATOM     24  H2  UNL     1      49.934  57.549  16.758  1.00  0.00     0.209 HD
ENDBRANCH  22  23
ENDBRANCH  12  22
ENDBRANCH  11  12
ENDBRANCH  10  11
ENDBRANCH   1  10
BRANCH   7  25
HETATM   25  N4  UNL     1      50.290  49.895  18.040  1.00  0.00    -0.309 N 
HETATM   26  C14 UNL     1      49.024  49.277  18.037  1.00  0.00     0.320 C 
HETATM   27  O3  UNL     1      48.237  49.402  18.973  1.00  0.00    -0.247 OA
HETATM   28  N5  UNL     1      48.580  48.465  16.937  1.00  0.00    -0.339 N 
ATOM     29  H5  UNL     1      49.193  48.327  16.133  1.00  0.00     0.164 HD
ATOM     30  H4  UNL     1      50.885  49.746  17.225  1.00  0.00     0.170 HD
BRANCH  28  31
HETATM   31  C15 UNL     1      47.277  47.841  16.958  1.00  0.00     0.162 C 
BRANCH  31  32
HETATM   32  C16 UNL     1      46.502  48.048  15.709  1.00  0.00    -0.040 A 
HETATM   33  C17 UNL     1      47.062  48.652  14.607  1.00  0.00     0.009 A 
HETATM   34  C18 UNL     1      46.324  48.841  13.432  1.00  0.00     0.001 A 
HETATM   35  C19 UNL     1      45.011  48.425  13.346  1.00  0.00     0.000 A 
HETATM   36  C20 UNL     1      44.449  47.820  14.451  1.00  0.00     0.001 A 
HETATM   37  C21 UNL     1      45.179  47.634  15.611  1.00  0.00     0.009 A 
ENDBRANCH  31  32
ENDBRANCH  28  31
ENDBRANCH   7  25
TORSDOF 10
ENDMDL
