MODEL 13
REMARK VINA RESULT: -8.363444486      2.085      3.337
REMARK  8 active torsions:
REMARK  status: ('A' for Active; 'I' for Inactive)
REMARK    1  A    between atoms: N1_5  and  C4_6 
REMARK    2  A    between atoms: C5_8  and  C6_9 
REMARK    3  A    between atoms: C6_9  and  O3_10 
REMARK    4  A    between atoms: O3_10  and  P1_11 
REMARK    5  A    between atoms: P1_11  and  O6_14 
REMARK    6  A    between atoms: O6_14  and  P2_15 
REMARK    7  A    between atoms: C7_19  and  O10_20 
REMARK    8  A    between atoms: C8_22  and  O11_23 
ROOT
HETATM    1  C4  UNL     1       3.034  11.113  43.836  1.00  0.00     0.263 C 
HETATM    2  O2  UNL     1       2.862  10.568  45.099  1.00  0.00    -0.353 OA
HETATM    3  C5  UNL     1       3.665   9.461  45.204  1.00  0.00     0.180 C 
HETATM    4  C7  UNL     1       4.747   9.565  44.159  1.00  0.00     0.182 C 
HETATM    5  C8  UNL     1       4.558  11.010  43.684  1.00  0.00     0.198 C 
ENDROOT
BRANCH   3   6
HETATM    6  C6  UNL     1       4.316   9.475  46.564  1.00  0.00     0.216 C 
BRANCH   6   7
HETATM    7  O3  UNL     1       3.422   9.053  47.505  1.00  0.00    -0.287 OA
BRANCH   7   8
HETATM    8  P1  UNL     1       3.374   9.854  48.924  1.00  0.00     0.418 P 
HETATM    9  O4  UNL     1       2.894  11.175  48.346  1.00  0.00    -0.624 OA
HETATM   10  O5  UNL     1       1.922   9.781  49.833  1.00  0.00    -0.624 OA
BRANCH   8  11
HETATM   11  O6  UNL     1       4.696  10.480  49.622  1.00  0.00    -0.173 OA
BRANCH  11  12
HETATM   12  P2  UNL     1       5.743   9.682  50.378  1.00  0.00     0.431 P 
HETATM   13  O7  UNL     1       4.789   8.360  50.466  1.00  0.00    -0.616 OA
HETATM   14  O8  UNL     1       6.883   9.801  49.191  1.00  0.00    -0.616 OA
HETATM   15  O9  UNL     1       5.687  10.799  51.610  1.00  0.00    -0.616 OA
ENDBRANCH  11  12
ENDBRANCH   8  11
ENDBRANCH   7   8
ENDBRANCH   6   7
ENDBRANCH   3   6
BRANCH   4  16
HETATM   16  O10 UNL     1       4.449   8.701  43.117  1.00  0.00    -0.390 OA
ATOM     17  H10 UNL     1       4.325   7.827  43.468  1.00  0.00     0.210 HD
ENDBRANCH   4  16
BRANCH   1  18
HETATM   18  N1  UNL     1       2.661  12.504  43.777  1.00  0.00    -0.280 N 
HETATM   19  C3  UNL     1       2.369  13.240  44.856  1.00  0.00     0.104 A 
HETATM   20  C2  UNL     1       2.023  14.565  44.687  1.00  0.00     0.092 A 
HETATM   21  C1  UNL     1       1.966  15.166  43.436  1.00  0.00     0.250 A 
HETATM   22  O1  UNL     1       1.648  16.376  43.307  1.00  0.00    -0.268 OA
HETATM   23  N2  UNL     1       2.268  14.382  42.386  1.00  0.00    -0.275 N 
HETATM   24  C9  UNL     1       2.605  13.087  42.567  1.00  0.00     0.331 A 
ATOM     25  H2  UNL     1       2.242  14.770  41.443  1.00  0.00     0.173 HD
HETATM   26  O12 UNL     1       2.879  12.407  41.534  1.00  0.00    -0.246 OA
ENDBRANCH   1  18
BRANCH   5  27
HETATM   27  O11 UNL     1       4.965  11.188  42.386  1.00  0.00    -0.388 OA
ATOM     28  H11 UNL     1       5.866  11.484  42.328  1.00  0.00     0.210 HD
ENDBRANCH   5  27
TORSDOF 8
ENDMDL
