MODEL 7
REMARK VINA RESULT: -8.482484474      2.232      3.624
REMARK  8 active torsions:
REMARK  status: ('A' for Active; 'I' for Inactive)
REMARK    1  A    between atoms: N1_5  and  C4_6 
REMARK    2  A    between atoms: C5_8  and  C6_9 
REMARK    3  A    between atoms: C6_9  and  O3_10 
REMARK    4  A    between atoms: O3_10  and  P1_11 
REMARK    5  A    between atoms: P1_11  and  O6_14 
REMARK    6  A    between atoms: O6_14  and  P2_15 
REMARK    7  A    between atoms: C7_19  and  O10_20 
REMARK    8  A    between atoms: C8_22  and  O11_23 
ROOT
HETATM    1  C4  UNL     1       3.182   9.659  48.151  1.00  0.00     0.263 C 
HETATM    2  O2  UNL     1       3.273  10.557  49.204  1.00  0.00    -0.353 OA
HETATM    3  C5  UNL     1       2.710   9.978  50.313  1.00  0.00     0.180 C 
HETATM    4  C7  UNL     1       2.687   8.485  50.104  1.00  0.00     0.182 C 
HETATM    5  C8  UNL     1       3.566   8.351  48.855  1.00  0.00     0.198 C 
ENDROOT
BRANCH   3   6
HETATM    6  C6  UNL     1       3.591  10.276  51.501  1.00  0.00     0.216 C 
BRANCH   6   7
HETATM    7  O3  UNL     1       4.814  10.702  51.070  1.00  0.00    -0.287 OA
BRANCH   7   8
HETATM    8  P1  UNL     1       6.118   9.807  51.466  1.00  0.00     0.418 P 
HETATM    9  O4  UNL     1       7.074  10.476  50.493  1.00  0.00    -0.624 OA
HETATM   10  O5  UNL     1       7.110  10.365  52.749  1.00  0.00    -0.624 OA
BRANCH   8  11
HETATM   11  O6  UNL     1       6.360   8.311  50.891  1.00  0.00    -0.173 OA
BRANCH  11  12
HETATM   12  P2  UNL     1       6.397   7.048  51.735  1.00  0.00     0.431 P 
HETATM   13  O7  UNL     1       7.995   7.199  52.036  1.00  0.00    -0.616 OA
HETATM   14  O8  UNL     1       5.295   7.593  52.836  1.00  0.00    -0.616 OA
HETATM   15  O9  UNL     1       5.906   6.166  50.414  1.00  0.00    -0.616 OA
ENDBRANCH  11  12
ENDBRANCH   8  11
ENDBRANCH   7   8
ENDBRANCH   6   7
ENDBRANCH   3   6
BRANCH   4  16
HETATM   16  O10 UNL     1       1.394   8.096  49.794  1.00  0.00    -0.390 OA
ATOM     17  H10 UNL     1       1.060   8.659  49.106  1.00  0.00     0.210 HD
ENDBRANCH   4  16
BRANCH   1  18
HETATM   18  N1  UNL     1       4.148   9.922  47.114  1.00  0.00    -0.280 N 
HETATM   19  C3  UNL     1       5.336  10.498  47.335  1.00  0.00     0.104 A 
HETATM   20  C2  UNL     1       6.186  10.704  46.269  1.00  0.00     0.092 A 
HETATM   21  C1  UNL     1       5.856  10.336  44.971  1.00  0.00     0.250 A 
HETATM   22  O1  UNL     1       6.649  10.534  44.014  1.00  0.00    -0.268 OA
HETATM   23  N2  UNL     1       4.652   9.762  44.804  1.00  0.00    -0.275 N 
HETATM   24  C9  UNL     1       3.829   9.566  45.857  1.00  0.00     0.331 A 
ATOM     25  H2  UNL     1       4.355   9.471  43.872  1.00  0.00     0.173 HD
HETATM   26  O12 UNL     1       2.710   9.019  45.629  1.00  0.00    -0.246 OA
ENDBRANCH   1  18
BRANCH   5  27
HETATM   27  O11 UNL     1       3.245   7.244  48.111  1.00  0.00    -0.388 OA
ATOM     28  H11 UNL     1       2.416   6.861  48.373  1.00  0.00     0.210 HD
ENDBRANCH   5  27
TORSDOF 8
ENDMDL
