MODEL 10
REMARK VINA RESULT: -8.401428217      2.387      4.190
REMARK  8 active torsions:
REMARK  status: ('A' for Active; 'I' for Inactive)
REMARK    1  A    between atoms: N1_5  and  C4_6 
REMARK    2  A    between atoms: C5_8  and  C6_9 
REMARK    3  A    between atoms: C6_9  and  O3_10 
REMARK    4  A    between atoms: O3_10  and  P1_11 
REMARK    5  A    between atoms: P1_11  and  O6_14 
REMARK    6  A    between atoms: O6_14  and  P2_15 
REMARK    7  A    between atoms: C7_19  and  O10_20 
REMARK    8  A    between atoms: C8_22  and  O11_23 
ROOT
HETATM    1  C4  UNL     1       2.733  11.375  43.482  1.00  0.00     0.263 C 
HETATM    2  O2  UNL     1       2.522  10.660  44.651  1.00  0.00    -0.353 OA
HETATM    3  C5  UNL     1       3.250   9.499  44.583  1.00  0.00     0.180 C 
HETATM    4  C7  UNL     1       4.339   9.687  43.558  1.00  0.00     0.182 C 
HETATM    5  C8  UNL     1       4.247  11.195  43.305  1.00  0.00     0.198 C 
ENDROOT
BRANCH   3   6
HETATM    6  C6  UNL     1       3.898   9.267  45.925  1.00  0.00     0.216 C 
BRANCH   6   7
HETATM    7  O3  UNL     1       3.856  10.417  46.660  1.00  0.00    -0.287 OA
BRANCH   7   8
HETATM    8  P1  UNL     1       5.141  10.771  47.599  1.00  0.00     0.418 P 
HETATM    9  O4  UNL     1       6.188  10.576  46.515  1.00  0.00    -0.624 OA
HETATM   10  O5  UNL     1       5.625  12.412  47.704  1.00  0.00    -0.624 OA
BRANCH   8  11
HETATM   11  O6  UNL     1       5.799   9.699  48.621  1.00  0.00    -0.173 OA
BRANCH  11  12
HETATM   12  P2  UNL     1       5.758   9.801  50.136  1.00  0.00     0.431 P 
HETATM   13  O7  UNL     1       6.190   8.238  50.334  1.00  0.00    -0.616 OA
HETATM   14  O8  UNL     1       6.899  10.990  50.219  1.00  0.00    -0.616 OA
HETATM   15  O9  UNL     1       4.142  10.185  50.053  1.00  0.00    -0.616 OA
ENDBRANCH  11  12
ENDBRANCH   8  11
ENDBRANCH   7   8
ENDBRANCH   6   7
ENDBRANCH   3   6
BRANCH   4  16
HETATM   16  O10 UNL     1       3.987   9.009  42.401  1.00  0.00    -0.390 OA
ATOM     17  H10 UNL     1       4.309   9.495  41.650  1.00  0.00     0.210 HD
ENDBRANCH   4  16
BRANCH   1  18
HETATM   18  N1  UNL     1       2.454  12.780  43.634  1.00  0.00    -0.280 N 
HETATM   19  C3  UNL     1       2.231  13.370  44.816  1.00  0.00     0.104 A 
HETATM   20  C2  UNL     1       1.972  14.724  44.848  1.00  0.00     0.092 A 
HETATM   21  C1  UNL     1       1.933  15.503  43.699  1.00  0.00     0.250 A 
HETATM   22  O1  UNL     1       1.694  16.737  43.754  1.00  0.00    -0.268 OA
HETATM   23  N2  UNL     1       2.163  14.862  42.539  1.00  0.00    -0.275 N 
HETATM   24  C9  UNL     1       2.415  13.536  42.522  1.00  0.00     0.331 A 
ATOM     25  H2  UNL     1       2.146  15.383  41.663  1.00  0.00     0.173 HD
HETATM   26  O12 UNL     1       2.624  12.997  41.396  1.00  0.00    -0.246 OA
ENDBRANCH   1  18
BRANCH   5  27
HETATM   27  O11 UNL     1       4.669  11.537  42.045  1.00  0.00    -0.388 OA
ATOM     28  H11 UNL     1       4.765  12.477  41.939  1.00  0.00     0.210 HD
ENDBRANCH   5  27
TORSDOF 8
ENDMDL
