MODEL 2
REMARK VINA RESULT: -8.760543839      4.289      7.698
REMARK  8 active torsions:
REMARK  status: ('A' for Active; 'I' for Inactive)
REMARK    1  A    between atoms: N1_5  and  C4_6 
REMARK    2  A    between atoms: C5_8  and  C6_9 
REMARK    3  A    between atoms: C6_9  and  O3_10 
REMARK    4  A    between atoms: O3_10  and  P1_11 
REMARK    5  A    between atoms: P1_11  and  O6_14 
REMARK    6  A    between atoms: O6_14  and  P2_15 
REMARK    7  A    between atoms: C7_19  and  O10_20 
REMARK    8  A    between atoms: C8_22  and  O11_23 
ROOT
HETATM    1  C4  UNL     1       5.642   7.883  50.102  1.00  0.00     0.263 C 
HETATM    2  O2  UNL     1       5.316   9.203  49.831  1.00  0.00    -0.353 OA
HETATM    3  C5  UNL     1       4.268   9.215  48.945  1.00  0.00     0.180 C 
HETATM    4  C7  UNL     1       3.579   7.876  49.015  1.00  0.00     0.182 C 
HETATM    5  C8  UNL     1       4.244   7.269  50.256  1.00  0.00     0.198 C 
ENDROOT
BRANCH   3   6
HETATM    6  C6  UNL     1       3.289  10.274  49.385  1.00  0.00     0.216 C 
BRANCH   6   7
HETATM    7  O3  UNL     1       2.648  10.788  48.295  1.00  0.00    -0.287 OA
BRANCH   7   8
HETATM    8  P1  UNL     1       3.558  11.465  47.124  1.00  0.00     0.418 P 
HETATM    9  O4  UNL     1       3.134  12.898  47.401  1.00  0.00    -0.624 OA
HETATM   10  O5  UNL     1       5.164  11.915  47.520  1.00  0.00    -0.624 OA
BRANCH   8  11
HETATM   11  O6  UNL     1       3.106  11.486  45.567  1.00  0.00    -0.173 OA
BRANCH  11  12
HETATM   12  P2  UNL     1       3.291  10.338  44.590  1.00  0.00     0.431 P 
HETATM   13  O7  UNL     1       4.758  10.873  44.113  1.00  0.00    -0.616 OA
HETATM   14  O8  UNL     1       3.176   9.164  45.744  1.00  0.00    -0.616 OA
HETATM   15  O9  UNL     1       1.941  10.842  43.761  1.00  0.00    -0.616 OA
ENDBRANCH  11  12
ENDBRANCH   8  11
ENDBRANCH   7   8
ENDBRANCH   6   7
ENDBRANCH   3   6
BRANCH   4  16
HETATM   16  O10 UNL     1       3.931   7.131  47.901  1.00  0.00    -0.390 OA
ATOM     17  H10 UNL     1       4.522   6.437  48.168  1.00  0.00     0.210 HD
ENDBRANCH   4  16
BRANCH   1  18
HETATM   18  N1  UNL     1       6.348   7.732  51.349  1.00  0.00    -0.280 N 
HETATM   19  C3  UNL     1       5.743   7.671  52.542  1.00  0.00     0.104 A 
HETATM   20  C2  UNL     1       6.515   7.527  53.675  1.00  0.00     0.092 A 
HETATM   21  C1  UNL     1       7.901   7.441  53.627  1.00  0.00     0.250 A 
HETATM   22  O1  UNL     1       8.584   7.310  54.675  1.00  0.00    -0.268 OA
HETATM   23  N2  UNL     1       8.458   7.509  52.405  1.00  0.00    -0.275 N 
HETATM   24  C9  UNL     1       7.689   7.650  51.304  1.00  0.00     0.331 A 
ATOM     25  H2  UNL     1       9.472   7.453  52.308  1.00  0.00     0.173 HD
HETATM   26  O12 UNL     1       8.279   7.706  50.185  1.00  0.00    -0.246 OA
ENDBRANCH   1  18
BRANCH   5  27
HETATM   27  O11 UNL     1       4.269   5.897  50.213  1.00  0.00    -0.388 OA
ATOM     28  H11 UNL     1       3.493   5.535  49.802  1.00  0.00     0.210 HD
ENDBRANCH   5  27
TORSDOF 8
ENDMDL
