MODEL 3
REMARK VINA RESULT: -8.685258963      3.695      7.737
REMARK  8 active torsions:
REMARK  status: ('A' for Active; 'I' for Inactive)
REMARK    1  A    between atoms: N1_5  and  C4_6 
REMARK    2  A    between atoms: C5_8  and  C6_9 
REMARK    3  A    between atoms: C6_9  and  O3_10 
REMARK    4  A    between atoms: O3_10  and  P1_11 
REMARK    5  A    between atoms: P1_11  and  O6_14 
REMARK    6  A    between atoms: O6_14  and  P2_15 
REMARK    7  A    between atoms: C7_19  and  O10_20 
REMARK    8  A    between atoms: C8_22  and  O11_23 
ROOT
HETATM    1  C4  UNL     1       4.438  10.014  48.916  1.00  0.00     0.263 C 
HETATM    2  O2  UNL     1       3.537   9.488  48.002  1.00  0.00    -0.353 OA
HETATM    3  C5  UNL     1       3.419  10.370  46.958  1.00  0.00     0.180 C 
HETATM    4  C7  UNL     1       4.635  11.261  46.957  1.00  0.00     0.182 C 
HETATM    5  C8  UNL     1       5.528  10.541  47.973  1.00  0.00     0.198 C 
ENDROOT
BRANCH   3   6
HETATM    6  C6  UNL     1       3.408   9.582  45.672  1.00  0.00     0.216 C 
BRANCH   6   7
HETATM    7  O3  UNL     1       4.638   9.647  45.084  1.00  0.00    -0.287 OA
BRANCH   7   8
HETATM    8  P1  UNL     1       4.703   9.901  43.475  1.00  0.00     0.418 P 
HETATM    9  O4  UNL     1       6.215  10.026  43.394  1.00  0.00    -0.624 OA
HETATM   10  O5  UNL     1       4.810   8.528  42.454  1.00  0.00    -0.624 OA
BRANCH   8  11
HETATM   11  O6  UNL     1       4.409  11.347  42.804  1.00  0.00    -0.173 OA
BRANCH  11  12
HETATM   12  P2  UNL     1       3.028  11.932  42.564  1.00  0.00     0.431 P 
HETATM   13  O7  UNL     1       3.516  12.751  41.239  1.00  0.00    -0.616 OA
HETATM   14  O8  UNL     1       2.290  10.464  42.402  1.00  0.00    -0.616 OA
HETATM   15  O9  UNL     1       3.101  12.681  44.047  1.00  0.00    -0.616 OA
ENDBRANCH  11  12
ENDBRANCH   8  11
ENDBRANCH   7   8
ENDBRANCH   6   7
ENDBRANCH   3   6
BRANCH   4  16
HETATM   16  O10 UNL     1       4.282  12.503  47.462  1.00  0.00    -0.390 OA
ATOM     17  H10 UNL     1       3.629  12.892  46.892  1.00  0.00     0.210 HD
ENDBRANCH   4  16
BRANCH   1  18
HETATM   18  N1  UNL     1       5.017   9.003  49.765  1.00  0.00    -0.280 N 
HETATM   19  C3  UNL     1       5.101   7.710  49.430  1.00  0.00     0.104 A 
HETATM   20  C2  UNL     1       5.674   6.825  50.319  1.00  0.00     0.092 A 
HETATM   21  C1  UNL     1       6.170   7.226  51.553  1.00  0.00     0.250 A 
HETATM   22  O1  UNL     1       6.688   6.400  52.348  1.00  0.00    -0.268 OA
HETATM   23  N2  UNL     1       6.060   8.535  51.841  1.00  0.00    -0.275 N 
HETATM   24  C9  UNL     1       5.496   9.390  50.960  1.00  0.00     0.331 A 
ATOM     25  H2  UNL     1       6.406   8.886  52.734  1.00  0.00     0.173 HD
HETATM   26  O12 UNL     1       5.426  10.609  51.296  1.00  0.00    -0.246 OA
ENDBRANCH   1  18
BRANCH   5  27
HETATM   27  O11 UNL     1       6.393  11.398  48.604  1.00  0.00    -0.388 OA
ATOM     28  H11 UNL     1       7.282  11.065  48.623  1.00  0.00     0.210 HD
ENDBRANCH   5  27
TORSDOF 8
ENDMDL
