MODEL 4
REMARK VINA RESULT: -7.831523037      2.150      6.200
REMARK  13 active torsions:
REMARK  status: ('A' for Active; 'I' for Inactive)
REMARK    1  A    between atoms: N1_1  and  C1_5 
REMARK    2  A    between atoms: C1_5  and  C2_6 
REMARK    3  A    between atoms: C2_6  and  C3_7 
REMARK    4  A    between atoms: C3_7  and  C4_8 
REMARK    5  A    between atoms: C4_8  and  C5_9 
REMARK    6  A    between atoms: C5_9  and  N2_10 
REMARK    7  A    between atoms: C5_9  and  C16_24 
REMARK    8  A    between atoms: N2_10  and  C6_12 
REMARK    9  A    between atoms: C6_12  and  C7_13 
REMARK   10  A    between atoms: C6_12  and  C15_21 
REMARK   11  A    between atoms: C7_13  and  C8_14 
REMARK   12  A    between atoms: C8_14  and  C9_15 
REMARK       I    between atoms: C16_24  and  N3_26 
REMARK   13  A    between atoms: C20_30  and  C21_31 
ROOT
HETATM    1  C5  UNL     1      42.524  32.441  41.419  1.00  0.00     0.074 C 
ENDROOT
BRANCH   1   2
HETATM    2  C4  UNL     1      42.014  33.363  40.369  1.00  0.00     0.062 C 
BRANCH   2   3
HETATM    3  C3  UNL     1      42.911  34.492  39.997  1.00  0.00     0.008 C 
BRANCH   3   4
HETATM    4  C2  UNL     1      42.511  35.823  40.648  1.00  0.00     0.027 C 
BRANCH   4   5
HETATM    5  C1  UNL     1      43.749  36.380  41.327  1.00  0.00     0.229 C 
BRANCH   5   6
HETATM    6  N1  UNL     1      44.123  35.486  42.389  1.00  0.00    -0.079 N 
ATOM      7  H13 UNL     1      43.335  34.942  42.739  1.00  0.00     0.274 HD
ATOM      8  H12 UNL     1      44.695  34.708  42.064  1.00  0.00     0.274 HD
ATOM      9  H11 UNL     1      44.579  36.031  43.120  1.00  0.00     0.274 HD
ENDBRANCH   5   6
ENDBRANCH   4   5
ENDBRANCH   3   4
ENDBRANCH   2   3
ENDBRANCH   1   2
BRANCH   1  10
HETATM   10  N2  UNL     1      42.619  31.066  41.103  1.00  0.00    -0.374 N 
ATOM     11  H2  UNL     1      42.440  30.339  41.795  1.00  0.00     0.160 HD
BRANCH  10  12
HETATM   12  C6  UNL     1      42.985  30.752  39.736  1.00  0.00     0.183 C 
BRANCH  12  13
HETATM   13  C7  UNL     1      44.456  30.496  39.653  1.00  0.00     0.041 C 
BRANCH  13  14
HETATM   14  C8  UNL     1      45.238  31.270  38.668  1.00  0.00     0.041 C 
BRANCH  14  15
HETATM   15  C9  UNL     1      45.893  32.396  39.441  1.00  0.00    -0.058 A 
HETATM   16  C10 UNL     1      46.204  32.263  40.780  1.00  0.00     0.007 A 
HETATM   17  C11 UNL     1      46.797  33.267  41.506  1.00  0.00     0.001 A 
HETATM   18  C12 UNL     1      47.102  34.456  40.901  1.00  0.00     0.000 A 
HETATM   19  C13 UNL     1      46.805  34.622  39.563  1.00  0.00     0.001 A 
HETATM   20  C14 UNL     1      46.210  33.601  38.858  1.00  0.00     0.007 A 
ENDBRANCH  14  15
ENDBRANCH  13  14
ENDBRANCH  12  13
BRANCH  12  21
HETATM   21  C15 UNL     1      42.342  29.484  39.307  1.00  0.00     0.196 C 
HETATM   22  O1  UNL     1      42.872  28.796  38.425  1.00  0.00    -0.646 OA
HETATM   23  O2  UNL     1      41.167  29.110  39.912  1.00  0.00    -0.646 OA
ENDBRANCH  12  21
ENDBRANCH  10  12
ENDBRANCH   1  10
BRANCH   1  24
HETATM   24  C16 UNL     1      41.976  32.778  42.752  1.00  0.00     0.266 C 
HETATM   25  O3  UNL     1      40.769  33.240  42.824  1.00  0.00    -0.266 OA
HETATM   26  N3  UNL     1      42.674  32.643  43.987  1.00  0.00    -0.332 N 
HETATM   27  C17 UNL     1      44.032  32.180  44.218  1.00  0.00     0.127 C 
HETATM   28  C20 UNL     1      42.037  32.996  45.248  1.00  0.00     0.188 C 
HETATM   29  C18 UNL     1      44.368  32.889  45.539  1.00  0.00     0.022 C 
HETATM   30  C19 UNL     1      43.052  32.741  46.305  1.00  0.00     0.038 C 
BRANCH  28  31
HETATM   31  C21 UNL     1      41.668  34.422  45.187  1.00  0.00     0.196 C 
HETATM   32  O4  UNL     1      40.531  34.791  45.554  1.00  0.00    -0.646 OA
HETATM   33  O5  UNL     1      42.560  35.366  44.727  1.00  0.00    -0.646 OA
ENDBRANCH  28  31
ENDBRANCH   1  24
TORSDOF 13
ENDMDL
