MODEL 1
REMARK VINA RESULT: -8.170270562      0.000      0.000
REMARK  13 active torsions:
REMARK  status: ('A' for Active; 'I' for Inactive)
REMARK    1  A    between atoms: N1_1  and  C1_5 
REMARK    2  A    between atoms: C1_5  and  C2_6 
REMARK    3  A    between atoms: C2_6  and  C3_7 
REMARK    4  A    between atoms: C3_7  and  C4_8 
REMARK    5  A    between atoms: C4_8  and  C5_9 
REMARK    6  A    between atoms: C5_9  and  N2_10 
REMARK    7  A    between atoms: C5_9  and  C16_24 
REMARK    8  A    between atoms: N2_10  and  C6_12 
REMARK    9  A    between atoms: C6_12  and  C7_13 
REMARK   10  A    between atoms: C6_12  and  C15_21 
REMARK   11  A    between atoms: C7_13  and  C8_14 
REMARK   12  A    between atoms: C8_14  and  C9_15 
REMARK       I    between atoms: C16_24  and  N3_26 
REMARK   13  A    between atoms: C20_30  and  C21_31 
ROOT
HETATM    1  C5  UNL     1      42.246  31.849  43.714  1.00  0.00     0.074 C 
ENDROOT
BRANCH   1   2
HETATM    2  C4  UNL     1      42.236  30.838  44.805  1.00  0.00     0.062 C 
BRANCH   2   3
HETATM    3  C3  UNL     1      43.549  30.215  45.132  1.00  0.00     0.008 C 
BRANCH   3   4
HETATM    4  C2  UNL     1      43.636  28.738  44.728  1.00  0.00     0.027 C 
BRANCH   4   5
HETATM    5  C1  UNL     1      44.068  27.960  45.958  1.00  0.00     0.229 C 
BRANCH   5   6
HETATM    6  N1  UNL     1      44.293  26.594  45.573  1.00  0.00    -0.079 N 
ATOM      7  H13 UNL     1      44.228  26.455  44.565  1.00  0.00     0.274 HD
ATOM      8  H12 UNL     1      45.265  26.308  45.689  1.00  0.00     0.274 HD
ATOM      9  H11 UNL     1      43.645  26.004  46.093  1.00  0.00     0.274 HD
ENDBRANCH   5   6
ENDBRANCH   4   5
ENDBRANCH   3   4
ENDBRANCH   2   3
ENDBRANCH   1   2
BRANCH   1  10
HETATM   10  N2  UNL     1      41.631  33.097  43.965  1.00  0.00    -0.374 N 
ATOM     11  H2  UNL     1      40.638  33.253  43.797  1.00  0.00     0.160 HD
BRANCH  10  12
HETATM   12  C6  UNL     1      42.497  34.142  44.474  1.00  0.00     0.183 C 
BRANCH  12  13
HETATM   13  C7  UNL     1      42.891  35.059  43.361  1.00  0.00     0.041 C 
BRANCH  13  14
HETATM   14  C8  UNL     1      42.021  35.115  42.169  1.00  0.00     0.041 C 
BRANCH  14  15
HETATM   15  C9  UNL     1      42.871  34.655  41.004  1.00  0.00    -0.058 A 
HETATM   16  C10 UNL     1      42.304  34.101  39.874  1.00  0.00     0.007 A 
HETATM   17  C11 UNL     1      43.052  33.675  38.803  1.00  0.00     0.001 A 
HETATM   18  C12 UNL     1      44.415  33.794  38.833  1.00  0.00     0.000 A 
HETATM   19  C13 UNL     1      45.014  34.344  39.948  1.00  0.00     0.001 A 
HETATM   20  C14 UNL     1      44.243  34.763  41.008  1.00  0.00     0.007 A 
ENDBRANCH  14  15
ENDBRANCH  13  14
ENDBRANCH  12  13
BRANCH  12  21
HETATM   21  C15 UNL     1      41.764  34.995  45.444  1.00  0.00     0.196 C 
HETATM   22  O1  UNL     1      40.611  34.693  45.776  1.00  0.00    -0.646 OA
HETATM   23  O2  UNL     1      42.399  36.104  45.949  1.00  0.00    -0.646 OA
ENDBRANCH  12  21
ENDBRANCH  10  12
ENDBRANCH   1  10
BRANCH   1  24
HETATM   24  C16 UNL     1      41.978  31.230  42.396  1.00  0.00     0.266 C 
HETATM   25  O3  UNL     1      40.755  30.946  42.085  1.00  0.00    -0.266 OA
HETATM   26  N3  UNL     1      42.968  30.908  41.423  1.00  0.00    -0.332 N 
HETATM   27  C17 UNL     1      44.408  31.084  41.498  1.00  0.00     0.127 C 
HETATM   28  C20 UNL     1      42.596  30.307  40.150  1.00  0.00     0.188 C 
HETATM   29  C18 UNL     1      44.894  29.989  40.536  1.00  0.00     0.022 C 
HETATM   30  C19 UNL     1      43.868  30.103  39.406  1.00  0.00     0.038 C 
BRANCH  28  31
HETATM   31  C21 UNL     1      41.922  29.026  40.431  1.00  0.00     0.196 C 
HETATM   32  O4  UNL     1      40.833  28.757  39.880  1.00  0.00    -0.646 OA
HETATM   33  O5  UNL     1      42.477  28.110  41.298  1.00  0.00    -0.646 OA
ENDBRANCH  28  31
ENDBRANCH   1  24
TORSDOF 13
ENDMDL
