MODEL 2
REMARK VINA RESULT: -8.084059984      2.623      4.166
REMARK  13 active torsions:
REMARK  status: ('A' for Active; 'I' for Inactive)
REMARK    1  A    between atoms: N1_1  and  C1_5 
REMARK    2  A    between atoms: C1_5  and  C2_6 
REMARK    3  A    between atoms: C2_6  and  C3_7 
REMARK    4  A    between atoms: C3_7  and  C4_8 
REMARK    5  A    between atoms: C4_8  and  C5_9 
REMARK    6  A    between atoms: C5_9  and  N2_10 
REMARK    7  A    between atoms: C5_9  and  C16_24 
REMARK    8  A    between atoms: N2_10  and  C6_12 
REMARK    9  A    between atoms: C6_12  and  C7_13 
REMARK   10  A    between atoms: C6_12  and  C15_21 
REMARK   11  A    between atoms: C7_13  and  C8_14 
REMARK   12  A    between atoms: C8_14  and  C9_15 
REMARK       I    between atoms: C16_24  and  N3_26 
REMARK   13  A    between atoms: C20_30  and  C21_31 
ROOT
HETATM    1  C5  UNL     1      43.476  32.764  44.691  1.00  0.00     0.074 C 
ENDROOT
BRANCH   1   2
HETATM    2  C4  UNL     1      44.834  32.626  44.100  1.00  0.00     0.062 C 
BRANCH   2   3
HETATM    3  C3  UNL     1      45.217  33.650  43.088  1.00  0.00     0.008 C 
BRANCH   3   4
HETATM    4  C2  UNL     1      46.081  33.086  41.953  1.00  0.00     0.027 C 
BRANCH   4   5
HETATM    5  C1  UNL     1      47.076  34.166  41.568  1.00  0.00     0.229 C 
BRANCH   5   6
HETATM    6  N1  UNL     1      46.342  35.331  41.157  1.00  0.00    -0.079 N 
ATOM      7  H13 UNL     1      45.974  35.250  40.210  1.00  0.00     0.274 HD
ATOM      8  H12 UNL     1      45.450  35.425  41.644  1.00  0.00     0.274 HD
ATOM      9  H11 UNL     1      46.942  36.147  41.276  1.00  0.00     0.274 HD
ENDBRANCH   5   6
ENDBRANCH   4   5
ENDBRANCH   3   4
ENDBRANCH   2   3
ENDBRANCH   1   2
BRANCH   1  10
HETATM   10  N2  UNL     1      43.237  33.863  45.547  1.00  0.00    -0.374 N 
ATOM     11  H2  UNL     1      43.715  33.964  46.442  1.00  0.00     0.160 HD
BRANCH  10  12
HETATM   12  C6  UNL     1      42.270  34.836  45.079  1.00  0.00     0.183 C 
BRANCH  12  13
HETATM   13  C7  UNL     1      41.174  34.142  44.336  1.00  0.00     0.041 C 
BRANCH  13  14
HETATM   14  C8  UNL     1      40.574  34.837  43.179  1.00  0.00     0.041 C 
BRANCH  14  15
HETATM   15  C9  UNL     1      41.477  34.546  41.999  1.00  0.00    -0.058 A 
HETATM   16  C10 UNL     1      42.049  35.565  41.263  1.00  0.00     0.007 A 
HETATM   17  C11 UNL     1      42.871  35.330  40.188  1.00  0.00     0.001 A 
HETATM   18  C12 UNL     1      43.149  34.045  39.811  1.00  0.00     0.000 A 
HETATM   19  C13 UNL     1      42.593  33.003  40.525  1.00  0.00     0.001 A 
HETATM   20  C14 UNL     1      41.773  33.264  41.598  1.00  0.00     0.007 A 
ENDBRANCH  14  15
ENDBRANCH  13  14
ENDBRANCH  12  13
BRANCH  12  21
HETATM   21  C15 UNL     1      41.606  35.500  46.228  1.00  0.00     0.196 C 
HETATM   22  O1  UNL     1      42.117  36.507  46.734  1.00  0.00    -0.646 OA
HETATM   23  O2  UNL     1      40.428  34.971  46.697  1.00  0.00    -0.646 OA
ENDBRANCH  12  21
ENDBRANCH  10  12
ENDBRANCH   1  10
BRANCH   1  24
HETATM   24  C16 UNL     1      42.935  31.456  45.122  1.00  0.00     0.266 C 
HETATM   25  O3  UNL     1      42.506  31.336  46.337  1.00  0.00    -0.266 OA
HETATM   26  N3  UNL     1      42.848  30.291  44.305  1.00  0.00    -0.332 N 
HETATM   27  C17 UNL     1      43.268  30.116  42.925  1.00  0.00     0.127 C 
HETATM   28  C20 UNL     1      42.289  29.053  44.826  1.00  0.00     0.188 C 
HETATM   29  C18 UNL     1      43.536  28.604  42.884  1.00  0.00     0.022 C 
HETATM   30  C19 UNL     1      42.369  28.067  43.715  1.00  0.00     0.038 C 
BRANCH  28  31
HETATM   31  C21 UNL     1      43.106  28.634  45.980  1.00  0.00     0.196 C 
HETATM   32  O4  UNL     1      42.554  28.284  47.045  1.00  0.00    -0.646 OA
HETATM   33  O5  UNL     1      44.482  28.623  45.905  1.00  0.00    -0.646 OA
ENDBRANCH  28  31
ENDBRANCH   1  24
TORSDOF 13
ENDMDL
