MODEL 12
REMARK VINA RESULT: -7.564161949      3.737      7.182
REMARK  13 active torsions:
REMARK  status: ('A' for Active; 'I' for Inactive)
REMARK    1  A    between atoms: N1_1  and  C1_5 
REMARK    2  A    between atoms: C1_5  and  C2_6 
REMARK    3  A    between atoms: C2_6  and  C3_7 
REMARK    4  A    between atoms: C3_7  and  C4_8 
REMARK    5  A    between atoms: C4_8  and  C5_9 
REMARK    6  A    between atoms: C5_9  and  N2_10 
REMARK    7  A    between atoms: C5_9  and  C16_24 
REMARK    8  A    between atoms: N2_10  and  C6_12 
REMARK    9  A    between atoms: C6_12  and  C7_13 
REMARK   10  A    between atoms: C6_12  and  C15_21 
REMARK   11  A    between atoms: C7_13  and  C8_14 
REMARK   12  A    between atoms: C8_14  and  C9_15 
REMARK       I    between atoms: C16_24  and  N3_26 
REMARK   13  A    between atoms: C20_30  and  C21_31 
ROOT
HETATM    1  C5  UNL     1      42.675  34.017  45.749  1.00  0.00     0.074 C 
ENDROOT
BRANCH   1   2
HETATM    2  C4  UNL     1      43.592  32.872  45.500  1.00  0.00     0.062 C 
BRANCH   2   3
HETATM    3  C3  UNL     1      44.856  33.190  44.778  1.00  0.00     0.008 C 
BRANCH   3   4
HETATM    4  C2  UNL     1      44.842  32.746  43.310  1.00  0.00     0.027 C 
BRANCH   4   5
HETATM    5  C1  UNL     1      45.978  33.471  42.611  1.00  0.00     0.229 C 
BRANCH   5   6
HETATM    6  N1  UNL     1      45.883  33.208  41.202  1.00  0.00    -0.079 N 
ATOM      7  H13 UNL     1      45.543  34.012  40.674  1.00  0.00     0.274 HD
ATOM      8  H12 UNL     1      46.796  33.125  40.755  1.00  0.00     0.274 HD
ATOM      9  H11 UNL     1      45.304  32.379  41.069  1.00  0.00     0.274 HD
ENDBRANCH   5   6
ENDBRANCH   4   5
ENDBRANCH   3   4
ENDBRANCH   2   3
ENDBRANCH   1   2
BRANCH   1  10
HETATM   10  N2  UNL     1      42.293  34.279  47.085  1.00  0.00    -0.374 N 
ATOM     11  H2  UNL     1      42.653  33.732  47.866  1.00  0.00     0.160 HD
BRANCH  10  12
HETATM   12  C6  UNL     1      41.359  35.370  47.276  1.00  0.00     0.183 C 
BRANCH  12  13
HETATM   13  C7  UNL     1      40.462  35.071  48.434  1.00  0.00     0.041 C 
BRANCH  13  14
HETATM   14  C8  UNL     1      39.075  35.578  48.384  1.00  0.00     0.041 C 
BRANCH  14  15
HETATM   15  C9  UNL     1      38.806  36.200  49.737  1.00  0.00    -0.058 A 
HETATM   16  C10 UNL     1      38.406  35.434  50.815  1.00  0.00     0.007 A 
HETATM   17  C11 UNL     1      38.154  35.972  52.053  1.00  0.00     0.001 A 
HETATM   18  C12 UNL     1      38.298  37.318  52.253  1.00  0.00     0.000 A 
HETATM   19  C13 UNL     1      38.696  38.113  51.197  1.00  0.00     0.001 A 
HETATM   20  C14 UNL     1      38.942  37.550  49.966  1.00  0.00     0.007 A 
ENDBRANCH  14  15
ENDBRANCH  13  14
ENDBRANCH  12  13
BRANCH  12  21
HETATM   21  C15 UNL     1      42.083  36.611  47.653  1.00  0.00     0.196 C 
HETATM   22  O1  UNL     1      41.525  37.708  47.531  1.00  0.00    -0.646 OA
HETATM   23  O2  UNL     1      43.366  36.499  48.134  1.00  0.00    -0.646 OA
ENDBRANCH  12  21
ENDBRANCH  10  12
ENDBRANCH   1  10
BRANCH   1  24
HETATM   24  C16 UNL     1      41.608  34.092  44.726  1.00  0.00     0.266 C 
HETATM   25  O3  UNL     1      40.473  33.521  44.976  1.00  0.00    -0.266 OA
HETATM   26  N3  UNL     1      41.723  34.743  43.464  1.00  0.00    -0.332 N 
HETATM   27  C17 UNL     1      42.867  35.440  42.901  1.00  0.00     0.127 C 
HETATM   28  C20 UNL     1      40.605  34.766  42.531  1.00  0.00     0.188 C 
HETATM   29  C18 UNL     1      42.597  35.289  41.396  1.00  0.00     0.022 C 
HETATM   30  C19 UNL     1      41.084  35.511  41.336  1.00  0.00     0.038 C 
BRANCH  28  31
HETATM   31  C21 UNL     1      40.263  33.371  42.197  1.00  0.00     0.196 C 
HETATM   32  O4  UNL     1      39.066  33.032  42.075  1.00  0.00    -0.646 OA
HETATM   33  O5  UNL     1      41.247  32.425  42.016  1.00  0.00    -0.646 OA
ENDBRANCH  28  31
ENDBRANCH   1  24
TORSDOF 13
ENDMDL
