MODEL 3
REMARK VINA RESULT: -7.836958580      3.651      6.965
REMARK  13 active torsions:
REMARK  status: ('A' for Active; 'I' for Inactive)
REMARK    1  A    between atoms: N1_1  and  C1_5 
REMARK    2  A    between atoms: C1_5  and  C2_6 
REMARK    3  A    between atoms: C2_6  and  C3_7 
REMARK    4  A    between atoms: C3_7  and  C4_8 
REMARK    5  A    between atoms: C4_8  and  C5_9 
REMARK    6  A    between atoms: C5_9  and  N2_10 
REMARK    7  A    between atoms: C5_9  and  C16_24 
REMARK    8  A    between atoms: N2_10  and  C6_12 
REMARK    9  A    between atoms: C6_12  and  C7_13 
REMARK   10  A    between atoms: C6_12  and  C15_21 
REMARK   11  A    between atoms: C7_13  and  C8_14 
REMARK   12  A    between atoms: C8_14  and  C9_15 
REMARK       I    between atoms: C16_24  and  N3_26 
REMARK   13  A    between atoms: C20_30  and  C21_31 
ROOT
HETATM    1  C5  UNL     1      42.698  34.109  45.753  1.00  0.00     0.074 C 
ENDROOT
BRANCH   1   2
HETATM    2  C4  UNL     1      43.728  33.072  45.479  1.00  0.00     0.062 C 
BRANCH   2   3
HETATM    3  C3  UNL     1      43.380  31.681  45.881  1.00  0.00     0.008 C 
BRANCH   3   4
HETATM    4  C2  UNL     1      43.384  30.693  44.707  1.00  0.00     0.027 C 
BRANCH   4   5
HETATM    5  C1  UNL     1      42.121  29.858  44.820  1.00  0.00     0.229 C 
BRANCH   5   6
HETATM    6  N1  UNL     1      41.118  30.439  43.970  1.00  0.00    -0.079 N 
ATOM      7  H13 UNL     1      40.696  31.274  44.374  1.00  0.00     0.274 HD
ATOM      8  H12 UNL     1      41.514  30.874  43.137  1.00  0.00     0.274 HD
ATOM      9  H11 UNL     1      40.431  29.719  43.747  1.00  0.00     0.274 HD
ENDBRANCH   5   6
ENDBRANCH   4   5
ENDBRANCH   3   4
ENDBRANCH   2   3
ENDBRANCH   1   2
BRANCH   1  10
HETATM   10  N2  UNL     1      42.231  34.243  47.080  1.00  0.00    -0.374 N 
ATOM     11  H2  UNL     1      42.496  33.587  47.814  1.00  0.00     0.160 HD
BRANCH  10  12
HETATM   12  C6  UNL     1      41.354  35.368  47.336  1.00  0.00     0.183 C 
BRANCH  12  13
HETATM   13  C7  UNL     1      40.497  35.081  48.526  1.00  0.00     0.041 C 
BRANCH  13  14
HETATM   14  C8  UNL     1      39.083  35.502  48.479  1.00  0.00     0.041 C 
BRANCH  14  15
HETATM   15  C9  UNL     1      38.795  36.163  49.810  1.00  0.00    -0.058 A 
HETATM   16  C10 UNL     1      38.327  35.437  50.888  1.00  0.00     0.007 A 
HETATM   17  C11 UNL     1      38.057  36.011  52.106  1.00  0.00     0.001 A 
HETATM   18  C12 UNL     1      38.251  37.354  52.284  1.00  0.00     0.000 A 
HETATM   19  C13 UNL     1      38.717  38.109  51.228  1.00  0.00     0.001 A 
HETATM   20  C14 UNL     1      38.980  37.510  50.017  1.00  0.00     0.007 A 
ENDBRANCH  14  15
ENDBRANCH  13  14
ENDBRANCH  12  13
BRANCH  12  21
HETATM   21  C15 UNL     1      42.146  36.569  47.703  1.00  0.00     0.196 C 
HETATM   22  O1  UNL     1      43.312  36.438  48.098  1.00  0.00    -0.646 OA
HETATM   23  O2  UNL     1      41.553  37.804  47.590  1.00  0.00    -0.646 OA
ENDBRANCH  12  21
ENDBRANCH  10  12
ENDBRANCH   1  10
BRANCH   1  24
HETATM   24  C16 UNL     1      41.677  34.158  44.682  1.00  0.00     0.266 C 
HETATM   25  O3  UNL     1      40.533  33.593  44.895  1.00  0.00    -0.266 OA
HETATM   26  N3  UNL     1      41.847  34.780  43.411  1.00  0.00    -0.332 N 
HETATM   27  C17 UNL     1      43.015  35.465  42.883  1.00  0.00     0.127 C 
HETATM   28  C20 UNL     1      40.772  34.779  42.429  1.00  0.00     0.188 C 
HETATM   29  C18 UNL     1      42.812  35.278  41.371  1.00  0.00     0.022 C 
HETATM   30  C19 UNL     1      41.304  35.496  41.239  1.00  0.00     0.038 C 
BRANCH  28  31
HETATM   31  C21 UNL     1      40.446  33.376  42.114  1.00  0.00     0.196 C 
HETATM   32  O4  UNL     1      39.252  33.011  42.046  1.00  0.00    -0.646 OA
HETATM   33  O5  UNL     1      41.441  32.451  41.890  1.00  0.00    -0.646 OA
ENDBRANCH  28  31
ENDBRANCH   1  24
TORSDOF 13
ENDMDL
