MODEL 10
REMARK VINA RESULT: -6.528379995      1.416      2.068
REMARK  6 active torsions:
REMARK  status: ('A' for Active; 'I' for Inactive)
REMARK    1  A    between atoms: P1_2  and  O4_5 
REMARK    2  A    between atoms: O4_5  and  C1_6 
REMARK    3  A    between atoms: C1_6  and  C2_7 
REMARK    4  A    between atoms: C3_9  and  O6_10 
REMARK    5  A    between atoms: C4_12  and  O7_13 
REMARK    6  A    between atoms: C5_15  and  O8_16 
ROOT
HETATM    1  C2  UNL     1      -0.863  -6.654   2.254  1.00  0.00     0.180 C 
HETATM    2  O5  UNL     1       0.067  -6.418   1.254  1.00  0.00    -0.349 OA
HETATM    3  C3  UNL     1       0.084  -5.019   1.136  1.00  0.00     0.288 C 
HETATM    4  C4  UNL     1       0.323  -4.663   2.600  1.00  0.00     0.204 C 
HETATM    5  C5  UNL     1      -0.818  -5.477   3.204  1.00  0.00     0.182 C 
ENDROOT
BRANCH   1   6
HETATM    6  C1  UNL     1      -2.207  -6.809   1.585  1.00  0.00     0.217 C 
BRANCH   6   7
HETATM    7  O4  UNL     1      -2.809  -8.018   1.969  1.00  0.00    -0.280 OA
BRANCH   7   8
HETATM    8  P1  UNL     1      -2.642  -9.151   0.724  1.00  0.00     0.422 P 
HETATM    9  O1  UNL     1      -1.739 -10.291   1.113  1.00  0.00    -0.617 OA
HETATM   10  O2  UNL     1      -4.148  -9.772   0.247  1.00  0.00    -0.617 OA
HETATM   11  O3  UNL     1      -1.970  -8.419  -0.658  1.00  0.00    -0.617 OA
ENDBRANCH   7   8
ENDBRANCH   6   7
ENDBRANCH   1   6
BRANCH   5  12
HETATM   12  O8  UNL     1      -0.460  -5.831   4.490  1.00  0.00    -0.390 OA
ATOM     13  H8  UNL     1       0.475  -5.962   4.595  1.00  0.00     0.210 HD
ENDBRANCH   5  12
BRANCH   3  14
HETATM   14  O6  UNL     1      -1.185  -4.518   0.832  1.00  0.00    -0.369 OA
ATOM     15  H6  UNL     1      -1.784  -4.623   1.563  1.00  0.00     0.212 HD
ENDBRANCH   3  14
BRANCH   4  16
HETATM   16  O7  UNL     1       0.188  -3.310   2.842  1.00  0.00    -0.388 OA
ATOM     17  H7  UNL     1      -0.498  -3.121   3.473  1.00  0.00     0.210 HD
ENDBRANCH   4  16
TORSDOF 6
ENDMDL
