MODEL 17
REMARK VINA RESULT: -6.101003855      2.176      4.715
REMARK  6 active torsions:
REMARK  status: ('A' for Active; 'I' for Inactive)
REMARK    1  A    between atoms: P1_2  and  O4_5 
REMARK    2  A    between atoms: O4_5  and  C1_6 
REMARK    3  A    between atoms: C1_6  and  C2_7 
REMARK    4  A    between atoms: C3_9  and  O6_10 
REMARK    5  A    between atoms: C4_12  and  O7_13 
REMARK    6  A    between atoms: C5_15  and  O8_16 
ROOT
HETATM    1  C2  UNL     1      -2.274  -6.402   1.608  1.00  0.00     0.180 C 
HETATM    2  O5  UNL     1      -3.143  -6.472   0.531  1.00  0.00    -0.349 OA
HETATM    3  C3  UNL     1      -2.714  -7.608  -0.173  1.00  0.00     0.288 C 
HETATM    4  C4  UNL     1      -2.724  -8.613   0.976  1.00  0.00     0.204 C 
HETATM    5  C5  UNL     1      -1.870  -7.817   1.959  1.00  0.00     0.182 C 
ENDROOT
BRANCH   1   6
HETATM    6  C1  UNL     1      -1.101  -5.554   1.180  1.00  0.00     0.217 C 
BRANCH   6   7
HETATM    7  O4  UNL     1       0.091  -6.051   1.730  1.00  0.00    -0.280 OA
BRANCH   7   8
HETATM    8  P1  UNL     1       0.456  -5.199   3.146  1.00  0.00     0.422 P 
HETATM    9  O1  UNL     1       1.930  -5.214   3.452  1.00  0.00    -0.617 OA
HETATM   10  O2  UNL     1      -0.076  -3.589   3.055  1.00  0.00    -0.617 OA
HETATM   11  O3  UNL     1      -0.347  -5.890   4.478  1.00  0.00    -0.617 OA
ENDBRANCH   7   8
ENDBRANCH   6   7
ENDBRANCH   1   6
BRANCH   5  12
HETATM   12  O8  UNL     1      -2.234  -8.184   3.240  1.00  0.00    -0.390 OA
ATOM     13  H8  UNL     1      -2.699  -9.012   3.273  1.00  0.00     0.210 HD
ENDBRANCH   5  12
BRANCH   3  14
HETATM   14  O6  UNL     1      -1.375  -7.495  -0.557  1.00  0.00    -0.369 OA
ATOM     15  H6  UNL     1      -1.176  -8.061  -1.294  1.00  0.00     0.212 HD
ENDBRANCH   3  14
BRANCH   4  16
HETATM   16  O7  UNL     1      -2.142  -9.816   0.628  1.00  0.00    -0.388 OA
ATOM     17  H7  UNL     1      -2.150 -10.443   1.343  1.00  0.00     0.210 HD
ENDBRANCH   4  16
TORSDOF 6
ENDMDL
