MODEL 8
REMARK VINA RESULT: -6.569555328      1.257      2.092
REMARK  6 active torsions:
REMARK  status: ('A' for Active; 'I' for Inactive)
REMARK    1  A    between atoms: P1_2  and  O4_5 
REMARK    2  A    between atoms: O4_5  and  C1_6 
REMARK    3  A    between atoms: C1_6  and  C2_7 
REMARK    4  A    between atoms: C3_9  and  O6_10 
REMARK    5  A    between atoms: C4_12  and  O7_13 
REMARK    6  A    between atoms: C5_15  and  O8_16 
ROOT
HETATM    1  C2  UNL     1      -0.840  -6.551   2.358  1.00  0.00     0.180 C 
HETATM    2  O5  UNL     1       0.054  -6.340   1.320  1.00  0.00    -0.349 OA
HETATM    3  C3  UNL     1       0.076  -4.943   1.177  1.00  0.00     0.288 C 
HETATM    4  C4  UNL     1       0.372  -4.564   2.625  1.00  0.00     0.204 C 
HETATM    5  C5  UNL     1      -0.751  -5.359   3.284  1.00  0.00     0.182 C 
ENDROOT
BRANCH   1   6
HETATM    6  C1  UNL     1      -2.209  -6.707   1.742  1.00  0.00     0.217 C 
BRANCH   6   7
HETATM    7  O4  UNL     1      -2.130  -7.444   0.549  1.00  0.00    -0.280 OA
BRANCH   7   8
HETATM    8  P1  UNL     1      -2.510  -9.063   0.862  1.00  0.00     0.422 P 
HETATM    9  O1  UNL     1      -2.951  -9.791  -0.380  1.00  0.00    -0.617 OA
HETATM   10  O2  UNL     1      -1.194  -9.886   1.550  1.00  0.00    -0.617 OA
HETATM   11  O3  UNL     1      -3.779  -9.167   1.990  1.00  0.00    -0.617 OA
ENDBRANCH   7   8
ENDBRANCH   6   7
ENDBRANCH   1   6
BRANCH   5  12
HETATM   12  O8  UNL     1      -0.349  -5.693   4.563  1.00  0.00    -0.390 OA
ATOM     13  H8  UNL     1       0.489  -5.314   4.802  1.00  0.00     0.210 HD
ENDBRANCH   5  12
BRANCH   3  14
HETATM   14  O6  UNL     1      -1.199  -4.437   0.912  1.00  0.00    -0.369 OA
ATOM     15  H6  UNL     1      -1.324  -4.280  -0.017  1.00  0.00     0.212 HD
ENDBRANCH   3  14
BRANCH   4  16
HETATM   16  O7  UNL     1       0.256  -3.206   2.849  1.00  0.00    -0.388 OA
ATOM     17  H7  UNL     1       0.701  -2.929   3.642  1.00  0.00     0.210 HD
ENDBRANCH   4  16
TORSDOF 6
ENDMDL
