MODEL 9
REMARK VINA RESULT: -6.540486828      1.312      2.482
REMARK  6 active torsions:
REMARK  status: ('A' for Active; 'I' for Inactive)
REMARK    1  A    between atoms: P1_2  and  O4_5 
REMARK    2  A    between atoms: O4_5  and  C1_6 
REMARK    3  A    between atoms: C1_6  and  C2_7 
REMARK    4  A    between atoms: C3_9  and  O6_10 
REMARK    5  A    between atoms: C4_12  and  O7_13 
REMARK    6  A    between atoms: C5_15  and  O8_16 
ROOT
HETATM    1  C2  UNL     1      -0.659  -6.618   2.415  1.00  0.00     0.180 C 
HETATM    2  O5  UNL     1       0.465  -7.157   1.810  1.00  0.00    -0.349 OA
HETATM    3  C3  UNL     1       1.357  -6.076   1.737  1.00  0.00     0.288 C 
HETATM    4  C4  UNL     1       1.322  -5.644   3.201  1.00  0.00     0.204 C 
HETATM    5  C5  UNL     1      -0.192  -5.522   3.347  1.00  0.00     0.182 C 
ENDROOT
BRANCH   1   6
HETATM    6  C1  UNL     1      -1.554  -6.101   1.315  1.00  0.00     0.217 C 
BRANCH   6   7
HETATM    7  O4  UNL     1      -1.534  -6.976   0.216  1.00  0.00    -0.280 OA
BRANCH   7   8
HETATM    8  P1  UNL     1      -2.914  -7.955   0.251  1.00  0.00     0.422 P 
HETATM    9  O1  UNL     1      -3.421  -8.169   1.653  1.00  0.00    -0.617 OA
HETATM   10  O2  UNL     1      -4.161  -7.301  -0.697  1.00  0.00    -0.617 OA
HETATM   11  O3  UNL     1      -2.571  -9.487  -0.405  1.00  0.00    -0.617 OA
ENDBRANCH   7   8
ENDBRANCH   6   7
ENDBRANCH   1   6
BRANCH   5  12
HETATM   12  O8  UNL     1      -0.516  -5.758   4.669  1.00  0.00    -0.390 OA
ATOM     13  H8  UNL     1      -0.248  -6.617   4.972  1.00  0.00     0.210 HD
ENDBRANCH   5  12
BRANCH   3  14
HETATM   14  O6  UNL     1       0.809  -5.008   1.020  1.00  0.00    -0.369 OA
ATOM     15  H6  UNL     1       1.068  -5.035   0.106  1.00  0.00     0.212 HD
ENDBRANCH   3  14
BRANCH   4  16
HETATM   16  O7  UNL     1       1.969  -4.442   3.411  1.00  0.00    -0.388 OA
ATOM     17  H7  UNL     1       2.475  -4.165   2.655  1.00  0.00     0.210 HD
ENDBRANCH   4  16
TORSDOF 6
ENDMDL
