MODEL 18
REMARK VINA RESULT: -6.100717068      2.174      4.765
REMARK  6 active torsions:
REMARK  status: ('A' for Active; 'I' for Inactive)
REMARK    1  A    between atoms: P1_2  and  O4_5 
REMARK    2  A    between atoms: O4_5  and  C1_6 
REMARK    3  A    between atoms: C1_6  and  C2_7 
REMARK    4  A    between atoms: C3_9  and  O6_10 
REMARK    5  A    between atoms: C4_12  and  O7_13 
REMARK    6  A    between atoms: C5_15  and  O8_16 
ROOT
HETATM    1  C2  UNL     1      -2.441  -6.619   1.643  1.00  0.00     0.180 C 
HETATM    2  O5  UNL     1      -3.349  -6.520   0.601  1.00  0.00    -0.349 OA
HETATM    3  C3  UNL     1      -2.915  -7.491  -0.315  1.00  0.00     0.288 C 
HETATM    4  C4  UNL     1      -2.852  -8.690   0.627  1.00  0.00     0.204 C 
HETATM    5  C5  UNL     1      -1.983  -8.059   1.712  1.00  0.00     0.182 C 
ENDROOT
BRANCH   1   6
HETATM    6  C1  UNL     1      -1.311  -5.665   1.342  1.00  0.00     0.217 C 
BRANCH   6   7
HETATM    7  O4  UNL     1      -0.099  -6.165   1.844  1.00  0.00    -0.280 OA
BRANCH   7   8
HETATM    8  P1  UNL     1       0.297  -5.350   3.273  1.00  0.00     0.422 P 
HETATM    9  O1  UNL     1      -0.344  -5.979   4.481  1.00  0.00    -0.617 OA
HETATM   10  O2  UNL     1       1.978  -5.289   3.505  1.00  0.00    -0.617 OA
HETATM   11  O3  UNL     1      -0.232  -3.734   3.201  1.00  0.00    -0.617 OA
ENDBRANCH   7   8
ENDBRANCH   6   7
ENDBRANCH   1   6
BRANCH   5  12
HETATM   12  O8  UNL     1      -2.286  -8.669   2.914  1.00  0.00    -0.390 OA
ATOM     13  H8  UNL     1      -1.679  -9.362   3.145  1.00  0.00     0.210 HD
ENDBRANCH   5  12
BRANCH   3  14
HETATM   14  O6  UNL     1      -1.596  -7.261  -0.716  1.00  0.00    -0.369 OA
ATOM     15  H6  UNL     1      -1.542  -6.541  -1.334  1.00  0.00     0.212 HD
ENDBRANCH   3  14
BRANCH   4  16
HETATM   16  O7  UNL     1      -2.248  -9.788   0.043  1.00  0.00    -0.388 OA
ATOM     17  H7  UNL     1      -2.036 -10.464   0.677  1.00  0.00     0.210 HD
ENDBRANCH   4  16
TORSDOF 6
ENDMDL
