MODEL 3
REMARK VINA RESULT: -5.910989436      1.068      1.068
REMARK  6 active torsions:
REMARK  status: ('A' for Active; 'I' for Inactive)
REMARK       I    between atoms: C2_2  and  N1_4 
REMARK    1  A    between atoms: N1_4  and  C3_6 
REMARK    2  A    between atoms: C4_7  and  O2_8 
REMARK    3  A    between atoms: C5_11  and  C6_12 
REMARK    4  A    between atoms: C6_12  and  O4_13 
REMARK    5  A    between atoms: C7_15  and  O5_16 
REMARK    6  A    between atoms: C8_18  and  O6_19 
ROOT
HETATM    1  C3  UNL     1      38.225  45.762  11.244  1.00  0.00     0.170 C 
HETATM    2  C4  UNL     1      37.592  46.735  12.225  1.00  0.00     0.282 C 
HETATM    3  O3  UNL     1      36.237  46.520  12.384  1.00  0.00    -0.349 OA
HETATM    4  C5  UNL     1      35.892  45.274  12.817  1.00  0.00     0.179 C 
HETATM    5  C7  UNL     1      37.003  44.255  12.700  1.00  0.00     0.180 C 
HETATM    6  C8  UNL     1      37.555  44.416  11.276  1.00  0.00     0.177 C 
ENDROOT
BRANCH   1   7
HETATM    7  N1  UNL     1      38.234  46.342   9.914  1.00  0.00    -0.349 N 
HETATM    8  C2  UNL     1      38.955  45.820   8.825  1.00  0.00     0.214 C 
HETATM    9  C1  UNL     1      38.967  46.410   7.464  1.00  0.00     0.117 C 
HETATM   10  O1  UNL     1      39.642  44.781   9.008  1.00  0.00    -0.274 OA
ATOM     11  H1  UNL     1      37.681  47.184   9.758  1.00  0.00     0.163 HD
ENDBRANCH   1   7
BRANCH   2  12
HETATM   12  O2  UNL     1      38.286  46.761  13.436  1.00  0.00    -0.369 OA
ATOM     13  H2  UNL     1      39.070  47.295  13.376  1.00  0.00     0.212 HD
ENDBRANCH   2  12
BRANCH   6  14
HETATM   14  O6  UNL     1      38.381  43.371  10.938  1.00  0.00    -0.391 OA
ATOM     15  H6  UNL     1      37.960  42.699  10.415  1.00  0.00     0.210 HD
ENDBRANCH   6  14
BRANCH   5  16
HETATM   16  O5  UNL     1      36.501  42.990  12.909  1.00  0.00    -0.390 OA
ATOM     17  H5  UNL     1      36.123  42.657  12.102  1.00  0.00     0.210 HD
ENDBRANCH   5  16
BRANCH   4  18
HETATM   18  C6  UNL     1      35.290  45.288  14.209  1.00  0.00     0.198 C 
BRANCH  18  19
HETATM   19  O4  UNL     1      36.252  45.133  15.176  1.00  0.00    -0.398 OA
ATOM     20  H4  UNL     1      35.868  44.920  16.018  1.00  0.00     0.209 HD
ENDBRANCH  18  19
ENDBRANCH   4  18
TORSDOF 6
ENDMDL
