MODEL 8
REMARK VINA RESULT: -5.545054689      2.318      4.730
REMARK  6 active torsions:
REMARK  status: ('A' for Active; 'I' for Inactive)
REMARK       I    between atoms: C2_2  and  N1_4 
REMARK    1  A    between atoms: N1_4  and  C3_6 
REMARK    2  A    between atoms: C4_7  and  O2_8 
REMARK    3  A    between atoms: C5_11  and  C6_12 
REMARK    4  A    between atoms: C6_12  and  O4_13 
REMARK    5  A    between atoms: C7_15  and  O5_16 
REMARK    6  A    between atoms: C8_18  and  O6_19 
ROOT
HETATM    1  C3  UNL     1      36.156  46.726  13.540  1.00  0.00     0.170 C 
HETATM    2  C4  UNL     1      37.068  47.044  12.366  1.00  0.00     0.282 C 
HETATM    3  O3  UNL     1      38.173  46.216  12.314  1.00  0.00    -0.349 OA
HETATM    4  C5  UNL     1      37.898  44.883  12.227  1.00  0.00     0.179 C 
HETATM    5  C7  UNL     1      36.467  44.529  12.562  1.00  0.00     0.180 C 
HETATM    6  C8  UNL     1      36.163  45.261  13.876  1.00  0.00     0.177 C 
ENDROOT
BRANCH   1   7
HETATM    7  N1  UNL     1      36.514  47.555  14.676  1.00  0.00    -0.349 N 
HETATM    8  C2  UNL     1      35.603  48.004  15.650  1.00  0.00     0.214 C 
HETATM    9  C1  UNL     1      35.965  48.851  16.812  1.00  0.00     0.117 C 
HETATM   10  O1  UNL     1      34.395  47.670  15.534  1.00  0.00    -0.274 OA
ATOM     11  H1  UNL     1      37.491  47.830  14.776  1.00  0.00     0.163 HD
ENDBRANCH   1   7
BRANCH   2  12
HETATM   12  O2  UNL     1      36.357  47.079  11.164  1.00  0.00    -0.369 OA
ATOM     13  H2  UNL     1      36.720  46.473  10.529  1.00  0.00     0.212 HD
ENDBRANCH   2  12
BRANCH   6  14
HETATM   14  O6  UNL     1      34.993  44.811  14.442  1.00  0.00    -0.391 OA
ATOM     15  H6  UNL     1      34.223  45.299  14.175  1.00  0.00     0.210 HD
ENDBRANCH   6  14
BRANCH   5  16
HETATM   16  O5  UNL     1      36.344  43.165  12.701  1.00  0.00    -0.390 OA
ATOM     17  H5  UNL     1      36.964  42.850  13.349  1.00  0.00     0.210 HD
ENDBRANCH   5  16
BRANCH   4  18
HETATM   18  C6  UNL     1      38.327  44.287  10.900  1.00  0.00     0.198 C 
BRANCH  18  19
HETATM   19  O4  UNL     1      38.510  42.930  10.994  1.00  0.00    -0.398 OA
ATOM     20  H4  UNL     1      37.790  42.453  10.597  1.00  0.00     0.209 HD
ENDBRANCH  18  19
ENDBRANCH   4  18
TORSDOF 6
ENDMDL
