MODEL 1
REMARK VINA RESULT: -5.945612609      0.000      0.000
REMARK  6 active torsions:
REMARK  status: ('A' for Active; 'I' for Inactive)
REMARK       I    between atoms: C2_2  and  N1_4 
REMARK    1  A    between atoms: N1_4  and  C3_6 
REMARK    2  A    between atoms: C4_7  and  O2_8 
REMARK    3  A    between atoms: C5_11  and  C6_12 
REMARK    4  A    between atoms: C6_12  and  O4_13 
REMARK    5  A    between atoms: C7_15  and  O5_16 
REMARK    6  A    between atoms: C8_18  and  O6_19 
ROOT
HETATM    1  C3  UNL     1      38.334  45.643  11.234  1.00  0.00     0.170 C 
HETATM    2  C4  UNL     1      37.659  46.663  12.134  1.00  0.00     0.282 C 
HETATM    3  O3  UNL     1      36.296  46.462  12.234  1.00  0.00    -0.349 OA
HETATM    4  C5  UNL     1      35.922  45.239  12.707  1.00  0.00     0.179 C 
HETATM    5  C7  UNL     1      37.030  44.211  12.693  1.00  0.00     0.180 C 
HETATM    6  C8  UNL     1      37.654  44.303  11.294  1.00  0.00     0.177 C 
ENDROOT
BRANCH   1   7
HETATM    7  N1  UNL     1      38.415  46.160   9.880  1.00  0.00    -0.349 N 
HETATM    8  C2  UNL     1      39.165  47.289   9.505  1.00  0.00     0.214 C 
HETATM    9  C1  UNL     1      39.249  47.820   8.122  1.00  0.00     0.117 C 
HETATM   10  O1  UNL     1      39.812  47.898  10.396  1.00  0.00    -0.274 OA
ATOM     11  H1  UNL     1      37.893  45.672   9.153  1.00  0.00     0.163 HD
ENDBRANCH   1   7
BRANCH   2  12
HETATM   12  O2  UNL     1      38.291  46.743  13.377  1.00  0.00    -0.369 OA
ATOM     13  H2  UNL     1      38.870  47.495  13.424  1.00  0.00     0.212 HD
ENDBRANCH   2  12
BRANCH   6  14
HETATM   14  O6  UNL     1      38.490  43.240  11.047  1.00  0.00    -0.391 OA
ATOM     15  H6  UNL     1      38.055  42.396  11.059  1.00  0.00     0.210 HD
ENDBRANCH   6  14
BRANCH   5  16
HETATM   16  O5  UNL     1      36.510  42.959  12.935  1.00  0.00    -0.390 OA
ATOM     17  H5  UNL     1      37.168  42.297  12.758  1.00  0.00     0.210 HD
ENDBRANCH   5  16
BRANCH   4  18
HETATM   18  C6  UNL     1      35.249  45.321  14.063  1.00  0.00     0.198 C 
BRANCH  18  19
HETATM   19  O4  UNL     1      36.157  45.185  15.084  1.00  0.00    -0.398 OA
ATOM     20  H4  UNL     1      35.725  45.086  15.924  1.00  0.00     0.209 HD
ENDBRANCH  18  19
ENDBRANCH   4  18
TORSDOF 6
ENDMDL
