MODEL 11
REMARK VINA RESULT: -5.237856131      2.341      4.756
REMARK  6 active torsions:
REMARK  status: ('A' for Active; 'I' for Inactive)
REMARK       I    between atoms: C2_2  and  N1_4 
REMARK    1  A    between atoms: N1_4  and  C3_6 
REMARK    2  A    between atoms: C4_7  and  O2_8 
REMARK    3  A    between atoms: C5_11  and  C6_12 
REMARK    4  A    between atoms: C6_12  and  O4_13 
REMARK    5  A    between atoms: C7_15  and  O5_16 
REMARK    6  A    between atoms: C8_18  and  O6_19 
ROOT
HETATM    1  C3  UNL     1      35.646  46.012  13.187  1.00  0.00     0.170 C 
HETATM    2  C4  UNL     1      36.148  46.765  11.966  1.00  0.00     0.282 C 
HETATM    3  O3  UNL     1      37.520  46.692  11.825  1.00  0.00    -0.349 OA
HETATM    4  C5  UNL     1      38.027  45.430  11.723  1.00  0.00     0.179 C 
HETATM    5  C7  UNL     1      37.060  44.345  12.139  1.00  0.00     0.180 C 
HETATM    6  C8  UNL     1      36.488  44.804  13.487  1.00  0.00     0.177 C 
ENDROOT
BRANCH   1   7
HETATM    7  N1  UNL     1      35.556  46.916  14.319  1.00  0.00    -0.349 N 
HETATM    8  C2  UNL     1      34.381  47.582  14.712  1.00  0.00     0.214 C 
HETATM    9  C1  UNL     1      34.286  48.506  15.868  1.00  0.00     0.117 C 
HETATM   10  O1  UNL     1      33.333  47.386  14.044  1.00  0.00    -0.274 OA
ATOM     11  H1  UNL     1      36.401  47.080  14.865  1.00  0.00     0.163 HD
ENDBRANCH   1   7
BRANCH   2  12
HETATM   12  O2  UNL     1      35.460  46.381  10.813  1.00  0.00    -0.369 OA
ATOM     13  H2  UNL     1      35.958  46.583  10.029  1.00  0.00     0.212 HD
ENDBRANCH   2  12
BRANCH   6  14
HETATM   14  O6  UNL     1      35.806  43.788  14.114  1.00  0.00    -0.391 OA
ATOM     15  H6  UNL     1      36.308  42.987  14.208  1.00  0.00     0.210 HD
ENDBRANCH   6  14
BRANCH   5  16
HETATM   16  O5  UNL     1      37.726  43.145  12.252  1.00  0.00    -0.390 OA
ATOM     17  H5  UNL     1      37.177  42.440  11.927  1.00  0.00     0.210 HD
ENDBRANCH   5  16
BRANCH   4  18
HETATM   18  C6  UNL     1      38.627  45.154  10.358  1.00  0.00     0.198 C 
BRANCH  18  19
HETATM   19  O4  UNL     1      37.687  44.666   9.484  1.00  0.00    -0.398 OA
ATOM     20  H4  UNL     1      37.656  45.177   8.684  1.00  0.00     0.209 HD
ENDBRANCH  18  19
ENDBRANCH   4  18
TORSDOF 6
ENDMDL
