MODEL 2
REMARK VINA RESULT: -5.929975991      1.774      2.098
REMARK  6 active torsions:
REMARK  status: ('A' for Active; 'I' for Inactive)
REMARK       I    between atoms: C2_2  and  N1_4 
REMARK    1  A    between atoms: N1_4  and  C3_6 
REMARK    2  A    between atoms: C4_7  and  O2_8 
REMARK    3  A    between atoms: C5_11  and  C6_12 
REMARK    4  A    between atoms: C6_12  and  O4_13 
REMARK    5  A    between atoms: C7_15  and  O5_16 
REMARK    6  A    between atoms: C8_18  and  O6_19 
ROOT
HETATM    1  C3  UNL     1      37.879  45.554  12.300  1.00  0.00     0.170 C 
HETATM    2  C4  UNL     1      37.667  46.917  12.937  1.00  0.00     0.282 C 
HETATM    3  O3  UNL     1      36.336  47.289  12.963  1.00  0.00    -0.349 OA
HETATM    4  C5  UNL     1      35.506  46.432  13.624  1.00  0.00     0.179 C 
HETATM    5  C7  UNL     1      36.114  45.074  13.891  1.00  0.00     0.180 C 
HETATM    6  C8  UNL     1      36.722  44.629  12.554  1.00  0.00     0.177 C 
ENDROOT
BRANCH   1   7
HETATM    7  N1  UNL     1      38.159  45.712  10.885  1.00  0.00    -0.349 N 
HETATM    8  C2  UNL     1      38.641  44.687  10.051  1.00  0.00     0.214 C 
HETATM    9  C1  UNL     1      38.928  44.846   8.604  1.00  0.00     0.117 C 
HETATM   10  O1  UNL     1      38.848  43.555  10.559  1.00  0.00    -0.274 OA
ATOM     11  H1  UNL     1      37.994  46.628  10.467  1.00  0.00     0.163 HD
ENDBRANCH   1   7
BRANCH   2  12
HETATM   12  O2  UNL     1      38.279  46.995  14.190  1.00  0.00    -0.369 OA
ATOM     13  H2  UNL     1      39.153  46.623  14.173  1.00  0.00     0.212 HD
ENDBRANCH   2  12
BRANCH   6  14
HETATM   14  O6  UNL     1      37.064  43.298  12.578  1.00  0.00    -0.391 OA
ATOM     15  H6  UNL     1      36.472  42.755  13.084  1.00  0.00     0.210 HD
ENDBRANCH   6  14
BRANCH   5  16
HETATM   16  O5  UNL     1      35.137  44.202  14.319  1.00  0.00    -0.390 OA
ATOM     17  H5  UNL     1      34.529  44.027  13.610  1.00  0.00     0.210 HD
ENDBRANCH   5  16
BRANCH   4  18
HETATM   18  C6  UNL     1      34.923  47.044  14.883  1.00  0.00     0.198 C 
BRANCH  18  19
HETATM   19  O4  UNL     1      35.283  46.333  16.001  1.00  0.00    -0.398 OA
ATOM     20  H4  UNL     1      34.690  45.608  16.159  1.00  0.00     0.209 HD
ENDBRANCH  18  19
ENDBRANCH   4  18
TORSDOF 6
ENDMDL
