MODEL 5
REMARK VINA RESULT: -9.983651325      1.029      1.533
REMARK  3 active torsions:
REMARK  status: ('A' for Active; 'I' for Inactive)
REMARK    1  A    between atoms: C12_14  and  S1_15 
REMARK    2  A    between atoms: C13_19  and  O6_20 
REMARK    3  A    between atoms: C14_22  and  O7_23 
ROOT
HETATM    1  O1  UNL     1      38.461  50.372  77.669  1.00  0.00    -0.287 OA
HETATM    2  C1  UNL     1      38.155  51.499  78.145  1.00  0.00     0.194 A 
HETATM    3  C2  UNL     1      38.896  52.038  79.270  1.00  0.00     0.029 A 
HETATM    4  C3  UNL     1      39.954  51.321  79.841  1.00  0.00     0.016 A 
HETATM    5  C4  UNL     1      40.639  51.857  80.908  1.00  0.00     0.001 A 
HETATM    6  C5  UNL     1      40.247  53.094  81.372  1.00  0.00     0.001 A 
HETATM    7  C6  UNL     1      39.207  53.813  80.821  1.00  0.00     0.016 A 
HETATM    8  C7  UNL     1      38.516  53.270  79.743  1.00  0.00     0.029 A 
HETATM    9  C8  UNL     1      37.427  54.046  79.183  1.00  0.00     0.197 A 
HETATM   10  O2  UNL     1      37.100  55.166  79.632  1.00  0.00    -0.286 OA
HETATM   11  C9  UNL     1      36.685  53.495  78.047  1.00  0.00     0.065 A 
HETATM   12  C10 UNL     1      37.047  52.245  77.543  1.00  0.00     0.034 A 
HETATM   13  C11 UNL     1      36.383  51.662  76.465  1.00  0.00     0.045 A 
HETATM   14  C12 UNL     1      35.342  52.350  75.891  1.00  0.00     0.117 A 
HETATM   15  C13 UNL     1      34.963  53.577  76.362  1.00  0.00     0.124 A 
HETATM   16  C14 UNL     1      35.631  54.174  77.453  1.00  0.00     0.115 A 
ENDROOT
BRANCH  14  17
HETATM   17  S1  UNL     1      34.439  51.700  74.526  1.00  0.00     0.140 S 
HETATM   18  O3  UNL     1      34.982  50.200  74.300  1.00  0.00    -0.591 OA
HETATM   19  O4  UNL     1      32.848  51.556  75.199  1.00  0.00    -0.591 OA
HETATM   20  O5  UNL     1      34.411  52.574  73.328  1.00  0.00    -0.591 OA
ENDBRANCH  14  17
BRANCH  15  21
HETATM   21  O6  UNL     1      33.922  54.248  75.776  1.00  0.00    -0.356 OA
ATOM     22  H6  UNL     1      33.409  54.868  76.281  1.00  0.00     0.218 HD
ENDBRANCH  15  21
BRANCH  16  23
HETATM   23  O7  UNL     1      35.234  55.388  77.898  1.00  0.00    -0.357 OA
ATOM     24  H7  UNL     1      35.062  56.103  77.297  1.00  0.00     0.217 HD
ENDBRANCH  16  23
TORSDOF 3
ENDMDL
