MODEL 6
REMARK VINA RESULT: -9.953529191      2.770      6.125
REMARK  3 active torsions:
REMARK  status: ('A' for Active; 'I' for Inactive)
REMARK    1  A    between atoms: C12_14  and  S1_15 
REMARK    2  A    between atoms: C13_19  and  O6_20 
REMARK    3  A    between atoms: C14_22  and  O7_23 
ROOT
HETATM    1  O1  UNL     1      38.511  50.707  77.867  1.00  0.00    -0.287 OA
HETATM    2  C1  UNL     1      37.866  51.781  78.008  1.00  0.00     0.194 A 
HETATM    3  C2  UNL     1      36.800  52.115  77.083  1.00  0.00     0.029 A 
HETATM    4  C3  UNL     1      36.471  51.257  76.027  1.00  0.00     0.016 A 
HETATM    5  C4  UNL     1      35.455  51.600  75.165  1.00  0.00     0.001 A 
HETATM    6  C5  UNL     1      34.795  52.790  75.384  1.00  0.00     0.001 A 
HETATM    7  C6  UNL     1      35.106  53.647  76.418  1.00  0.00     0.016 A 
HETATM    8  C7  UNL     1      36.134  53.299  77.289  1.00  0.00     0.029 A 
HETATM    9  C8  UNL     1      36.440  54.216  78.368  1.00  0.00     0.197 A 
HETATM   10  O2  UNL     1      35.819  55.289  78.535  1.00  0.00    -0.286 OA
HETATM   11  C9  UNL     1      37.518  53.872  79.298  1.00  0.00     0.065 A 
HETATM   12  C10 UNL     1      38.214  52.676  79.116  1.00  0.00     0.034 A 
HETATM   13  C11 UNL     1      39.250  52.287  79.962  1.00  0.00     0.045 A 
HETATM   14  C12 UNL     1      39.587  53.115  81.004  1.00  0.00     0.117 A 
HETATM   15  C13 UNL     1      38.924  54.294  81.210  1.00  0.00     0.124 A 
HETATM   16  C14 UNL     1      37.873  54.695  80.356  1.00  0.00     0.115 A 
ENDROOT
BRANCH  14  17
HETATM   17  S1  UNL     1      40.881  52.715  82.129  1.00  0.00     0.140 S 
HETATM   18  O3  UNL     1      40.360  51.452  82.984  1.00  0.00    -0.591 OA
HETATM   19  O4  UNL     1      42.103  52.117  81.054  1.00  0.00    -0.591 OA
HETATM   20  O5  UNL     1      41.403  53.863  82.909  1.00  0.00    -0.591 OA
ENDBRANCH  14  17
BRANCH  15  21
HETATM   21  O6  UNL     1      39.274  55.108  82.256  1.00  0.00    -0.356 OA
ATOM     22  H6  UNL     1      38.925  54.947  83.124  1.00  0.00     0.218 HD
ENDBRANCH  15  21
BRANCH  16  23
HETATM   23  O7  UNL     1      37.235  55.866  80.584  1.00  0.00    -0.357 OA
ATOM     24  H7  UNL     1      37.111  56.199  81.464  1.00  0.00     0.217 HD
ENDBRANCH  16  23
TORSDOF 3
ENDMDL
