MODEL 9
REMARK VINA RESULT: -9.736730920      1.160      1.700
REMARK  3 active torsions:
REMARK  status: ('A' for Active; 'I' for Inactive)
REMARK    1  A    between atoms: C12_14  and  S1_15 
REMARK    2  A    between atoms: C13_19  and  O6_20 
REMARK    3  A    between atoms: C14_22  and  O7_23 
ROOT
HETATM    1  O1  UNL     1      38.513  50.224  77.671  1.00  0.00    -0.287 OA
HETATM    2  C1  UNL     1      38.089  51.359  78.017  1.00  0.00     0.194 A 
HETATM    3  C2  UNL     1      38.708  52.059  79.127  1.00  0.00     0.029 A 
HETATM    4  C3  UNL     1      39.778  51.489  79.827  1.00  0.00     0.016 A 
HETATM    5  C4  UNL     1      40.346  52.175  80.875  1.00  0.00     0.001 A 
HETATM    6  C5  UNL     1      39.828  53.412  81.194  1.00  0.00     0.001 A 
HETATM    7  C6  UNL     1      38.775  53.988  80.516  1.00  0.00     0.016 A 
HETATM    8  C7  UNL     1      38.202  53.293  79.456  1.00  0.00     0.029 A 
HETATM    9  C8  UNL     1      37.097  53.920  78.759  1.00  0.00     0.197 A 
HETATM   10  O2  UNL     1      36.653  55.045  79.077  1.00  0.00    -0.286 OA
HETATM   11  C9  UNL     1      36.478  53.208  77.639  1.00  0.00     0.065 A 
HETATM   12  C10 UNL     1      36.969  51.951  77.280  1.00  0.00     0.034 A 
HETATM   13  C11 UNL     1      36.427  51.219  76.226  1.00  0.00     0.045 A 
HETATM   14  C12 UNL     1      35.377  51.762  75.527  1.00  0.00     0.117 A 
HETATM   15  C13 UNL     1      34.872  52.991  75.854  1.00  0.00     0.124 A 
HETATM   16  C14 UNL     1      35.417  53.738  76.921  1.00  0.00     0.115 A 
ENDROOT
BRANCH  14  17
HETATM   17  S1  UNL     1      34.622  50.916  74.179  1.00  0.00     0.140 S 
HETATM   18  O3  UNL     1      33.065  50.757  74.562  1.00  0.00    -0.591 OA
HETATM   19  O4  UNL     1      34.705  52.115  72.929  1.00  0.00    -0.591 OA
HETATM   20  O5  UNL     1      35.321  49.680  73.751  1.00  0.00    -0.591 OA
ENDBRANCH  14  17
BRANCH  15  21
HETATM   21  O6  UNL     1      33.824  53.516  75.145  1.00  0.00    -0.356 OA
ATOM     22  H6  UNL     1      33.073  52.975  74.931  1.00  0.00     0.218 HD
ENDBRANCH  15  21
BRANCH  16  23
HETATM   23  O7  UNL     1      34.897  54.951  77.222  1.00  0.00    -0.357 OA
ATOM     24  H7  UNL     1      34.071  55.240  76.854  1.00  0.00     0.217 HD
ENDBRANCH  16  23
TORSDOF 3
ENDMDL
