MODEL 12
REMARK VINA RESULT: -9.336457661      2.694      6.103
REMARK  3 active torsions:
REMARK  status: ('A' for Active; 'I' for Inactive)
REMARK    1  A    between atoms: C12_14  and  S1_15 
REMARK    2  A    between atoms: C13_19  and  O6_20 
REMARK    3  A    between atoms: C14_22  and  O7_23 
ROOT
HETATM    1  O1  UNL     1      38.356  50.673  77.656  1.00  0.00    -0.287 OA
HETATM    2  C1  UNL     1      37.729  51.752  77.835  1.00  0.00     0.194 A 
HETATM    3  C2  UNL     1      36.634  52.110  76.954  1.00  0.00     0.029 A 
HETATM    4  C3  UNL     1      36.258  51.271  75.898  1.00  0.00     0.016 A 
HETATM    5  C4  UNL     1      35.215  51.638  75.079  1.00  0.00     0.001 A 
HETATM    6  C5  UNL     1      34.578  52.832  75.337  1.00  0.00     0.001 A 
HETATM    7  C6  UNL     1      34.935  53.670  76.372  1.00  0.00     0.016 A 
HETATM    8  C7  UNL     1      35.990  53.299  77.200  1.00  0.00     0.029 A 
HETATM    9  C8  UNL     1      36.346  54.197  78.280  1.00  0.00     0.197 A 
HETATM   10  O2  UNL     1      35.743  55.274  78.484  1.00  0.00    -0.286 OA
HETATM   11  C9  UNL     1      37.452  53.828  79.166  1.00  0.00     0.065 A 
HETATM   12  C10 UNL     1      38.127  52.626  78.942  1.00  0.00     0.034 A 
HETATM   13  C11 UNL     1      39.188  52.214  79.745  1.00  0.00     0.045 A 
HETATM   14  C12 UNL     1      39.571  53.023  80.785  1.00  0.00     0.117 A 
HETATM   15  C13 UNL     1      38.930  54.207  81.032  1.00  0.00     0.124 A 
HETATM   16  C14 UNL     1      37.854  54.631  80.222  1.00  0.00     0.115 A 
ENDROOT
BRANCH  14  17
HETATM   17  S1  UNL     1      40.900  52.592  81.858  1.00  0.00     0.140 S 
HETATM   18  O3  UNL     1      41.200  53.899  82.751  1.00  0.00    -0.591 OA
HETATM   19  O4  UNL     1      40.140  51.438  82.904  1.00  0.00    -0.591 OA
HETATM   20  O5  UNL     1      42.069  51.979  81.182  1.00  0.00    -0.591 OA
ENDBRANCH  14  17
BRANCH  15  21
HETATM   21  O6  UNL     1      39.327  55.002  82.075  1.00  0.00    -0.356 OA
ATOM     22  H6  UNL     1      40.248  55.075  82.296  1.00  0.00     0.218 HD
ENDBRANCH  15  21
BRANCH  16  23
HETATM   23  O7  UNL     1      37.239  55.806  80.488  1.00  0.00    -0.357 OA
ATOM     24  H7  UNL     1      37.732  56.612  80.586  1.00  0.00     0.217 HD
ENDBRANCH  16  23
TORSDOF 3
ENDMDL
