MODEL 4
REMARK VINA RESULT: -10.201564768      0.205      1.023
REMARK  3 active torsions:
REMARK  status: ('A' for Active; 'I' for Inactive)
REMARK    1  A    between atoms: C12_14  and  S1_15 
REMARK    2  A    between atoms: C13_19  and  O6_20 
REMARK    3  A    between atoms: C14_22  and  O7_23 
ROOT
HETATM    1  O1  UNL     1      39.315  50.820  78.758  1.00  0.00    -0.287 OA
HETATM    2  C1  UNL     1      38.814  51.921  79.115  1.00  0.00     0.194 A 
HETATM    3  C2  UNL     1      39.332  52.612  80.280  1.00  0.00     0.029 A 
HETATM    4  C3  UNL     1      40.390  52.073  81.023  1.00  0.00     0.016 A 
HETATM    5  C4  UNL     1      40.860  52.751  82.123  1.00  0.00     0.001 A 
HETATM    6  C5  UNL     1      40.261  53.948  82.451  1.00  0.00     0.001 A 
HETATM    7  C6  UNL     1      39.219  54.493  81.731  1.00  0.00     0.016 A 
HETATM    8  C7  UNL     1      38.744  53.806  80.618  1.00  0.00     0.029 A 
HETATM    9  C8  UNL     1      37.648  54.400  79.879  1.00  0.00     0.197 A 
HETATM   10  O2  UNL     1      37.129  55.490  80.206  1.00  0.00    -0.286 OA
HETATM   11  C9  UNL     1      37.131  53.697  78.703  1.00  0.00     0.065 A 
HETATM   12  C10 UNL     1      37.708  52.480  78.334  1.00  0.00     0.034 A 
HETATM   13  C11 UNL     1      37.264  51.758  77.227  1.00  0.00     0.045 A 
HETATM   14  C12 UNL     1      36.228  52.270  76.487  1.00  0.00     0.117 A 
HETATM   15  C13 UNL     1      35.642  53.460  76.822  1.00  0.00     0.124 A 
HETATM   16  C14 UNL     1      36.086  54.198  77.942  1.00  0.00     0.115 A 
ENDROOT
BRANCH  14  17
HETATM   17  S1  UNL     1      35.595  51.435  75.071  1.00  0.00     0.140 S 
HETATM   18  O3  UNL     1      34.035  51.164  75.368  1.00  0.00    -0.591 OA
HETATM   19  O4  UNL     1      35.663  52.686  73.872  1.00  0.00    -0.591 OA
HETATM   20  O5  UNL     1      36.392  50.263  74.634  1.00  0.00    -0.591 OA
ENDBRANCH  14  17
BRANCH  15  21
HETATM   21  O6  UNL     1      34.609  53.956  76.070  1.00  0.00    -0.356 OA
ATOM     22  H6  UNL     1      34.756  54.683  75.478  1.00  0.00     0.218 HD
ENDBRANCH  15  21
BRANCH  16  23
HETATM   23  O7  UNL     1      35.488  55.371  78.250  1.00  0.00    -0.357 OA
ATOM     24  H7  UNL     1      35.934  56.034  78.764  1.00  0.00     0.217 HD
ENDBRANCH  16  23
TORSDOF 3
ENDMDL
