MODEL 10
REMARK VINA RESULT: -9.671950496      1.254      1.566
REMARK  3 active torsions:
REMARK  status: ('A' for Active; 'I' for Inactive)
REMARK    1  A    between atoms: C12_14  and  S1_15 
REMARK    2  A    between atoms: C13_19  and  O6_20 
REMARK    3  A    between atoms: C14_22  and  O7_23 
ROOT
HETATM    1  O1  UNL     1      38.437  50.097  77.553  1.00  0.00    -0.287 OA
HETATM    2  C1  UNL     1      38.016  51.240  77.876  1.00  0.00     0.194 A 
HETATM    3  C2  UNL     1      38.640  51.962  78.969  1.00  0.00     0.029 A 
HETATM    4  C3  UNL     1      39.711  51.404  79.678  1.00  0.00     0.016 A 
HETATM    5  C4  UNL     1      40.282  52.112  80.710  1.00  0.00     0.001 A 
HETATM    6  C5  UNL     1      39.768  53.356  81.004  1.00  0.00     0.001 A 
HETATM    7  C6  UNL     1      38.714  53.920  80.316  1.00  0.00     0.016 A 
HETATM    8  C7  UNL     1      38.137  53.203  79.273  1.00  0.00     0.029 A 
HETATM    9  C8  UNL     1      37.031  53.818  78.566  1.00  0.00     0.197 A 
HETATM   10  O2  UNL     1      36.591  54.951  78.862  1.00  0.00    -0.286 OA
HETATM   11  C9  UNL     1      36.407  53.084  77.463  1.00  0.00     0.065 A 
HETATM   12  C10 UNL     1      36.895  51.819  77.130  1.00  0.00     0.034 A 
HETATM   13  C11 UNL     1      36.349  51.066  76.093  1.00  0.00     0.045 A 
HETATM   14  C12 UNL     1      35.298  51.596  75.386  1.00  0.00     0.117 A 
HETATM   15  C13 UNL     1      34.796  52.833  75.687  1.00  0.00     0.124 A 
HETATM   16  C14 UNL     1      35.346  53.601  76.737  1.00  0.00     0.115 A 
ENDROOT
BRANCH  14  17
HETATM   17  S1  UNL     1      34.537  50.724  74.058  1.00  0.00     0.140 S 
HETATM   18  O3  UNL     1      34.883  51.550  72.719  1.00  0.00    -0.591 OA
HETATM   19  O4  UNL     1      35.487  49.274  74.006  1.00  0.00    -0.591 OA
HETATM   20  O5  UNL     1      33.107  50.392  74.271  1.00  0.00    -0.591 OA
ENDBRANCH  14  17
BRANCH  15  21
HETATM   21  O6  UNL     1      33.747  53.345  74.970  1.00  0.00    -0.356 OA
ATOM     22  H6  UNL     1      33.634  53.111  74.057  1.00  0.00     0.218 HD
ENDBRANCH  15  21
BRANCH  16  23
HETATM   23  O7  UNL     1      34.830  54.821  77.014  1.00  0.00    -0.357 OA
ATOM     24  H7  UNL     1      35.389  55.556  77.237  1.00  0.00     0.217 HD
ENDBRANCH  16  23
TORSDOF 3
ENDMDL
