MODEL 1
REMARK VINA RESULT: -10.288422361      0.000      0.000
REMARK  3 active torsions:
REMARK  status: ('A' for Active; 'I' for Inactive)
REMARK    1  A    between atoms: C12_14  and  S1_15 
REMARK    2  A    between atoms: C13_19  and  O6_20 
REMARK    3  A    between atoms: C14_22  and  O7_23 
ROOT
HETATM    1  O1  UNL     1      39.330  50.818  78.761  1.00  0.00    -0.287 OA
HETATM    2  C1  UNL     1      38.811  51.915  79.102  1.00  0.00     0.194 A 
HETATM    3  C2  UNL     1      39.303  52.621  80.269  1.00  0.00     0.029 A 
HETATM    4  C3  UNL     1      40.355  52.101  81.032  1.00  0.00     0.016 A 
HETATM    5  C4  UNL     1      40.801  52.793  82.134  1.00  0.00     0.001 A 
HETATM    6  C5  UNL     1      40.183  53.985  82.443  1.00  0.00     0.001 A 
HETATM    7  C6  UNL     1      39.145  54.512  81.704  1.00  0.00     0.016 A 
HETATM    8  C7  UNL     1      38.695  53.811  80.589  1.00  0.00     0.029 A 
HETATM    9  C8  UNL     1      37.604  54.386  79.829  1.00  0.00     0.197 A 
HETATM   10  O2  UNL     1      37.066  55.472  80.141  1.00  0.00    -0.286 OA
HETATM   11  C9  UNL     1      37.112  53.668  78.651  1.00  0.00     0.065 A 
HETATM   12  C10 UNL     1      37.709  52.455  78.300  1.00  0.00     0.034 A 
HETATM   13  C11 UNL     1      37.291  51.720  77.193  1.00  0.00     0.045 A 
HETATM   14  C12 UNL     1      36.260  52.214  76.433  1.00  0.00     0.117 A 
HETATM   15  C13 UNL     1      35.654  53.399  76.750  1.00  0.00     0.124 A 
HETATM   16  C14 UNL     1      36.073  54.150  77.871  1.00  0.00     0.115 A 
ENDROOT
BRANCH  14  17
HETATM   17  S1  UNL     1      35.659  51.360  75.014  1.00  0.00     0.140 S 
HETATM   18  O3  UNL     1      36.059  52.263  73.742  1.00  0.00    -0.591 OA
HETATM   19  O4  UNL     1      36.694  49.969  74.982  1.00  0.00    -0.591 OA
HETATM   20  O5  UNL     1      34.239  50.939  75.099  1.00  0.00    -0.591 OA
ENDBRANCH  14  17
BRANCH  15  21
HETATM   21  O6  UNL     1      34.627  53.876  75.980  1.00  0.00    -0.356 OA
ATOM     22  H6  UNL     1      33.732  53.619  76.166  1.00  0.00     0.218 HD
ENDBRANCH  15  21
BRANCH  16  23
HETATM   23  O7  UNL     1      35.456  55.318  78.162  1.00  0.00    -0.357 OA
ATOM     24  H7  UNL     1      34.549  55.471  77.924  1.00  0.00     0.217 HD
ENDBRANCH  16  23
TORSDOF 3
ENDMDL
