MODEL 19
REMARK VINA RESULT: -7.544252077      2.590      6.683
REMARK  3 active torsions:
REMARK  status: ('A' for Active; 'I' for Inactive)
REMARK    1  A    between atoms: C12_14  and  S1_15 
REMARK    2  A    between atoms: C13_19  and  O6_20 
REMARK    3  A    between atoms: C14_22  and  O7_23 
ROOT
HETATM    1  O1  UNL     1      36.194  55.194  78.734  1.00  0.00    -0.287 OA
HETATM    2  C1  UNL     1      36.440  54.090  78.177  1.00  0.00     0.194 A 
HETATM    3  C2  UNL     1      35.669  53.672  77.021  1.00  0.00     0.029 A 
HETATM    4  C3  UNL     1      34.647  54.480  76.510  1.00  0.00     0.016 A 
HETATM    5  C4  UNL     1      33.932  54.057  75.413  1.00  0.00     0.001 A 
HETATM    6  C5  UNL     1      34.260  52.839  74.858  1.00  0.00     0.001 A 
HETATM    7  C6  UNL     1      35.263  52.031  75.349  1.00  0.00     0.016 A 
HETATM    8  C7  UNL     1      35.985  52.459  76.458  1.00  0.00     0.029 A 
HETATM    9  C8  UNL     1      37.034  51.592  76.954  1.00  0.00     0.197 A 
HETATM   10  O2  UNL     1      37.303  50.491  76.423  1.00  0.00    -0.286 OA
HETATM   11  C9  UNL     1      37.809  52.021  78.120  1.00  0.00     0.065 A 
HETATM   12  C10 UNL     1      37.512  53.248  78.716  1.00  0.00     0.034 A 
HETATM   13  C11 UNL     1      38.208  53.718  79.828  1.00  0.00     0.045 A 
HETATM   14  C12 UNL     1      39.214  52.939  80.343  1.00  0.00     0.117 A 
HETATM   15  C13 UNL     1      39.530  51.732  79.783  1.00  0.00     0.124 A 
HETATM   16  C14 UNL     1      38.829  51.250  78.656  1.00  0.00     0.115 A 
ENDROOT
BRANCH  14  17
HETATM   17  S1  UNL     1      40.153  53.443  81.746  1.00  0.00     0.140 S 
HETATM   18  O3  UNL     1      39.449  54.780  82.303  1.00  0.00    -0.591 OA
HETATM   19  O4  UNL     1      39.789  52.181  82.878  1.00  0.00    -0.591 OA
HETATM   20  O5  UNL     1      41.617  53.519  81.519  1.00  0.00    -0.591 OA
ENDBRANCH  14  17
BRANCH  15  21
HETATM   21  O6  UNL     1      40.538  50.969  80.312  1.00  0.00    -0.356 OA
ATOM     22  H6  UNL     1      40.510  50.707  81.224  1.00  0.00     0.218 HD
ENDBRANCH  15  21
BRANCH  16  23
HETATM   23  O7  UNL     1      39.162  50.052  78.123  1.00  0.00    -0.357 OA
ATOM     24  H7  UNL     1      38.509  49.378  77.975  1.00  0.00     0.217 HD
ENDBRANCH  16  23
TORSDOF 3
ENDMDL
