MODEL 12
REMARK VINA RESULT: -2.677903667      2.504      3.352
REMARK  3 active torsions:
REMARK  status: ('A' for Active; 'I' for Inactive)
REMARK    1  A    between atoms: N1_2  and  C4_5 
REMARK    2  A    between atoms: C4_5  and  C5_6 
REMARK    3  A    between atoms: C5_6  and  O1_7 
ROOT
HETATM    1  C1  UNL     1      35.629  21.963  11.710  1.00  0.00     0.271 C 
HETATM    2  N1  UNL     1      34.272  21.420  11.569  1.00  0.00    -0.077 N 
HETATM    3  C2  UNL     1      34.418  20.104  10.970  1.00  0.00     0.271 C 
HETATM    4  C3  UNL     1      33.582  22.256  10.628  1.00  0.00     0.271 C 
ENDROOT
BRANCH   2   5
HETATM    5  C4  UNL     1      33.696  21.380  12.870  1.00  0.00     0.262 C 
BRANCH   5   6
HETATM    6  C5  UNL     1      32.870  22.576  13.231  1.00  0.00     0.192 C 
BRANCH   6   7
HETATM    7  O1  UNL     1      33.489  23.386  14.181  1.00  0.00    -0.399 OA
ATOM      8  H1  UNL     1      34.389  23.589  13.956  1.00  0.00     0.209 HD
ENDBRANCH   6   7
ENDBRANCH   5   6
ENDBRANCH   2   5
TORSDOF 3
ENDMDL
