MODEL 18
REMARK VINA RESULT: -2.575611400      2.265      3.007
REMARK  3 active torsions:
REMARK  status: ('A' for Active; 'I' for Inactive)
REMARK    1  A    between atoms: N1_2  and  C4_5 
REMARK    2  A    between atoms: C4_5  and  C5_6 
REMARK    3  A    between atoms: C5_6  and  O1_7 
ROOT
HETATM    1  C1  UNL     1      34.267  19.897  11.537  1.00  0.00     0.271 C 
HETATM    2  N1  UNL     1      34.406  21.187  10.848  1.00  0.00    -0.077 N 
HETATM    3  C2  UNL     1      33.060  21.615  10.505  1.00  0.00     0.271 C 
HETATM    4  C3  UNL     1      35.112  20.934   9.624  1.00  0.00     0.271 C 
ENDROOT
BRANCH   2   5
HETATM    5  C4  UNL     1      35.062  22.076  11.745  1.00  0.00     0.262 C 
BRANCH   5   6
HETATM    6  C5  UNL     1      34.673  21.922  13.183  1.00  0.00     0.192 C 
BRANCH   6   7
HETATM    7  O1  UNL     1      33.957  23.017  13.663  1.00  0.00    -0.399 OA
ATOM      8  H1  UNL     1      33.791  22.964  14.597  1.00  0.00     0.209 HD
ENDBRANCH   6   7
ENDBRANCH   5   6
ENDBRANCH   2   5
TORSDOF 3
ENDMDL
