MODEL 13
REMARK VINA RESULT: -2.670375324      2.504      3.390
REMARK  3 active torsions:
REMARK  status: ('A' for Active; 'I' for Inactive)
REMARK    1  A    between atoms: N1_2  and  C4_5 
REMARK    2  A    between atoms: C4_5  and  C5_6 
REMARK    3  A    between atoms: C5_6  and  O1_7 
ROOT
HETATM    1  C1  UNL     1      34.362  20.100  11.089  1.00  0.00     0.271 C 
HETATM    2  N1  UNL     1      34.277  21.465  11.627  1.00  0.00    -0.077 N 
HETATM    3  C2  UNL     1      33.566  22.252  10.634  1.00  0.00     0.271 C 
HETATM    4  C3  UNL     1      35.619  21.967  11.707  1.00  0.00     0.271 C 
ENDROOT
BRANCH   2   5
HETATM    5  C4  UNL     1      33.592  21.385  12.872  1.00  0.00     0.262 C 
BRANCH   5   6
HETATM    6  C5  UNL     1      32.818  22.611  13.246  1.00  0.00     0.192 C 
BRANCH   6   7
HETATM    7  O1  UNL     1      33.488  23.403  14.176  1.00  0.00    -0.399 OA
ATOM      8  H1  UNL     1      32.923  23.697  14.880  1.00  0.00     0.209 HD
ENDBRANCH   6   7
ENDBRANCH   5   6
ENDBRANCH   2   5
TORSDOF 3
ENDMDL
