MODEL 14
REMARK VINA RESULT: -2.658935358      2.497      3.350
REMARK  3 active torsions:
REMARK  status: ('A' for Active; 'I' for Inactive)
REMARK    1  A    between atoms: N1_2  and  C4_5 
REMARK    2  A    between atoms: C4_5  and  C5_6 
REMARK    3  A    between atoms: C5_6  and  O1_7 
ROOT
HETATM    1  C1  UNL     1      33.530  22.198  10.661  1.00  0.00     0.271 C 
HETATM    2  N1  UNL     1      34.283  21.365  11.608  1.00  0.00    -0.077 N 
HETATM    3  C2  UNL     1      35.607  21.956  11.710  1.00  0.00     0.271 C 
HETATM    4  C3  UNL     1      34.426  20.070  11.004  1.00  0.00     0.271 C 
ENDROOT
BRANCH   2   5
HETATM    5  C4  UNL     1      33.570  21.377  12.839  1.00  0.00     0.262 C 
BRANCH   5   6
HETATM    6  C5  UNL     1      32.868  22.662  13.150  1.00  0.00     0.192 C 
BRANCH   6   7
HETATM    7  O1  UNL     1      33.481  23.371  14.181  1.00  0.00    -0.399 OA
ATOM      8  H1  UNL     1      33.034  24.185  14.380  1.00  0.00     0.209 HD
ENDBRANCH   6   7
ENDBRANCH   5   6
ENDBRANCH   2   5
TORSDOF 3
ENDMDL
