MODEL 15
REMARK VINA RESULT: -2.658046485      8.726      9.564
REMARK  3 active torsions:
REMARK  status: ('A' for Active; 'I' for Inactive)
REMARK    1  A    between atoms: N1_2  and  C4_5 
REMARK    2  A    between atoms: C4_5  and  C5_6 
REMARK    3  A    between atoms: C5_6  and  O1_7 
ROOT
HETATM    1  C1  UNL     1      33.987  25.825  18.104  1.00  0.00     0.271 C 
HETATM    2  N1  UNL     1      34.425  25.692  19.501  1.00  0.00    -0.077 N 
HETATM    3  C2  UNL     1      33.249  25.314  20.265  1.00  0.00     0.271 C 
HETATM    4  C3  UNL     1      34.831  26.998  19.938  1.00  0.00     0.271 C 
ENDROOT
BRANCH   2   5
HETATM    5  C4  UNL     1      35.451  24.706  19.528  1.00  0.00     0.262 C 
BRANCH   5   6
HETATM    6  C5  UNL     1      36.847  25.246  19.492  1.00  0.00     0.192 C 
BRANCH   6   7
HETATM    7  O1  UNL     1      37.744  24.367  18.888  1.00  0.00    -0.399 OA
ATOM      8  H1  UNL     1      37.555  23.458  19.087  1.00  0.00     0.209 HD
ENDBRANCH   6   7
ENDBRANCH   5   6
ENDBRANCH   2   5
TORSDOF 3
ENDMDL
