MODEL 1
REMARK VINA RESULT: -11.107376234      0.000      0.000
REMARK  10 active torsions:
REMARK  status: ('A' for Active; 'I' for Inactive)
REMARK    1  A    between atoms: N4_17  and  C9_18 
REMARK    2  A    between atoms: C9_18  and  C10_19 
REMARK    3  A    between atoms: C10_19  and  O3_20 
REMARK    4  A    between atoms: C10_19  and  C11_22 
REMARK    5  A    between atoms: C11_22  and  O4_23 
REMARK    6  A    between atoms: C11_22  and  C12_25 
REMARK    7  A    between atoms: C12_25  and  O5_26 
REMARK    8  A    between atoms: C12_25  and  C13_28 
REMARK    9  A    between atoms: C13_28  and  O6_29 
REMARK   10  A    between atoms: O6_29  and  P1_30 
ROOT
HETATM    1  C1  UNL     1       2.602   2.514   9.121  1.00  0.00     0.049 C 
HETATM    2  C2  UNL     1       2.776   3.981   9.003  1.00  0.00    -0.054 A 
HETATM    3  C3  UNL     1       1.806   4.848   9.458  1.00  0.00     0.039 A 
HETATM    4  C4  UNL     1       1.943   6.225   9.360  1.00  0.00     0.060 A 
HETATM    5  N1  UNL     1       0.965   7.021   9.827  1.00  0.00    -0.347 N 
ATOM      6  H1  UNL     1       0.132   6.606  10.244  1.00  0.00     0.166 HD
HETATM    7  C5  UNL     1       1.073   8.353   9.750  1.00  0.00     0.146 A 
HETATM    8  C6  UNL     1       0.085   9.226  10.221  1.00  0.00     0.280 A 
HETATM    9  O1  UNL     1      -0.934   8.726  10.731  1.00  0.00    -0.265 OA
HETATM   10  N2  UNL     1       0.262  10.566  10.110  1.00  0.00    -0.273 N 
ATOM     11  H2  UNL     1      -0.456  11.206  10.451  1.00  0.00     0.173 HD
HETATM   12  C7  UNL     1       1.383  11.053   9.549  1.00  0.00     0.328 A 
HETATM   13  O2  UNL     1       1.485  12.305   9.477  1.00  0.00    -0.247 OA
HETATM   14  N3  UNL     1       2.372  10.238   9.077  1.00  0.00    -0.292 N 
ATOM     15  H3  UNL     1       3.205  10.653   8.659  1.00  0.00     0.172 HD
HETATM   16  C8  UNL     1       2.271   8.902   9.151  1.00  0.00     0.145 A 
HETATM   17  N4  UNL     1       3.239   8.053   8.689  1.00  0.00    -0.327 N 
HETATM   18  C14 UNL     1       3.115   6.718   8.775  1.00  0.00     0.063 A 
HETATM   19  C15 UNL     1       4.092   5.857   8.316  1.00  0.00     0.039 A 
HETATM   20  C16 UNL     1       3.925   4.490   8.429  1.00  0.00    -0.054 A 
HETATM   21  C17 UNL     1       4.965   3.549   7.942  1.00  0.00     0.049 C 
ENDROOT
BRANCH  17  22
HETATM   22  C9  UNL     1       4.417   8.653   8.100  1.00  0.00     0.165 C 
BRANCH  22  23
HETATM   23  C10 UNL     1       5.450   8.851   9.218  1.00  0.00     0.167 C 
BRANCH  23  24
HETATM   24  O3  UNL     1       5.013   9.641  10.245  1.00  0.00    -0.391 OA
ATOM     25  H3  UNL     1       5.638   9.732  10.956  1.00  0.00     0.210 HD
ENDBRANCH  23  24
BRANCH  23  26
HETATM   26  C11 UNL     1       6.781   9.217   8.741  1.00  0.00     0.179 C 
BRANCH  26  27
HETATM   27  O4  UNL     1       6.691   9.930   7.543  1.00  0.00    -0.390 OA
ATOM     28  H4  UNL     1       7.221  10.718   7.585  1.00  0.00     0.210 HD
ENDBRANCH  26  27
BRANCH  26  29
HETATM   29  C12 UNL     1       7.893   8.266   8.683  1.00  0.00     0.173 C 
BRANCH  29  30
HETATM   30  O5  UNL     1       7.371   7.152   7.925  1.00  0.00    -0.391 OA
ATOM     31  H5  UNL     1       8.140   6.749   7.540  1.00  0.00     0.210 HD
ENDBRANCH  29  30
BRANCH  29  32
HETATM   32  C13 UNL     1       8.269   7.592   9.999  1.00  0.00     0.217 C 
BRANCH  32  33
HETATM   33  O6  UNL     1       8.479   8.604  10.983  1.00  0.00    -0.280 OA
BRANCH  33  34
HETATM   34  P1  UNL     1       9.622   8.086  12.103  1.00  0.00     0.422 P 
HETATM   35  O7  UNL     1       8.945   7.213  13.108  1.00  0.00    -0.617 OA
HETATM   36  O8  UNL     1      10.352   9.379  12.906  1.00  0.00    -0.617 OA
HETATM   37  O9  UNL     1      10.850   7.175  11.363  1.00  0.00    -0.617 OA
ENDBRANCH  33  34
ENDBRANCH  32  33
ENDBRANCH  29  32
ENDBRANCH  26  29
ENDBRANCH  23  26
ENDBRANCH  22  23
ENDBRANCH  17  22
TORSDOF 10
ENDMDL
