MODEL 3
REMARK VINA RESULT: -10.515390637      2.005      4.545
REMARK  10 active torsions:
REMARK  status: ('A' for Active; 'I' for Inactive)
REMARK    1  A    between atoms: N4_17  and  C9_18 
REMARK    2  A    between atoms: C9_18  and  C10_19 
REMARK    3  A    between atoms: C10_19  and  O3_20 
REMARK    4  A    between atoms: C10_19  and  C11_22 
REMARK    5  A    between atoms: C11_22  and  O4_23 
REMARK    6  A    between atoms: C11_22  and  C12_25 
REMARK    7  A    between atoms: C12_25  and  O5_26 
REMARK    8  A    between atoms: C12_25  and  C13_28 
REMARK    9  A    between atoms: C13_28  and  O6_29 
REMARK   10  A    between atoms: O6_29  and  P1_30 
ROOT
HETATM    1  C1  UNL     1      -0.984   9.381  10.582  1.00  0.00     0.049 C 
HETATM    2  C2  UNL     1       0.326   9.001  10.000  1.00  0.00    -0.054 A 
HETATM    3  C3  UNL     1       0.677   7.677   9.851  1.00  0.00     0.039 A 
HETATM    4  C4  UNL     1       1.896   7.295   9.310  1.00  0.00     0.060 A 
HETATM    5  N1  UNL     1       2.182   5.987   9.184  1.00  0.00    -0.347 N 
ATOM      6  H1  UNL     1       1.504   5.290   9.492  1.00  0.00     0.166 HD
HETATM    7  C5  UNL     1       3.348   5.589   8.660  1.00  0.00     0.146 A 
HETATM    8  C6  UNL     1       3.694   4.241   8.507  1.00  0.00     0.280 A 
HETATM    9  O1  UNL     1       2.871   3.385   8.881  1.00  0.00    -0.265 OA
HETATM   10  N2  UNL     1       4.894   3.911   7.967  1.00  0.00    -0.273 N 
ATOM     11  H2  UNL     1       5.151   2.930   7.855  1.00  0.00     0.173 HD
HETATM   12  C7  UNL     1       5.746   4.877   7.581  1.00  0.00     0.328 A 
HETATM   13  O2  UNL     1       6.842   4.503   7.087  1.00  0.00    -0.247 OA
HETATM   14  N3  UNL     1       5.449   6.204   7.711  1.00  0.00    -0.292 N 
ATOM     15  H3  UNL     1       6.127   6.900   7.403  1.00  0.00     0.172 HD
HETATM   16  C8  UNL     1       4.283   6.610   8.235  1.00  0.00     0.145 A 
HETATM   17  N4  UNL     1       3.948   7.928   8.383  1.00  0.00    -0.327 N 
HETATM   18  C14 UNL     1       2.774   8.309   8.910  1.00  0.00     0.063 A 
HETATM   19  C15 UNL     1       2.429   9.639   9.055  1.00  0.00     0.039 A 
HETATM   20  C16 UNL     1       1.207   9.987   9.598  1.00  0.00    -0.054 A 
HETATM   21  C17 UNL     1       0.819  11.411   9.762  1.00  0.00     0.049 C 
ENDROOT
BRANCH  17  22
HETATM   22  C9  UNL     1       4.918   8.907   7.941  1.00  0.00     0.165 C 
BRANCH  22  23
HETATM   23  C10 UNL     1       6.011   9.000   9.015  1.00  0.00     0.167 C 
BRANCH  23  24
HETATM   24  O3  UNL     1       5.631   9.679  10.139  1.00  0.00    -0.391 OA
ATOM     25  H3  UNL     1       5.994   9.328  10.944  1.00  0.00     0.210 HD
ENDBRANCH  23  24
BRANCH  23  26
HETATM   26  C11 UNL     1       7.313   9.424   8.504  1.00  0.00     0.179 C 
BRANCH  26  27
HETATM   27  O4  UNL     1       7.167  10.070   7.274  1.00  0.00    -0.390 OA
ATOM     28  H4  UNL     1       7.367   9.475   6.561  1.00  0.00     0.210 HD
ENDBRANCH  26  27
BRANCH  26  29
HETATM   29  C12 UNL     1       8.480   8.540   8.477  1.00  0.00     0.173 C 
BRANCH  29  30
HETATM   30  O5  UNL     1       8.127   7.510   7.528  1.00  0.00    -0.391 OA
ATOM     31  H5  UNL     1       8.948   7.290   7.103  1.00  0.00     0.210 HD
ENDBRANCH  29  30
BRANCH  29  32
HETATM   32  C13 UNL     1       8.732   7.722   9.740  1.00  0.00     0.217 C 
BRANCH  32  33
HETATM   33  O6  UNL     1       8.637   8.589  10.869  1.00  0.00    -0.280 OA
BRANCH  33  34
HETATM   34  P1  UNL     1       9.684   8.072  12.079  1.00  0.00     0.422 P 
HETATM   35  O7  UNL     1      10.800   7.306  11.450  1.00  0.00    -0.617 OA
HETATM   36  O8  UNL     1       8.908   7.081  13.205  1.00  0.00    -0.617 OA
HETATM   37  O9  UNL     1      10.358   9.384  12.921  1.00  0.00    -0.617 OA
ENDBRANCH  33  34
ENDBRANCH  32  33
ENDBRANCH  29  32
ENDBRANCH  26  29
ENDBRANCH  23  26
ENDBRANCH  22  23
ENDBRANCH  17  22
TORSDOF 10
ENDMDL
