MODEL 6
REMARK VINA RESULT: -9.930467400      2.028      4.626
REMARK  10 active torsions:
REMARK  status: ('A' for Active; 'I' for Inactive)
REMARK    1  A    between atoms: N4_17  and  C9_18 
REMARK    2  A    between atoms: C9_18  and  C10_19 
REMARK    3  A    between atoms: C10_19  and  O3_20 
REMARK    4  A    between atoms: C10_19  and  C11_22 
REMARK    5  A    between atoms: C11_22  and  O4_23 
REMARK    6  A    between atoms: C11_22  and  C12_25 
REMARK    7  A    between atoms: C12_25  and  O5_26 
REMARK    8  A    between atoms: C12_25  and  C13_28 
REMARK    9  A    between atoms: C13_28  and  O6_29 
REMARK   10  A    between atoms: O6_29  and  P1_30 
ROOT
HETATM    1  C1  UNL     1      -0.958  10.022  10.697  1.00  0.00     0.049 C 
HETATM    2  C2  UNL     1       0.139   9.195  10.140  1.00  0.00    -0.054 A 
HETATM    3  C3  UNL     1       0.113   7.821  10.243  1.00  0.00     0.039 A 
HETATM    4  C4  UNL     1       1.126   7.024   9.731  1.00  0.00     0.060 A 
HETATM    5  N1  UNL     1       1.043   5.687   9.856  1.00  0.00    -0.347 N 
ATOM      6  H1  UNL     1       0.240   5.274  10.330  1.00  0.00     0.166 HD
HETATM    7  C5  UNL     1       2.003   4.894   9.366  1.00  0.00     0.146 A 
HETATM    8  C6  UNL     1       1.965   3.498   9.470  1.00  0.00     0.280 A 
HETATM    9  O1  UNL     1       0.987   2.987  10.047  1.00  0.00    -0.265 OA
HETATM   10  N2  UNL     1       2.974   2.756   8.950  1.00  0.00    -0.273 N 
ATOM     11  H2  UNL     1       2.950   1.739   9.024  1.00  0.00     0.173 HD
HETATM   12  C7  UNL     1       4.007   3.361   8.337  1.00  0.00     0.328 A 
HETATM   13  O2  UNL     1       4.910   2.615   7.876  1.00  0.00    -0.247 OA
HETATM   14  N3  UNL     1       4.085   4.719   8.213  1.00  0.00    -0.292 N 
ATOM     15  H3  UNL     1       4.888   5.132   7.740  1.00  0.00     0.172 HD
HETATM   16  C8  UNL     1       3.126   5.521   8.701  1.00  0.00     0.145 A 
HETATM   17  N4  UNL     1       3.168   6.885   8.598  1.00  0.00    -0.327 N 
HETATM   18  C14 UNL     1       2.195   7.666   9.095  1.00  0.00     0.063 A 
HETATM   19  C15 UNL     1       2.230   9.042   8.987  1.00  0.00     0.039 A 
HETATM   20  C16 UNL     1       1.204   9.808   9.508  1.00  0.00    -0.054 A 
HETATM   21  C17 UNL     1       1.224  11.288   9.401  1.00  0.00     0.049 C 
ENDROOT
BRANCH  17  22
HETATM   22  C9  UNL     1       4.311   7.460   7.923  1.00  0.00     0.165 C 
BRANCH  22  23
HETATM   23  C10 UNL     1       5.446   7.585   8.950  1.00  0.00     0.167 C 
BRANCH  23  24
HETATM   24  O3  UNL     1       5.031   7.511  10.250  1.00  0.00    -0.391 OA
ATOM     25  H3  UNL     1       4.993   8.350  10.693  1.00  0.00     0.210 HD
ENDBRANCH  23  24
BRANCH  23  26
HETATM   26  C11 UNL     1       6.352   8.704   8.702  1.00  0.00     0.179 C 
BRANCH  26  27
HETATM   27  O4  UNL     1       5.875   9.495   7.654  1.00  0.00    -0.390 OA
ATOM     28  H4  UNL     1       6.587   9.981   7.255  1.00  0.00     0.210 HD
ENDBRANCH  26  27
BRANCH  26  29
HETATM   29  C12 UNL     1       7.803   8.542   8.595  1.00  0.00     0.173 C 
BRANCH  29  30
HETATM   30  O5  UNL     1       7.978   7.589   7.522  1.00  0.00    -0.391 OA
ATOM     31  H5  UNL     1       8.672   7.959   6.990  1.00  0.00     0.210 HD
ENDBRANCH  29  30
BRANCH  29  32
HETATM   32  C13 UNL     1       8.487   7.826   9.755  1.00  0.00     0.217 C 
BRANCH  32  33
HETATM   33  O6  UNL     1       8.490   8.696  10.886  1.00  0.00    -0.280 OA
BRANCH  33  34
HETATM   34  P1  UNL     1       9.627   8.172  12.009  1.00  0.00     0.422 P 
HETATM   35  O7  UNL     1      10.296   9.366  12.606  1.00  0.00    -0.617 OA
HETATM   36  O8  UNL     1      10.801   7.183  11.307  1.00  0.00    -0.617 OA
HETATM   37  O9  UNL     1       8.898   7.297  13.270  1.00  0.00    -0.617 OA
ENDBRANCH  33  34
ENDBRANCH  32  33
ENDBRANCH  29  32
ENDBRANCH  26  29
ENDBRANCH  23  26
ENDBRANCH  22  23
ENDBRANCH  17  22
TORSDOF 10
ENDMDL
