MODEL 9
REMARK VINA RESULT: -8.853298504      3.116      5.258
REMARK  10 active torsions:
REMARK  status: ('A' for Active; 'I' for Inactive)
REMARK    1  A    between atoms: N4_17  and  C9_18 
REMARK    2  A    between atoms: C9_18  and  C10_19 
REMARK    3  A    between atoms: C10_19  and  O3_20 
REMARK    4  A    between atoms: C10_19  and  C11_22 
REMARK    5  A    between atoms: C11_22  and  O4_23 
REMARK    6  A    between atoms: C11_22  and  C12_25 
REMARK    7  A    between atoms: C12_25  and  O5_26 
REMARK    8  A    between atoms: C12_25  and  C13_28 
REMARK    9  A    between atoms: C13_28  and  O6_29 
REMARK   10  A    between atoms: O6_29  and  P1_30 
ROOT
HETATM    1  C1  UNL     1       2.707   0.669   8.384  1.00  0.00     0.049 C 
HETATM    2  C2  UNL     1       3.419   1.964   8.254  1.00  0.00    -0.054 A 
HETATM    3  C3  UNL     1       4.781   2.006   8.052  1.00  0.00     0.039 A 
HETATM    4  C4  UNL     1       5.471   3.202   7.927  1.00  0.00     0.060 A 
HETATM    5  N1  UNL     1       6.801   3.181   7.725  1.00  0.00    -0.347 N 
ATOM      6  H1  UNL     1       7.288   2.287   7.671  1.00  0.00     0.166 HD
HETATM    7  C5  UNL     1       7.491   4.321   7.595  1.00  0.00     0.146 A 
HETATM    8  C6  UNL     1       8.875   4.353   7.383  1.00  0.00     0.280 A 
HETATM    9  O1  UNL     1       9.476   3.266   7.316  1.00  0.00    -0.265 OA
HETATM   10  N2  UNL     1       9.509   5.546   7.261  1.00  0.00    -0.273 N 
ATOM     11  H2  UNL     1      10.517   5.574   7.108  1.00  0.00     0.173 HD
HETATM   12  C7  UNL     1       8.809   6.692   7.342  1.00  0.00     0.328 A 
HETATM   13  O2  UNL     1       9.458   7.763   7.220  1.00  0.00    -0.247 OA
HETATM   14  N3  UNL     1       7.459   6.706   7.547  1.00  0.00    -0.292 N 
ATOM     15  H3  UNL     1       6.971   7.600   7.602  1.00  0.00     0.172 HD
HETATM   16  C8  UNL     1       6.761   5.568   7.678  1.00  0.00     0.145 A 
HETATM   17  N4  UNL     1       5.408   5.541   7.885  1.00  0.00    -0.327 N 
HETATM   18  C14 UNL     1       4.731   4.388   8.012  1.00  0.00     0.063 A 
HETATM   19  C15 UNL     1       3.365   4.355   8.214  1.00  0.00     0.039 A 
HETATM   20  C16 UNL     1       2.707   3.146   8.335  1.00  0.00    -0.054 A 
HETATM   21  C17 UNL     1       1.240   3.091   8.552  1.00  0.00     0.049 C 
ENDROOT
BRANCH  17  22
HETATM   22  C9  UNL     1       4.727   6.815   7.959  1.00  0.00     0.165 C 
BRANCH  22  23
HETATM   23  C10 UNL     1       5.053   7.441   9.322  1.00  0.00     0.167 C 
BRANCH  23  24
HETATM   24  O3  UNL     1       4.081   7.259  10.265  1.00  0.00    -0.391 OA
ATOM     25  H3  UNL     1       3.209   7.144   9.905  1.00  0.00     0.210 HD
ENDBRANCH  23  24
BRANCH  23  26
HETATM   26  C11 UNL     1       5.524   8.822   9.246  1.00  0.00     0.179 C 
BRANCH  26  27
HETATM   27  O4  UNL     1       5.500   9.273   7.923  1.00  0.00    -0.390 OA
ATOM     28  H4  UNL     1       6.377   9.499   7.634  1.00  0.00     0.210 HD
ENDBRANCH  26  27
BRANCH  26  29
HETATM   29  C12 UNL     1       6.740   9.285   9.917  1.00  0.00     0.173 C 
BRANCH  29  30
HETATM   30  O5  UNL     1       7.619   9.674   8.837  1.00  0.00    -0.391 OA
ATOM     31  H5  UNL     1       8.466   9.325   9.087  1.00  0.00     0.210 HD
ENDBRANCH  29  30
BRANCH  29  32
HETATM   32  C13 UNL     1       7.570   8.213  10.616  1.00  0.00     0.217 C 
BRANCH  32  33
HETATM   33  O6  UNL     1       8.940   8.610  10.589  1.00  0.00    -0.280 OA
BRANCH  33  34
HETATM   34  P1  UNL     1       9.700   8.144  12.015  1.00  0.00     0.422 P 
HETATM   35  O7  UNL     1       8.716   7.410  12.864  1.00  0.00    -0.617 OA
HETATM   36  O8  UNL     1      10.287   9.469  12.881  1.00  0.00    -0.617 OA
HETATM   37  O9  UNL     1      11.009   7.103  11.711  1.00  0.00    -0.617 OA
ENDBRANCH  33  34
ENDBRANCH  32  33
ENDBRANCH  29  32
ENDBRANCH  26  29
ENDBRANCH  23  26
ENDBRANCH  22  23
ENDBRANCH  17  22
TORSDOF 10
ENDMDL
