MODEL 3
REMARK VINA RESULT: -6.723595265      3.482      5.127
REMARK  10 active torsions:
REMARK  status: ('A' for Active; 'I' for Inactive)
REMARK    1  A    between atoms: O1_1  and  C1_3 
REMARK    2  A    between atoms: C1_3  and  C2_4 
REMARK    3  A    between atoms: C3_6  and  O3_7 
REMARK    4  A    between atoms: O3_7  and  C4_8 
REMARK    5  A    between atoms: C5_9  and  O4_10 
REMARK    6  A    between atoms: C8_17  and  C9_18 
REMARK    7  A    between atoms: C9_18  and  O5_19 
REMARK    8  A    between atoms: C10_21  and  O6_22 
REMARK    9  A    between atoms: C11_24  and  O7_25 
REMARK   10  A    between atoms: C12_27  and  O8_28 
ROOT
HETATM    1  C2  UNL     1      61.175  44.509  37.795  1.00  0.00     0.179 C 
HETATM    2  O2  UNL     1      60.652  43.248  37.685  1.00  0.00    -0.348 OA
HETATM    3  C3  UNL     1      61.707  42.333  37.830  1.00  0.00     0.292 C 
HETATM    4  C10 UNL     1      62.400  42.327  36.508  1.00  0.00     0.204 C 
HETATM    5  C11 UNL     1      63.079  43.672  36.362  1.00  0.00     0.183 C 
HETATM    6  C12 UNL     1      62.356  44.805  36.960  1.00  0.00     0.180 C 
ENDROOT
BRANCH   3   7
HETATM    7  O3  UNL     1      61.292  41.121  38.310  1.00  0.00    -0.350 OA
BRANCH   7   8
HETATM    8  C4  UNL     1      61.443  41.063  39.664  1.00  0.00     0.162 C 
HETATM    9  C5  UNL     1      60.072  41.074  40.380  1.00  0.00     0.173 C 
HETATM   10  C6  UNL     1      60.386  40.782  41.832  1.00  0.00     0.266 C 
HETATM   11  N1  UNL     1      61.736  41.157  42.194  1.00  0.00    -0.072 N 
HETATM   12  C7  UNL     1      62.744  40.329  41.571  1.00  0.00     0.241 C 
ATOM     13  H12 UNL     1      61.904  42.143  41.996  1.00  0.00     0.277 HD
ATOM     14  H11 UNL     1      61.850  41.168  43.208  1.00  0.00     0.277 HD
HETATM   15  C8  UNL     1      62.149  39.883  40.226  1.00  0.00     0.066 C 
BRANCH   9  16
HETATM   16  O4  UNL     1      59.409  42.255  40.188  1.00  0.00    -0.391 OA
ATOM     17  H4  UNL     1      58.563  42.259  40.622  1.00  0.00     0.210 HD
ENDBRANCH   9  16
BRANCH  15  18
HETATM   18  C9  UNL     1      63.155  39.222  39.365  1.00  0.00     0.173 C 
BRANCH  18  19
HETATM   19  O5  UNL     1      64.110  40.167  39.003  1.00  0.00    -0.400 OA
ATOM     20  H5  UNL     1      64.536  39.872  38.207  1.00  0.00     0.209 HD
ENDBRANCH  18  19
ENDBRANCH  15  18
ENDBRANCH   7   8
ENDBRANCH   3   7
BRANCH   4  21
HETATM   21  O6  UNL     1      63.260  41.277  36.307  1.00  0.00    -0.388 OA
ATOM     22  H6  UNL     1      63.853  41.378  35.571  1.00  0.00     0.210 HD
ENDBRANCH   4  21
BRANCH   1  23
HETATM   23  C1  UNL     1      60.098  45.570  37.587  1.00  0.00     0.198 C 
BRANCH  23  24
HETATM   24  O1  UNL     1      60.551  46.378  36.528  1.00  0.00    -0.398 OA
ATOM     25  H1  UNL     1      61.284  45.915  36.141  1.00  0.00     0.209 HD
ENDBRANCH  23  24
ENDBRANCH   1  23
BRANCH   5  26
HETATM   26  O7  UNL     1      63.275  43.853  34.972  1.00  0.00    -0.390 OA
ATOM     27  H7  UNL     1      63.229  44.791  34.826  1.00  0.00     0.210 HD
ENDBRANCH   5  26
BRANCH   6  28
HETATM   28  O8  UNL     1      63.288  45.583  37.687  1.00  0.00    -0.390 OA
ATOM     29  H8  UNL     1      63.731  45.047  38.335  1.00  0.00     0.210 HD
ENDBRANCH   6  28
TORSDOF 10
ENDMDL
