MODEL 2
REMARK VINA RESULT: -6.930790921      1.997      5.760
REMARK  10 active torsions:
REMARK  status: ('A' for Active; 'I' for Inactive)
REMARK    1  A    between atoms: O1_1  and  C1_3 
REMARK    2  A    between atoms: C1_3  and  C2_4 
REMARK    3  A    between atoms: C3_6  and  O3_7 
REMARK    4  A    between atoms: O3_7  and  C4_8 
REMARK    5  A    between atoms: C5_9  and  O4_10 
REMARK    6  A    between atoms: C8_17  and  C9_18 
REMARK    7  A    between atoms: C9_18  and  O5_19 
REMARK    8  A    between atoms: C10_21  and  O6_22 
REMARK    9  A    between atoms: C11_24  and  O7_25 
REMARK   10  A    between atoms: C12_27  and  O8_28 
ROOT
HETATM    1  C2  UNL     1      62.671  43.737  37.245  1.00  0.00     0.179 C 
HETATM    2  O2  UNL     1      62.321  44.867  36.555  1.00  0.00    -0.348 OA
HETATM    3  C3  UNL     1      60.947  44.789  36.276  1.00  0.00     0.292 C 
HETATM    4  C10 UNL     1      60.840  43.860  35.112  1.00  0.00     0.204 C 
HETATM    5  C11 UNL     1      61.205  42.481  35.616  1.00  0.00     0.183 C 
HETATM    6  C12 UNL     1      62.241  42.451  36.660  1.00  0.00     0.180 C 
ENDROOT
BRANCH   3   7
HETATM    7  O3  UNL     1      60.367  46.020  36.134  1.00  0.00    -0.350 OA
BRANCH   7   8
HETATM    8  C4  UNL     1      60.670  46.819  37.195  1.00  0.00     0.162 C 
HETATM    9  C5  UNL     1      61.294  48.156  36.729  1.00  0.00     0.173 C 
HETATM   10  C6  UNL     1      61.364  49.012  37.976  1.00  0.00     0.266 C 
HETATM   11  N1  UNL     1      61.417  48.222  39.188  1.00  0.00    -0.072 N 
HETATM   12  C7  UNL     1      60.183  47.519  39.463  1.00  0.00     0.241 C 
ATOM     13  H12 UNL     1      62.206  47.576  39.167  1.00  0.00     0.277 HD
ATOM     14  H11 UNL     1      61.692  48.797  39.984  1.00  0.00     0.277 HD
HETATM   15  C8  UNL     1      59.556  47.220  38.093  1.00  0.00     0.066 C 
BRANCH   9  16
HETATM   16  O4  UNL     1      62.506  47.966  36.123  1.00  0.00    -0.391 OA
ATOM     17  H4  UNL     1      63.227  48.138  36.717  1.00  0.00     0.210 HD
ENDBRANCH   9  16
BRANCH  15  18
HETATM   18  C9  UNL     1      58.406  46.295  38.199  1.00  0.00     0.173 C 
BRANCH  18  19
HETATM   19  O5  UNL     1      57.593  46.478  37.085  1.00  0.00    -0.400 OA
ATOM     20  H5  UNL     1      56.860  45.877  37.148  1.00  0.00     0.209 HD
ENDBRANCH  18  19
ENDBRANCH  15  18
ENDBRANCH   7   8
ENDBRANCH   3   7
BRANCH   4  21
HETATM   21  O6  UNL     1      59.633  43.882  34.461  1.00  0.00    -0.388 OA
ATOM     22  H6  UNL     1      58.946  44.367  34.903  1.00  0.00     0.210 HD
ENDBRANCH   4  21
BRANCH   1  23
HETATM   23  C1  UNL     1      64.169  43.714  37.536  1.00  0.00     0.198 C 
BRANCH  23  24
HETATM   24  O1  UNL     1      64.700  44.864  36.923  1.00  0.00    -0.398 OA
ATOM     25  H1  UNL     1      65.198  44.555  36.176  1.00  0.00     0.209 HD
ENDBRANCH  23  24
ENDBRANCH   1  23
BRANCH   5  26
HETATM   26  O7  UNL     1      61.597  41.746  34.471  1.00  0.00    -0.390 OA
ATOM     27  H7  UNL     1      62.353  41.237  34.738  1.00  0.00     0.210 HD
ENDBRANCH   5  26
BRANCH   6  28
HETATM   28  O8  UNL     1      61.810  41.568  37.679  1.00  0.00    -0.390 OA
ATOM     29  H8  UNL     1      62.558  41.202  38.136  1.00  0.00     0.210 HD
ENDBRANCH   6  28
TORSDOF 10
ENDMDL
