MODEL 4
REMARK VINA RESULT: -6.558660632      2.639      5.641
REMARK  10 active torsions:
REMARK  status: ('A' for Active; 'I' for Inactive)
REMARK    1  A    between atoms: O1_1  and  C1_3 
REMARK    2  A    between atoms: C1_3  and  C2_4 
REMARK    3  A    between atoms: C3_6  and  O3_7 
REMARK    4  A    between atoms: O3_7  and  C4_8 
REMARK    5  A    between atoms: C5_9  and  O4_10 
REMARK    6  A    between atoms: C8_17  and  C9_18 
REMARK    7  A    between atoms: C9_18  and  O5_19 
REMARK    8  A    between atoms: C10_21  and  O6_22 
REMARK    9  A    between atoms: C11_24  and  O7_25 
REMARK   10  A    between atoms: C12_27  and  O8_28 
ROOT
HETATM    1  C2  UNL     1      61.818  43.257  35.930  1.00  0.00     0.179 C 
HETATM    2  O2  UNL     1      61.215  44.149  36.776  1.00  0.00    -0.348 OA
HETATM    3  C3  UNL     1      61.958  44.178  37.967  1.00  0.00     0.292 C 
HETATM    4  C10 UNL     1      61.541  42.954  38.713  1.00  0.00     0.204 C 
HETATM    5  C11 UNL     1      62.089  41.767  37.952  1.00  0.00     0.183 C 
HETATM    6  C12 UNL     1      62.123  41.925  36.489  1.00  0.00     0.180 C 
ENDROOT
BRANCH   3   7
HETATM    7  O3  UNL     1      61.844  45.369  38.631  1.00  0.00    -0.350 OA
BRANCH   7   8
HETATM    8  C4  UNL     1      60.885  46.149  38.057  1.00  0.00     0.162 C 
HETATM    9  C5  UNL     1      59.715  46.407  39.035  1.00  0.00     0.173 C 
HETATM   10  C6  UNL     1      58.856  47.451  38.353  1.00  0.00     0.266 C 
HETATM   11  N1  UNL     1      59.007  47.437  36.913  1.00  0.00    -0.072 N 
HETATM   12  C7  UNL     1      60.308  47.889  36.473  1.00  0.00     0.241 C 
ATOM     13  H12 UNL     1      58.795  46.514  36.535  1.00  0.00     0.277 HD
ATOM     14  H11 UNL     1      58.265  47.976  36.466  1.00  0.00     0.277 HD
HETATM   15  C8  UNL     1      61.287  47.501  37.591  1.00  0.00     0.066 C 
BRANCH   9  16
HETATM   16  O4  UNL     1      59.043  45.253  39.337  1.00  0.00    -0.391 OA
ATOM     17  H4  UNL     1      58.163  45.430  39.650  1.00  0.00     0.210 HD
ENDBRANCH   9  16
BRANCH  15  18
HETATM   18  C9  UNL     1      62.698  47.684  37.182  1.00  0.00     0.173 C 
BRANCH  18  19
HETATM   19  O5  UNL     1      62.716  48.209  35.894  1.00  0.00    -0.400 OA
ATOM     20  H5  UNL     1      62.028  47.789  35.391  1.00  0.00     0.209 HD
ENDBRANCH  18  19
ENDBRANCH  15  18
ENDBRANCH   7   8
ENDBRANCH   3   7
BRANCH   4  21
HETATM   21  O6  UNL     1      61.889  42.936  40.040  1.00  0.00    -0.388 OA
ATOM     22  H6  UNL     1      61.791  42.094  40.470  1.00  0.00     0.210 HD
ENDBRANCH   4  21
BRANCH   1  23
HETATM   23  C1  UNL     1      61.035  43.120  34.627  1.00  0.00     0.198 C 
BRANCH  23  24
HETATM   24  O1  UNL     1      61.198  41.784  34.217  1.00  0.00    -0.398 OA
ATOM     25  H1  UNL     1      60.911  41.752  33.312  1.00  0.00     0.209 HD
ENDBRANCH  23  24
ENDBRANCH   1  23
BRANCH   5  26
HETATM   26  O7  UNL     1      61.294  40.662  38.339  1.00  0.00    -0.390 OA
ATOM     27  H7  UNL     1      60.733  40.475  37.595  1.00  0.00     0.210 HD
ENDBRANCH   5  26
BRANCH   6  28
HETATM   28  O8  UNL     1      63.385  41.477  36.030  1.00  0.00    -0.390 OA
ATOM     29  H8  UNL     1      63.991  41.398  36.758  1.00  0.00     0.210 HD
ENDBRANCH   6  28
TORSDOF 10
ENDMDL
