MODEL 1
REMARK VINA RESULT: -7.522603261      0.000      0.000
REMARK  10 active torsions:
REMARK  status: ('A' for Active; 'I' for Inactive)
REMARK    1  A    between atoms: O1_1  and  C1_3 
REMARK    2  A    between atoms: C1_3  and  C2_4 
REMARK    3  A    between atoms: C3_6  and  O3_7 
REMARK    4  A    between atoms: O3_7  and  C4_8 
REMARK    5  A    between atoms: C5_9  and  O4_10 
REMARK    6  A    between atoms: C8_17  and  C9_18 
REMARK    7  A    between atoms: C9_18  and  O5_19 
REMARK    8  A    between atoms: C10_21  and  O6_22 
REMARK    9  A    between atoms: C11_24  and  O7_25 
REMARK   10  A    between atoms: C12_27  and  O8_28 
ROOT
HETATM    1  C2  UNL     1      59.635  46.618  37.912  1.00  0.00     0.179 C 
HETATM    2  O2  UNL     1      60.085  46.217  36.683  1.00  0.00    -0.348 OA
HETATM    3  C3  UNL     1      61.476  46.410  36.652  1.00  0.00     0.292 C 
HETATM    4  C10 UNL     1      61.658  47.872  36.411  1.00  0.00     0.204 C 
HETATM    5  C11 UNL     1      61.203  48.584  37.667  1.00  0.00     0.183 C 
HETATM    6  C12 UNL     1      60.075  47.952  38.369  1.00  0.00     0.180 C 
ENDROOT
BRANCH   3   7
HETATM    7  O3  UNL     1      62.107  45.562  35.783  1.00  0.00    -0.350 OA
BRANCH   7   8
HETATM    8  C4  UNL     1      61.779  44.267  36.052  1.00  0.00     0.162 C 
HETATM    9  C5  UNL     1      61.252  43.549  34.788  1.00  0.00     0.173 C 
HETATM   10  C6  UNL     1      61.147  42.090  35.180  1.00  0.00     0.266 C 
HETATM   11  N1  UNL     1      60.981  41.911  36.606  1.00  0.00    -0.072 N 
HETATM   12  C7  UNL     1      62.159  42.267  37.366  1.00  0.00     0.241 C 
ATOM     13  H12 UNL     1      60.164  42.419  36.944  1.00  0.00     0.277 HD
ATOM     14  H11 UNL     1      60.686  40.958  36.820  1.00  0.00     0.277 HD
HETATM   15  C8  UNL     1      62.854  43.379  36.566  1.00  0.00     0.066 C 
BRANCH   9  16
HETATM   16  O4  UNL     1      60.072  44.088  34.352  1.00  0.00    -0.391 OA
ATOM     17  H4  UNL     1      60.106  44.310  33.429  1.00  0.00     0.210 HD
ENDBRANCH   9  16
BRANCH  15  18
HETATM   18  C9  UNL     1      63.948  44.015  37.333  1.00  0.00     0.173 C 
BRANCH  18  19
HETATM   19  O5  UNL     1      64.622  44.892  36.490  1.00  0.00    -0.400 OA
ATOM     20  H5  UNL     1      65.514  44.583  36.387  1.00  0.00     0.209 HD
ENDBRANCH  18  19
ENDBRANCH  15  18
ENDBRANCH   7   8
ENDBRANCH   3   7
BRANCH   4  21
HETATM   21  O6  UNL     1      62.920  48.244  36.023  1.00  0.00    -0.388 OA
ATOM     22  H6  UNL     1      63.018  49.162  35.799  1.00  0.00     0.210 HD
ENDBRANCH   4  21
BRANCH   1  23
HETATM   23  C1  UNL     1      58.117  46.497  38.008  1.00  0.00     0.198 C 
BRANCH  23  24
HETATM   24  O1  UNL     1      57.603  47.208  36.908  1.00  0.00    -0.398 OA
ATOM     25  H1  UNL     1      56.810  46.752  36.650  1.00  0.00     0.209 HD
ENDBRANCH  23  24
ENDBRANCH   1  23
BRANCH   5  26
HETATM   26  O7  UNL     1      60.894  49.906  37.267  1.00  0.00    -0.390 OA
ATOM     27  H7  UNL     1      60.415  50.289  37.993  1.00  0.00     0.210 HD
ENDBRANCH   5  26
BRANCH   6  28
HETATM   28  O8  UNL     1      60.381  47.922  39.750  1.00  0.00    -0.390 OA
ATOM     29  H8  UNL     1      60.069  48.713  40.175  1.00  0.00     0.210 HD
ENDBRANCH   6  28
TORSDOF 10
ENDMDL
