MODEL 13
REMARK VINA RESULT: -6.024541853      1.706      1.984
REMARK  10 active torsions:
REMARK  status: ('A' for Active; 'I' for Inactive)
REMARK    1  A    between atoms: O1_1  and  C1_3 
REMARK    2  A    between atoms: C1_3  and  C2_4 
REMARK    3  A    between atoms: C3_6  and  O3_7 
REMARK    4  A    between atoms: O3_7  and  C4_8 
REMARK    5  A    between atoms: C5_9  and  O4_10 
REMARK    6  A    between atoms: C8_17  and  C9_18 
REMARK    7  A    between atoms: C9_18  and  O5_19 
REMARK    8  A    between atoms: C10_21  and  O6_22 
REMARK    9  A    between atoms: C11_24  and  O7_25 
REMARK   10  A    between atoms: C12_27  and  O8_28 
ROOT
HETATM    1  C2  UNL     1      59.727  46.722  37.917  1.00  0.00     0.179 C 
HETATM    2  O2  UNL     1      60.702  46.050  37.228  1.00  0.00    -0.348 OA
HETATM    3  C3  UNL     1      61.939  46.384  37.803  1.00  0.00     0.292 C 
HETATM    4  C10 UNL     1      62.268  47.734  37.256  1.00  0.00     0.204 C 
HETATM    5  C11 UNL     1      61.287  48.708  37.871  1.00  0.00     0.183 C 
HETATM    6  C12 UNL     1      59.938  48.171  38.108  1.00  0.00     0.180 C 
ENDROOT
BRANCH   3   7
HETATM    7  O3  UNL     1      62.881  45.407  37.632  1.00  0.00    -0.350 OA
BRANCH   7   8
HETATM    8  C4  UNL     1      62.288  44.213  37.348  1.00  0.00     0.162 C 
HETATM    9  C5  UNL     1      63.164  43.367  36.394  1.00  0.00     0.173 C 
HETATM   10  C6  UNL     1      62.498  42.007  36.353  1.00  0.00     0.266 C 
HETATM   11  N1  UNL     1      61.086  42.073  36.663  1.00  0.00    -0.072 N 
HETATM   12  C7  UNL     1      60.821  42.414  38.042  1.00  0.00     0.241 C 
ATOM     13  H12 UNL     1      60.605  42.713  36.031  1.00  0.00     0.277 HD
ATOM     14  H11 UNL     1      60.618  41.202  36.408  1.00  0.00     0.277 HD
HETATM   15  C8  UNL     1      61.991  43.306  38.486  1.00  0.00     0.066 C 
BRANCH   9  16
HETATM   16  O4  UNL     1      63.291  43.955  35.165  1.00  0.00    -0.391 OA
ATOM     17  H4  UNL     1      64.191  43.945  34.861  1.00  0.00     0.210 HD
ENDBRANCH   9  16
BRANCH  15  18
HETATM   18  C9  UNL     1      61.744  43.932  39.804  1.00  0.00     0.173 C 
BRANCH  18  19
HETATM   19  O5  UNL     1      61.806  42.941  40.778  1.00  0.00    -0.400 OA
ATOM     20  H5  UNL     1      61.189  43.159  41.467  1.00  0.00     0.209 HD
ENDBRANCH  18  19
ENDBRANCH  15  18
ENDBRANCH   7   8
ENDBRANCH   3   7
BRANCH   4  21
HETATM   21  O6  UNL     1      63.573  48.124  37.421  1.00  0.00    -0.388 OA
ATOM     22  H6  UNL     1      64.219  47.441  37.280  1.00  0.00     0.210 HD
ENDBRANCH   4  21
BRANCH   1  23
HETATM   23  C1  UNL     1      58.350  46.460  37.313  1.00  0.00     0.198 C 
BRANCH  23  24
HETATM   24  O1  UNL     1      57.856  47.717  36.917  1.00  0.00    -0.398 OA
ATOM     25  H1  UNL     1      58.104  47.819  36.006  1.00  0.00     0.209 HD
ENDBRANCH  23  24
ENDBRANCH   1  23
BRANCH   5  26
HETATM   26  O7  UNL     1      61.260  49.824  37.002  1.00  0.00    -0.390 OA
ATOM     27  H7  UNL     1      60.445  50.276  37.189  1.00  0.00     0.210 HD
ENDBRANCH   5  26
BRANCH   6  28
HETATM   28  O8  UNL     1      59.534  48.559  39.407  1.00  0.00    -0.390 OA
ATOM     29  H8  UNL     1      59.596  47.822  40.005  1.00  0.00     0.210 HD
ENDBRANCH   6  28
TORSDOF 10
ENDMDL
