MODEL 9
REMARK VINA RESULT: -6.217437675      3.858      6.711
REMARK  6 active torsions:
REMARK  status: ('A' for Active; 'I' for Inactive)
REMARK    1  A    between atoms: C4_7  and  O2_8 
REMARK    2  A    between atoms: O2_8  and  C5_9 
REMARK    3  A    between atoms: C7_12  and  O4_13 
REMARK    4  A    between atoms: C8_15  and  O5_16 
REMARK    5  A    between atoms: C9_18  and  O6_19 
REMARK    6  A    between atoms: C10_21  and  O7_22 
ROOT
HETATM    1  C5  UNL     1       6.595  13.863  15.239  1.00  0.00     0.291 C 
HETATM    2  O3  UNL     1       5.930  14.597  16.221  1.00  0.00    -0.356 OA
HETATM    3  C6  UNL     1       4.775  13.994  16.665  1.00  0.00     0.205 C 
HETATM    4  C7  UNL     1       4.069  13.232  15.547  1.00  0.00     0.173 C 
HETATM    5  C8  UNL     1       4.940  12.108  15.030  1.00  0.00     0.182 C 
HETATM    6  C9  UNL     1       6.371  12.391  15.507  1.00  0.00     0.204 C 
ENDROOT
BRANCH   1   7
HETATM    7  O2  UNL     1       7.906  14.236  15.219  1.00  0.00    -0.350 OA
BRANCH   7   8
HETATM    8  C4  UNL     1       8.039  15.424  14.511  1.00  0.00     0.164 C 
HETATM    9  C3  UNL     1       9.138  15.239  13.497  1.00  0.00     0.055 C 
HETATM   10  C2  UNL     1       9.521  16.636  12.994  1.00  0.00     0.125 C 
HETATM   11  N1  UNL     1      10.259  17.235  14.117  1.00  0.00    -0.359 N 
HETATM   12  C1  UNL     1       9.671  17.024  15.399  1.00  0.00     0.249 C 
ATOM     13  H1  UNL     1      11.124  17.760  13.989  1.00  0.00     0.162 HD
HETATM   14  O1  UNL     1      10.365  17.197  16.414  1.00  0.00    -0.271 OA
HETATM   15  C10 UNL     1       8.249  16.609  15.418  1.00  0.00     0.238 C 
BRANCH  15  16
HETATM   16  O7  UNL     1       7.499  17.720  15.014  1.00  0.00    -0.384 OA
ATOM     17  H7  UNL     1       7.853  17.999  14.178  1.00  0.00     0.210 HD
ENDBRANCH  15  16
ENDBRANCH   7   8
ENDBRANCH   1   7
BRANCH   6  18
HETATM   18  O6  UNL     1       7.231  11.599  14.766  1.00  0.00    -0.388 OA
ATOM     19  H6  UNL     1       7.500  12.029  13.962  1.00  0.00     0.210 HD
ENDBRANCH   6  18
BRANCH   5  20
HETATM   20  O5  UNL     1       4.505  10.862  15.394  1.00  0.00    -0.390 OA
ATOM     21  H5  UNL     1       5.205  10.271  15.645  1.00  0.00     0.210 HD
ENDBRANCH   5  20
BRANCH   4  22
HETATM   22  O4  UNL     1       3.766  14.156  14.529  1.00  0.00    -0.391 OA
ATOM     23  H4  UNL     1       3.392  13.670  13.803  1.00  0.00     0.210 HD
ENDBRANCH   4  22
TORSDOF 6
ENDMDL
