MODEL 15
REMARK VINA RESULT: -6.081781587      3.861      6.456
REMARK  6 active torsions:
REMARK  status: ('A' for Active; 'I' for Inactive)
REMARK    1  A    between atoms: C4_7  and  O2_8 
REMARK    2  A    between atoms: O2_8  and  C5_9 
REMARK    3  A    between atoms: C7_12  and  O4_13 
REMARK    4  A    between atoms: C8_15  and  O5_16 
REMARK    5  A    between atoms: C9_18  and  O6_19 
REMARK    6  A    between atoms: C10_21  and  O7_22 
ROOT
HETATM    1  C5  UNL     1       6.445  13.852  15.066  1.00  0.00     0.291 C 
HETATM    2  O3  UNL     1       5.716  15.012  14.799  1.00  0.00    -0.356 OA
HETATM    3  C6  UNL     1       4.417  14.956  15.249  1.00  0.00     0.205 C 
HETATM    4  C7  UNL     1       3.841  13.547  15.145  1.00  0.00     0.173 C 
HETATM    5  C8  UNL     1       4.614  12.585  16.020  1.00  0.00     0.182 C 
HETATM    6  C9  UNL     1       5.947  13.263  16.368  1.00  0.00     0.204 C 
ENDROOT
BRANCH   1   7
HETATM    7  O2  UNL     1       7.774  14.152  15.058  1.00  0.00    -0.350 OA
BRANCH   7   8
HETATM    8  C4  UNL     1       7.970  15.376  14.433  1.00  0.00     0.164 C 
HETATM    9  C3  UNL     1       9.115  15.226  13.466  1.00  0.00     0.055 C 
HETATM   10  C2  UNL     1       9.554  16.642  13.070  1.00  0.00     0.125 C 
HETATM   11  N1  UNL     1      10.245  17.152  14.264  1.00  0.00    -0.359 N 
HETATM   12  C1  UNL     1       9.587  16.879  15.499  1.00  0.00     0.249 C 
ATOM     13  H1  UNL     1      11.127  17.663  14.213  1.00  0.00     0.162 HD
HETATM   14  O1  UNL     1      10.232  16.972  16.557  1.00  0.00    -0.271 OA
HETATM   15  C10 UNL     1       8.157  16.499  15.422  1.00  0.00     0.238 C 
BRANCH  15  16
HETATM   16  O7  UNL     1       7.454  17.650  15.049  1.00  0.00    -0.384 OA
ATOM     17  H7  UNL     1       8.083  18.361  15.026  1.00  0.00     0.210 HD
ENDBRANCH  15  16
ENDBRANCH   7   8
ENDBRANCH   1   7
BRANCH   6  18
HETATM   18  O6  UNL     1       6.805  12.291  16.851  1.00  0.00    -0.388 OA
ATOM     19  H6  UNL     1       6.627  12.087  17.762  1.00  0.00     0.210 HD
ENDBRANCH   6  18
BRANCH   5  20
HETATM   20  O5  UNL     1       3.928  12.180  17.133  1.00  0.00    -0.390 OA
ATOM     21  H5  UNL     1       3.931  11.239  17.263  1.00  0.00     0.210 HD
ENDBRANCH   5  20
BRANCH   4  22
HETATM   22  O4  UNL     1       3.895  13.166  13.791  1.00  0.00    -0.391 OA
ATOM     23  H4  UNL     1       3.750  12.228  13.752  1.00  0.00     0.210 HD
ENDBRANCH   4  22
TORSDOF 6
ENDMDL
