MODEL 2
REMARK VINA RESULT: -6.700433726      1.644      2.943
REMARK  6 active torsions:
REMARK  status: ('A' for Active; 'I' for Inactive)
REMARK    1  A    between atoms: C4_7  and  O2_8 
REMARK    2  A    between atoms: O2_8  and  C5_9 
REMARK    3  A    between atoms: C7_12  and  O4_13 
REMARK    4  A    between atoms: C8_15  and  O5_16 
REMARK    5  A    between atoms: C9_18  and  O6_19 
REMARK    6  A    between atoms: C10_21  and  O7_22 
ROOT
HETATM    1  C5  UNL     1       7.145  19.183  13.604  1.00  0.00     0.291 C 
HETATM    2  O3  UNL     1       5.788  19.083  13.913  1.00  0.00    -0.356 OA
HETATM    3  C6  UNL     1       5.075  20.222  13.617  1.00  0.00     0.205 C 
HETATM    4  C7  UNL     1       5.906  21.483  13.835  1.00  0.00     0.173 C 
HETATM    5  C8  UNL     1       7.104  21.503  12.911  1.00  0.00     0.182 C 
HETATM    6  C9  UNL     1       7.296  20.072  12.389  1.00  0.00     0.204 C 
ENDROOT
BRANCH   1   7
HETATM    7  O2  UNL     1       7.658  17.930  13.449  1.00  0.00    -0.350 OA
BRANCH   7   8
HETATM    8  C4  UNL     1       8.001  17.412  14.691  1.00  0.00     0.164 C 
HETATM    9  C3  UNL     1       9.503  17.377  14.781  1.00  0.00     0.055 C 
HETATM   10  C2  UNL     1       9.859  16.477  15.972  1.00  0.00     0.125 C 
HETATM   11  N1  UNL     1       9.564  15.117  15.496  1.00  0.00    -0.359 N 
HETATM   12  C1  UNL     1       8.336  14.984  14.784  1.00  0.00     0.249 C 
ATOM     13  H1  UNL     1      10.191  14.328  15.662  1.00  0.00     0.162 HD
HETATM   14  O1  UNL     1       8.157  13.981  14.075  1.00  0.00    -0.271 OA
HETATM   15  C10 UNL     1       7.349  16.077  14.951  1.00  0.00     0.238 C 
BRANCH  15  16
HETATM   16  O7  UNL     1       6.857  15.979  16.258  1.00  0.00    -0.384 OA
ATOM     17  H7  UNL     1       7.129  16.767  16.713  1.00  0.00     0.210 HD
ENDBRANCH  15  16
ENDBRANCH   7   8
ENDBRANCH   1   7
BRANCH   6  18
HETATM   18  O6  UNL     1       8.565  19.985  11.844  1.00  0.00    -0.388 OA
ATOM     19  H6  UNL     1       8.925  20.843  11.654  1.00  0.00     0.210 HD
ENDBRANCH   6  18
BRANCH   5  20
HETATM   20  O5  UNL     1       7.003  22.420  11.899  1.00  0.00    -0.390 OA
ATOM     21  H5  UNL     1       6.139  22.463  11.507  1.00  0.00     0.210 HD
ENDBRANCH   5  20
BRANCH   4  22
HETATM   22  O4  UNL     1       6.300  21.502  15.186  1.00  0.00    -0.391 OA
ATOM     23  H4  UNL     1       5.941  20.726  15.601  1.00  0.00     0.210 HD
ENDBRANCH   4  22
TORSDOF 6
ENDMDL
