MODEL 3
REMARK VINA RESULT: -6.579806382      2.238      5.802
REMARK  6 active torsions:
REMARK  status: ('A' for Active; 'I' for Inactive)
REMARK    1  A    between atoms: C4_7  and  O2_8 
REMARK    2  A    between atoms: O2_8  and  C5_9 
REMARK    3  A    between atoms: C7_12  and  O4_13 
REMARK    4  A    between atoms: C8_15  and  O5_16 
REMARK    5  A    between atoms: C9_18  and  O6_19 
REMARK    6  A    between atoms: C10_21  and  O7_22 
ROOT
HETATM    1  C5  UNL     1       9.045  17.302  13.932  1.00  0.00     0.291 C 
HETATM    2  O3  UNL     1       7.669  17.079  13.971  1.00  0.00    -0.356 OA
HETATM    3  C6  UNL     1       7.291  16.167  14.930  1.00  0.00     0.205 C 
HETATM    4  C7  UNL     1       8.335  15.070  15.110  1.00  0.00     0.173 C 
HETATM    5  C8  UNL     1       9.645  15.650  15.598  1.00  0.00     0.182 C 
HETATM    6  C9  UNL     1       9.594  17.162  15.335  1.00  0.00     0.204 C 
ENDROOT
BRANCH   1   7
HETATM    7  O2  UNL     1       9.282  18.515  13.356  1.00  0.00    -0.350 OA
BRANCH   7   8
HETATM    8  C4  UNL     1       8.409  18.701  12.292  1.00  0.00     0.164 C 
HETATM    9  C3  UNL     1       9.206  19.212  11.121  1.00  0.00     0.055 C 
HETATM   10  C2  UNL     1       8.200  19.757  10.099  1.00  0.00     0.125 C 
HETATM   11  N1  UNL     1       7.723  21.014  10.698  1.00  0.00    -0.359 N 
HETATM   12  C1  UNL     1       7.426  20.939  12.090  1.00  0.00     0.249 C 
ATOM     13  H1  UNL     1       7.614  21.873  10.158  1.00  0.00     0.162 HD
HETATM   14  O1  UNL     1       7.338  21.991  12.744  1.00  0.00    -0.271 OA
HETATM   15  C10 UNL     1       7.242  19.583  12.659  1.00  0.00     0.238 C 
BRANCH  15  16
HETATM   16  O7  UNL     1       6.033  19.093  12.150  1.00  0.00    -0.384 OA
ATOM     17  H7  UNL     1       5.693  19.758  11.564  1.00  0.00     0.210 HD
ENDBRANCH  15  16
ENDBRANCH   7   8
ENDBRANCH   1   7
BRANCH   6  18
HETATM   18  O6  UNL     1      10.884  17.654  15.432  1.00  0.00    -0.388 OA
ATOM     19  H6  UNL     1      11.249  17.514  16.297  1.00  0.00     0.210 HD
ENDBRANCH   6  18
BRANCH   5  20
HETATM   20  O5  UNL     1       9.924  15.357  16.906  1.00  0.00    -0.390 OA
ATOM     21  H5  UNL     1      10.706  15.784  17.235  1.00  0.00     0.210 HD
ENDBRANCH   5  20
BRANCH   4  22
HETATM   22  O4  UNL     1       8.491  14.424  13.869  1.00  0.00    -0.391 OA
ATOM     23  H4  UNL     1       8.547  13.490  14.037  1.00  0.00     0.210 HD
ENDBRANCH   4  22
TORSDOF 6
ENDMDL
