MODEL 1
REMARK VINA RESULT: -6.926911152      0.000      0.000
REMARK  6 active torsions:
REMARK  status: ('A' for Active; 'I' for Inactive)
REMARK    1  A    between atoms: C4_7  and  O2_8 
REMARK    2  A    between atoms: O2_8  and  C5_9 
REMARK    3  A    between atoms: C7_12  and  O4_13 
REMARK    4  A    between atoms: C8_15  and  O5_16 
REMARK    5  A    between atoms: C9_18  and  O6_19 
REMARK    6  A    between atoms: C10_21  and  O7_22 
ROOT
HETATM    1  C5  UNL     1       7.313  19.476  12.898  1.00  0.00     0.291 C 
HETATM    2  O3  UNL     1       8.300  19.091  11.991  1.00  0.00    -0.356 OA
HETATM    3  C6  UNL     1       8.428  19.951  10.924  1.00  0.00     0.205 C 
HETATM    4  C7  UNL     1       7.085  20.549  10.516  1.00  0.00     0.173 C 
HETATM    5  C8  UNL     1       6.504  21.380  11.639  1.00  0.00     0.182 C 
HETATM    6  C9  UNL     1       7.249  20.988  12.922  1.00  0.00     0.204 C 
ENDROOT
BRANCH   1   7
HETATM    7  O2  UNL     1       7.575  18.906  14.107  1.00  0.00    -0.350 OA
BRANCH   7   8
HETATM    8  C4  UNL     1       8.000  17.597  13.921  1.00  0.00     0.164 C 
HETATM    9  C3  UNL     1       7.178  16.710  14.818  1.00  0.00     0.055 C 
HETATM   10  C2  UNL     1       7.892  15.354  14.882  1.00  0.00     0.125 C 
HETATM   11  N1  UNL     1       9.072  15.606  15.723  1.00  0.00    -0.359 N 
HETATM   12  C1  UNL     1       9.766  16.817  15.433  1.00  0.00     0.249 C 
ATOM     13  H1  UNL     1       9.371  14.965  16.459  1.00  0.00     0.162 HD
HETATM   14  O1  UNL     1      10.555  17.275  16.275  1.00  0.00    -0.271 OA
HETATM   15  C10 UNL     1       9.487  17.446  14.120  1.00  0.00     0.238 C 
BRANCH  15  16
HETATM   16  O7  UNL     1      10.066  16.623  13.147  1.00  0.00    -0.384 OA
ATOM     17  H7  UNL     1      11.007  16.693  13.254  1.00  0.00     0.210 HD
ENDBRANCH  15  16
ENDBRANCH   7   8
ENDBRANCH   1   7
BRANCH   6  18
HETATM   18  O6  UNL     1       6.514  21.451  13.999  1.00  0.00    -0.388 OA
ATOM     19  H6  UNL     1       6.228  22.348  13.870  1.00  0.00     0.210 HD
ENDBRANCH   6  18
BRANCH   5  20
HETATM   20  O5  UNL     1       6.544  22.729  11.404  1.00  0.00    -0.390 OA
ATOM     21  H5  UNL     1       7.145  23.198  11.969  1.00  0.00     0.210 HD
ENDBRANCH   5  20
BRANCH   4  22
HETATM   22  O4  UNL     1       6.232  19.484  10.172  1.00  0.00    -0.391 OA
ATOM     23  H4  UNL     1       5.949  19.621   9.276  1.00  0.00     0.210 HD
ENDBRANCH   4  22
TORSDOF 6
ENDMDL
