MODEL 3
REMARK VINA RESULT: -7.714347375      3.159      6.352
REMARK  5 active torsions:
REMARK  status: ('A' for Active; 'I' for Inactive)
REMARK    1  A    between atoms: N5_13  and  C6_14 
REMARK    2  A    between atoms: C7_16  and  C8_17 
REMARK    3  A    between atoms: C8_17  and  O2_18 
REMARK    4  A    between atoms: C9_20  and  O3_21 
REMARK    5  A    between atoms: C10_23  and  O4_24 
ROOT
HETATM    1  N1  UNL     1       4.190 -78.716-149.987  1.00  0.00    -0.080 NA
HETATM    2  C1  UNL     1       3.731 -78.050-148.829  1.00  0.00     0.148 A 
HETATM    3  N2  UNL     1       3.737 -76.696-148.727  1.00  0.00    -0.339 N 
ATOM      4  H2  UNL     1       4.081 -76.125-149.500  1.00  0.00     0.167 HD
HETATM    5  C2  UNL     1       3.290 -76.110-147.604  1.00  0.00     0.183 A 
HETATM    6  N3  UNL     1       2.839 -76.870-146.590  1.00  0.00    -0.336 N 
ATOM      7  H3  UNL     1       2.502 -76.412-145.743  1.00  0.00     0.168 HD
HETATM    8  C3  UNL     1       2.816 -78.233-146.655  1.00  0.00     0.142 A 
HETATM    9  C4  UNL     1       3.269 -78.832-147.792  1.00  0.00     0.119 A 
HETATM   10  N4  UNL     1       3.142 -80.164-147.604  1.00  0.00    -0.346 N 
ATOM     11  H4  UNL     1       3.398 -80.886-148.276  1.00  0.00     0.167 HD
HETATM   12  C5  UNL     1       2.621 -80.379-146.378  1.00  0.00     0.188 A 
HETATM   13  N5  UNL     1       2.423 -79.188-145.797  1.00  0.00    -0.297 N 
ENDROOT
BRANCH  13  14
HETATM   14  C6  UNL     1       1.889 -78.926-144.498  1.00  0.00     0.262 C 
HETATM   15  O1  UNL     1       2.469 -79.774-143.562  1.00  0.00    -0.353 OA
HETATM   16  C7  UNL     1       1.660 -79.815-142.458  1.00  0.00     0.179 C 
HETATM   17  C9  UNL     1       0.307 -79.271-142.841  1.00  0.00     0.182 C 
HETATM   18  C10 UNL     1       0.429 -79.263-144.371  1.00  0.00     0.198 C 
BRANCH  16  19
HETATM   19  C8  UNL     1       1.457 -81.230-141.946  1.00  0.00     0.198 C 
BRANCH  19  20
HETATM   20  O2  UNL     1       1.438 -81.311-140.573  1.00  0.00    -0.398 OA
ATOM     21  H2  UNL     1       0.685 -80.884-140.184  1.00  0.00     0.209 HD
ENDBRANCH  19  20
ENDBRANCH  16  19
BRANCH  17  22
HETATM   22  O3  UNL     1       0.229 -77.936-142.425  1.00  0.00    -0.390 OA
ATOM     23  H3  UNL     1       0.322 -77.376-143.187  1.00  0.00     0.210 HD
ENDBRANCH  17  22
BRANCH  18  24
HETATM   24  O4  UNL     1      -0.391 -78.296-144.934  1.00  0.00    -0.388 OA
ATOM     25  H4  UNL     1       0.044 -77.457-145.024  1.00  0.00     0.210 HD
ENDBRANCH  18  24
ENDBRANCH  13  14
TORSDOF 5
ENDMDL
