MODEL 7
REMARK VINA RESULT: -5.749261253      7.640      9.953
REMARK  5 active torsions:
REMARK  status: ('A' for Active; 'I' for Inactive)
REMARK    1  A    between atoms: N5_13  and  C6_14 
REMARK    2  A    between atoms: C7_16  and  C8_17 
REMARK    3  A    between atoms: C8_17  and  O2_18 
REMARK    4  A    between atoms: C9_20  and  O3_21 
REMARK    5  A    between atoms: C10_23  and  O4_24 
ROOT
HETATM    1  N1  UNL     1      -0.035 -81.416-140.675  1.00  0.00    -0.080 NA
HETATM    2  C1  UNL     1      -0.517 -82.729-140.474  1.00  0.00     0.148 A 
HETATM    3  N2  UNL     1       0.306 -83.808-140.483  1.00  0.00    -0.339 N 
ATOM      4  H2  UNL     1       1.307 -83.687-140.638  1.00  0.00     0.167 HD
HETATM    5  C2  UNL     1      -0.202 -85.037-140.288  1.00  0.00     0.183 A 
HETATM    6  N3  UNL     1      -1.523 -85.186-140.084  1.00  0.00    -0.336 N 
ATOM      7  H3  UNL     1      -1.895 -86.124-139.936  1.00  0.00     0.168 HD
HETATM    8  C3  UNL     1      -2.383 -84.126-140.068  1.00  0.00     0.142 A 
HETATM    9  C4  UNL     1      -1.872 -82.879-140.266  1.00  0.00     0.119 A 
HETATM   10  N4  UNL     1      -2.914 -82.021-140.204  1.00  0.00    -0.346 N 
ATOM     11  H4  UNL     1      -2.858 -81.009-140.314  1.00  0.00     0.167 HD
HETATM   12  C5  UNL     1      -4.041 -82.726-139.971  1.00  0.00     0.188 A 
HETATM   13  N5  UNL     1      -3.709 -84.021-139.889  1.00  0.00    -0.297 N 
ENDROOT
BRANCH  13  14
HETATM   14  C6  UNL     1      -4.575 -85.133-139.653  1.00  0.00     0.262 C 
HETATM   15  O1  UNL     1      -3.881 -86.153-139.012  1.00  0.00    -0.353 OA
HETATM   16  C7  UNL     1      -4.571 -87.322-139.189  1.00  0.00     0.179 C 
HETATM   17  C9  UNL     1      -5.556 -87.125-140.314  1.00  0.00     0.182 C 
HETATM   18  C10 UNL     1      -5.041 -85.809-140.912  1.00  0.00     0.198 C 
BRANCH  16  19
HETATM   19  C8  UNL     1      -3.662 -88.475-139.574  1.00  0.00     0.198 C 
BRANCH  19  20
HETATM   20  O2  UNL     1      -2.332 -88.129-139.605  1.00  0.00    -0.398 OA
ATOM     21  H2  UNL     1      -1.761 -88.857-139.817  1.00  0.00     0.209 HD
ENDBRANCH  19  20
ENDBRANCH  16  19
BRANCH  17  22
HETATM   22  O3  UNL     1      -6.817 -86.863-139.763  1.00  0.00    -0.390 OA
ATOM     23  H3  UNL     1      -7.478 -87.254-140.322  1.00  0.00     0.210 HD
ENDBRANCH  17  22
BRANCH  18  24
HETATM   24  O4  UNL     1      -6.062 -85.111-141.544  1.00  0.00    -0.388 OA
ATOM     25  H4  UNL     1      -6.288 -84.308-141.090  1.00  0.00     0.210 HD
ENDBRANCH  18  24
ENDBRANCH  13  14
TORSDOF 5
ENDMDL
