MODEL 6
REMARK VINA RESULT: -6.345897617      3.264      5.996
REMARK  5 active torsions:
REMARK  status: ('A' for Active; 'I' for Inactive)
REMARK    1  A    between atoms: N5_13  and  C6_14 
REMARK    2  A    between atoms: C7_16  and  C8_17 
REMARK    3  A    between atoms: C8_17  and  O2_18 
REMARK    4  A    between atoms: C9_20  and  O3_21 
REMARK    5  A    between atoms: C10_23  and  O4_24 
ROOT
HETATM    1  N1  UNL     1       4.533 -78.404-149.774  1.00  0.00    -0.080 NA
HETATM    2  C1  UNL     1       3.803 -78.040-148.620  1.00  0.00     0.148 A 
HETATM    3  N2  UNL     1       3.567 -76.743-148.297  1.00  0.00    -0.339 N 
ATOM      4  H2  UNL     1       3.920 -75.994-148.893  1.00  0.00     0.167 HD
HETATM    5  C2  UNL     1       2.867 -76.448-147.188  1.00  0.00     0.183 A 
HETATM    6  N3  UNL     1       2.406 -77.443-146.408  1.00  0.00    -0.336 N 
ATOM      7  H3  UNL     1       1.876 -77.205-145.570  1.00  0.00     0.168 HD
HETATM    8  C3  UNL     1       2.621 -78.759-146.700  1.00  0.00     0.142 A 
HETATM    9  C4  UNL     1       3.331 -79.062-147.823  1.00  0.00     0.119 A 
HETATM   10  N4  UNL     1       3.403 -80.409-147.882  1.00  0.00    -0.346 N 
ATOM     11  H4  UNL     1       3.872 -80.948-148.609  1.00  0.00     0.167 HD
HETATM   12  C5  UNL     1       2.751 -80.924-146.819  1.00  0.00     0.188 A 
HETATM   13  N5  UNL     1       2.272 -79.903-146.094  1.00  0.00    -0.297 N 
ENDROOT
BRANCH  13  14
HETATM   14  C6  UNL     1       1.517 -79.970-144.883  1.00  0.00     0.262 C 
HETATM   15  O1  UNL     1       0.171 -79.736-145.144  1.00  0.00    -0.353 OA
HETATM   16  C7  UNL     1      -0.439 -79.375-143.974  1.00  0.00     0.179 C 
HETATM   17  C9  UNL     1       0.628 -78.986-142.983  1.00  0.00     0.182 C 
HETATM   18  C10 UNL     1       1.845 -78.872-143.910  1.00  0.00     0.198 C 
BRANCH  16  19
HETATM   19  C8  UNL     1      -1.359 -78.179-144.149  1.00  0.00     0.198 C 
BRANCH  19  20
HETATM   20  O2  UNL     1      -1.014 -77.383-145.215  1.00  0.00    -0.398 OA
ATOM     21  H2  UNL     1      -0.589 -76.574-144.956  1.00  0.00     0.209 HD
ENDBRANCH  19  20
ENDBRANCH  16  19
BRANCH  17  22
HETATM   22  O3  UNL     1       0.860 -80.071-142.128  1.00  0.00    -0.390 OA
ATOM     23  H3  UNL     1       1.633 -79.887-141.609  1.00  0.00     0.210 HD
ENDBRANCH  17  22
BRANCH  18  24
HETATM   24  O4  UNL     1       3.026 -79.109-143.219  1.00  0.00    -0.388 OA
ATOM     25  H4  UNL     1       3.081 -78.613-142.411  1.00  0.00     0.210 HD
ENDBRANCH  18  24
ENDBRANCH  13  14
TORSDOF 5
ENDMDL
