MODEL 16
REMARK VINA RESULT: -7.321975059      1.643      3.598
REMARK  5 active torsions:
REMARK  status: ('A' for Active; 'I' for Inactive)
REMARK    1  A    between atoms: N4_10  and  C5_11 
REMARK    2  A    between atoms: C6_13  and  C7_14 
REMARK    3  A    between atoms: C7_14  and  O2_15 
REMARK    4  A    between atoms: C8_17  and  O3_18 
REMARK    5  A    between atoms: C9_20  and  O4_21 
ROOT
HETATM    1  N1  UNL     1       2.315 -82.577-142.198  1.00  0.00    -0.063 NA
HETATM    2  C1  UNL     1       1.211 -81.737-142.468  1.00  0.00     0.196 A 
HETATM    3  N2  UNL     1       1.246 -80.794-143.426  1.00  0.00    -0.314 N 
ATOM      4  H2  UNL     1       2.103 -80.691-143.970  1.00  0.00     0.170 HD
HETATM    5  C2  UNL     1       0.216 -79.980-143.707  1.00  0.00     0.146 A 
HETATM    6  C3  UNL     1      -0.945 -80.082-143.008  1.00  0.00     0.146 A 
HETATM    7  N3  UNL     1      -1.795 -79.159-143.490  1.00  0.00    -0.345 N 
ATOM      8  H3  UNL     1      -2.749 -78.985-143.171  1.00  0.00     0.167 HD
HETATM    9  C4  UNL     1      -1.145 -78.510-144.472  1.00  0.00     0.188 A 
HETATM   10  N4  UNL     1       0.099 -78.993-144.631  1.00  0.00    -0.297 N 
HETATM   11  C10 UNL     1      -1.013 -81.044-142.013  1.00  0.00     0.278 A 
HETATM   12  O5  UNL     1      -2.086 -81.148-141.359  1.00  0.00    -0.265 OA
HETATM   13  N5  UNL     1       0.044 -81.837-141.767  1.00  0.00    -0.295 N 
ATOM     14  H5  UNL     1      -0.028 -82.539-141.031  1.00  0.00     0.171 HD
ENDROOT
BRANCH  10  15
HETATM   15  C5  UNL     1       1.104 -78.572-145.567  1.00  0.00     0.262 C 
HETATM   16  O1  UNL     1       0.663 -78.580-146.859  1.00  0.00    -0.353 OA
HETATM   17  C6  UNL     1       1.602 -79.146-147.675  1.00  0.00     0.179 C 
HETATM   18  C8  UNL     1       2.905 -79.185-146.902  1.00  0.00     0.182 C 
HETATM   19  C9  UNL     1       2.337 -79.478-145.506  1.00  0.00     0.198 C 
BRANCH  17  20
HETATM   20  C7  UNL     1       1.167 -80.570-148.045  1.00  0.00     0.198 C 
BRANCH  20  21
HETATM   21  O2  UNL     1      -0.221 -80.594-148.168  1.00  0.00    -0.398 OA
ATOM     22  H2  UNL     1      -0.604 -80.377-147.326  1.00  0.00     0.209 HD
ENDBRANCH  20  21
ENDBRANCH  17  20
BRANCH  18  23
HETATM   23  O3  UNL     1       3.457 -77.918-146.918  1.00  0.00    -0.390 OA
ATOM     24  H3  UNL     1       3.248 -77.491-146.096  1.00  0.00     0.210 HD
ENDBRANCH  18  23
BRANCH  19  25
HETATM   25  O4  UNL     1       3.195 -79.094-144.507  1.00  0.00    -0.388 OA
ATOM     26  H4  UNL     1       3.409 -79.820-143.932  1.00  0.00     0.210 HD
ENDBRANCH  19  25
ENDBRANCH  10  15
TORSDOF 5
ENDMDL
