MODEL 9
REMARK VINA RESULT: -7.752598736      2.798      5.474
REMARK  5 active torsions:
REMARK  status: ('A' for Active; 'I' for Inactive)
REMARK    1  A    between atoms: N4_10  and  C5_11 
REMARK    2  A    between atoms: C6_13  and  C7_14 
REMARK    3  A    between atoms: C7_14  and  O2_15 
REMARK    4  A    between atoms: C8_17  and  O3_18 
REMARK    5  A    between atoms: C9_20  and  O4_21 
ROOT
HETATM    1  N1  UNL     1       2.192 -75.497-148.634  1.00  0.00    -0.063 NA
HETATM    2  C1  UNL     1       2.504 -76.865-148.807  1.00  0.00     0.196 A 
HETATM    3  N2  UNL     1       2.097 -77.808-147.940  1.00  0.00    -0.314 N 
ATOM      4  H2  UNL     1       1.545 -77.515-147.134  1.00  0.00     0.170 HD
HETATM    5  C2  UNL     1       2.377 -79.114-148.075  1.00  0.00     0.146 A 
HETATM    6  C3  UNL     1       3.109 -79.550-149.133  1.00  0.00     0.146 A 
HETATM    7  N3  UNL     1       3.237 -80.883-149.022  1.00  0.00    -0.345 N 
ATOM      8  H3  UNL     1       3.734 -81.502-149.662  1.00  0.00     0.167 HD
HETATM    9  C4  UNL     1       2.583 -81.241-147.902  1.00  0.00     0.188 A 
HETATM   10  N4  UNL     1       2.041 -80.173-147.294  1.00  0.00    -0.297 N 
HETATM   11  C10 UNL     1       3.544 -78.602-150.047  1.00  0.00     0.278 A 
HETATM   12  O5  UNL     1       4.223 -78.995-151.033  1.00  0.00    -0.265 OA
HETATM   13  N5  UNL     1       3.240 -77.305-149.870  1.00  0.00    -0.295 N 
ATOM     14  H5  UNL     1       3.569 -76.625-150.555  1.00  0.00     0.171 HD
ENDROOT
BRANCH  10  15
HETATM   15  C5  UNL     1       1.272 -80.134-146.082  1.00  0.00     0.262 C 
HETATM   16  O1  UNL     1      -0.069 -80.272-146.299  1.00  0.00    -0.353 OA
HETATM   17  C6  UNL     1      -0.764 -79.357-145.558  1.00  0.00     0.179 C 
HETATM   18  C8  UNL     1       0.184 -78.820-144.505  1.00  0.00     0.182 C 
HETATM   19  C9  UNL     1       1.474 -78.812-145.336  1.00  0.00     0.198 C 
BRANCH  17  20
HETATM   20  C7  UNL     1      -1.242 -78.218-146.468  1.00  0.00     0.198 C 
BRANCH  20  21
HETATM   21  O2  UNL     1      -1.742 -77.191-145.669  1.00  0.00    -0.398 OA
ATOM     22  H2  UNL     1      -2.354 -76.677-146.184  1.00  0.00     0.209 HD
ENDBRANCH  20  21
ENDBRANCH  17  20
BRANCH  18  23
HETATM   23  O3  UNL     1       0.289 -79.759-143.497  1.00  0.00    -0.390 OA
ATOM     24  H3  UNL     1       1.142 -79.663-143.090  1.00  0.00     0.210 HD
ENDBRANCH  18  23
BRANCH  19  25
HETATM   25  O4  UNL     1       2.597 -78.845-144.548  1.00  0.00    -0.388 OA
ATOM     26  H4  UNL     1       2.575 -78.169-143.880  1.00  0.00     0.210 HD
ENDBRANCH  19  25
ENDBRANCH  10  15
TORSDOF 5
ENDMDL
