MODEL 7
REMARK VINA RESULT: -7.864550884      2.830      5.647
REMARK  5 active torsions:
REMARK  status: ('A' for Active; 'I' for Inactive)
REMARK    1  A    between atoms: N4_10  and  C5_11 
REMARK    2  A    between atoms: C6_13  and  C7_14 
REMARK    3  A    between atoms: C7_14  and  O2_15 
REMARK    4  A    between atoms: C8_17  and  O3_18 
REMARK    5  A    between atoms: C9_20  and  O4_21 
ROOT
HETATM    1  N1  UNL     1       3.807 -76.587-148.203  1.00  0.00    -0.063 NA
HETATM    2  C1  UNL     1       3.243 -77.881-148.146  1.00  0.00     0.196 A 
HETATM    3  N2  UNL     1       1.977 -78.094-147.743  1.00  0.00    -0.314 N 
ATOM      4  H2  UNL     1       1.416 -77.286-147.473  1.00  0.00     0.170 HD
HETATM    5  C2  UNL     1       1.412 -79.309-147.677  1.00  0.00     0.146 A 
HETATM    6  C3  UNL     1       2.122 -80.413-148.029  1.00  0.00     0.146 A 
HETATM    7  N3  UNL     1       1.324 -81.482-147.869  1.00  0.00    -0.345 N 
ATOM      8  H3  UNL     1       1.568 -82.457-148.050  1.00  0.00     0.167 HD
HETATM    9  C4  UNL     1       0.141 -81.019-147.426  1.00  0.00     0.188 A 
HETATM   10  N4  UNL     1       0.163 -79.682-147.297  1.00  0.00    -0.297 N 
HETATM   11  C10 UNL     1       3.431 -80.228-148.448  1.00  0.00     0.278 A 
HETATM   12  O5  UNL     1       4.098 -81.245-148.777  1.00  0.00    -0.265 OA
HETATM   13  N5  UNL     1       3.955 -78.991-148.498  1.00  0.00    -0.295 N 
ATOM     14  H5  UNL     1       4.918 -78.878-148.811  1.00  0.00     0.171 HD
ENDROOT
BRANCH  10  15
HETATM   15  C5  UNL     1      -0.892 -78.814-146.853  1.00  0.00     0.262 C 
HETATM   16  O1  UNL     1      -0.692 -78.337-145.589  1.00  0.00    -0.353 OA
HETATM   17  C6  UNL     1      -1.847 -78.419-144.865  1.00  0.00     0.179 C 
HETATM   18  C8  UNL     1      -2.980 -78.637-145.848  1.00  0.00     0.182 C 
HETATM   19  C9  UNL     1      -2.244 -79.533-146.855  1.00  0.00     0.198 C 
BRANCH  17  20
HETATM   20  C7  UNL     1      -1.759 -79.603-143.893  1.00  0.00     0.198 C 
BRANCH  20  21
HETATM   21  O2  UNL     1      -1.236 -79.149-142.684  1.00  0.00    -0.398 OA
ATOM     22  H2  UNL     1      -1.185 -79.881-142.081  1.00  0.00     0.209 HD
ENDBRANCH  20  21
ENDBRANCH  17  20
BRANCH  18  23
HETATM   23  O3  UNL     1      -3.278 -77.425-146.441  1.00  0.00    -0.390 OA
ATOM     24  H3  UNL     1      -3.433 -76.788-145.754  1.00  0.00     0.210 HD
ENDBRANCH  18  23
BRANCH  19  25
HETATM   25  O4  UNL     1      -2.828 -79.505-148.096  1.00  0.00    -0.388 OA
ATOM     26  H4  UNL     1      -3.361 -78.727-148.213  1.00  0.00     0.210 HD
ENDBRANCH  19  25
ENDBRANCH  10  15
TORSDOF 5
ENDMDL
