MODEL 6
REMARK VINA RESULT: -7.875152163      1.311      3.481
REMARK  5 active torsions:
REMARK  status: ('A' for Active; 'I' for Inactive)
REMARK    1  A    between atoms: N4_10  and  C5_11 
REMARK    2  A    between atoms: C6_13  and  C7_14 
REMARK    3  A    between atoms: C7_14  and  O2_15 
REMARK    4  A    between atoms: C8_17  and  O3_18 
REMARK    5  A    between atoms: C9_20  and  O4_21 
ROOT
HETATM    1  N1  UNL     1       3.236 -82.894-143.316  1.00  0.00    -0.063 NA
HETATM    2  C1  UNL     1       2.235 -81.899-143.384  1.00  0.00     0.196 A 
HETATM    3  N2  UNL     1       2.157 -81.031-144.409  1.00  0.00    -0.314 N 
ATOM      4  H2  UNL     1       2.848 -81.104-145.155  1.00  0.00     0.170 HD
HETATM    5  C2  UNL     1       1.220 -80.075-144.504  1.00  0.00     0.146 A 
HETATM    6  C3  UNL     1       0.278 -79.942-143.533  1.00  0.00     0.146 A 
HETATM    7  N3  UNL     1      -0.524 -78.920-143.877  1.00  0.00    -0.345 N 
ATOM      8  H3  UNL     1      -1.326 -78.572-143.351  1.00  0.00     0.167 HD
HETATM    9  C4  UNL     1      -0.064 -78.445-145.049  1.00  0.00     0.188 A 
HETATM   10  N4  UNL     1       1.011 -79.137-145.463  1.00  0.00    -0.297 N 
HETATM   11  C10 UNL     1       0.332 -80.821-142.463  1.00  0.00     0.278 A 
HETATM   12  O5  UNL     1      -0.537 -80.707-141.557  1.00  0.00    -0.265 OA
HETATM   13  N5  UNL     1       1.289 -81.764-142.410  1.00  0.00    -0.295 N 
ATOM     14  H5  UNL     1       1.308 -82.401-141.614  1.00  0.00     0.171 HD
ENDROOT
BRANCH  10  15
HETATM   15  C5  UNL     1       1.789 -78.943-146.655  1.00  0.00     0.262 C 
HETATM   16  O1  UNL     1       1.204 -79.485-147.764  1.00  0.00    -0.353 OA
HETATM   17  C6  UNL     1       2.132 -80.165-148.502  1.00  0.00     0.179 C 
HETATM   18  C8  UNL     1       3.500 -79.730-148.016  1.00  0.00     0.182 C 
HETATM   19  C9  UNL     1       3.177 -79.575-146.524  1.00  0.00     0.198 C 
BRANCH  17  20
HETATM   20  C7  UNL     1       1.952 -81.673-148.285  1.00  0.00     0.198 C 
BRANCH  20  21
HETATM   21  O2  UNL     1       0.636 -81.913-147.894  1.00  0.00    -0.398 OA
ATOM     22  H2  UNL     1       0.079 -81.245-148.275  1.00  0.00     0.209 HD
ENDBRANCH  20  21
ENDBRANCH  17  20
BRANCH  18  23
HETATM   23  O3  UNL     1       3.778 -78.490-148.559  1.00  0.00    -0.390 OA
ATOM     24  H3  UNL     1       4.297 -78.000-147.933  1.00  0.00     0.210 HD
ENDBRANCH  18  23
BRANCH  19  25
HETATM   25  O4  UNL     1       4.056 -78.733-145.889  1.00  0.00    -0.388 OA
ATOM     26  H4  UNL     1       3.823 -78.609-144.976  1.00  0.00     0.210 HD
ENDBRANCH  19  25
ENDBRANCH  10  15
TORSDOF 5
ENDMDL
