MODEL 4
REMARK VINA RESULT: -8.018117923      2.803      5.640
REMARK  5 active torsions:
REMARK  status: ('A' for Active; 'I' for Inactive)
REMARK    1  A    between atoms: N4_10  and  C5_11 
REMARK    2  A    between atoms: C6_13  and  C7_14 
REMARK    3  A    between atoms: C7_14  and  O2_15 
REMARK    4  A    between atoms: C8_17  and  O3_18 
REMARK    5  A    between atoms: C9_20  and  O4_21 
ROOT
HETATM    1  N1  UNL     1       2.740 -75.184-148.960  1.00  0.00    -0.063 NA
HETATM    2  C1  UNL     1       2.803 -76.596-148.939  1.00  0.00     0.196 A 
HETATM    3  N2  UNL     1       2.356 -77.317-147.896  1.00  0.00    -0.314 N 
ATOM      4  H2  UNL     1       1.960 -76.818-147.099  1.00  0.00     0.170 HD
HETATM    5  C2  UNL     1       2.401 -78.658-147.845  1.00  0.00     0.146 A 
HETATM    6  C3  UNL     1       2.919 -79.364-148.883  1.00  0.00     0.146 A 
HETATM    7  N3  UNL     1       2.842 -80.669-148.571  1.00  0.00    -0.345 N 
ATOM      8  H3  UNL     1       3.150 -81.452-149.148  1.00  0.00     0.167 HD
HETATM    9  C4  UNL     1       2.279 -80.741-147.351  1.00  0.00     0.188 A 
HETATM   10  N4  UNL     1       1.995 -79.518-146.875  1.00  0.00    -0.297 N 
HETATM   11  C10 UNL     1       3.389 -78.649-149.975  1.00  0.00     0.278 A 
HETATM   12  O5  UNL     1       3.871 -79.295-150.944  1.00  0.00    -0.265 OA
HETATM   13  N5  UNL     1       3.323 -77.307-149.982  1.00  0.00    -0.295 N 
ATOM     14  H5  UNL     1       3.673 -76.802-150.795  1.00  0.00     0.171 HD
ENDROOT
BRANCH  10  15
HETATM   15  C5  UNL     1       1.395 -79.169-145.618  1.00  0.00     0.262 C 
HETATM   16  O1  UNL     1       2.211 -79.419-144.552  1.00  0.00    -0.353 OA
HETATM   17  C6  UNL     1       1.508 -80.028-143.551  1.00  0.00     0.179 C 
HETATM   18  C8  UNL     1       0.035 -79.835-143.855  1.00  0.00     0.182 C 
HETATM   19  C9  UNL     1       0.097 -79.948-145.384  1.00  0.00     0.198 C 
BRANCH  17  20
HETATM   20  C7  UNL     1       1.848 -81.524-143.523  1.00  0.00     0.198 C 
BRANCH  20  21
HETATM   21  O2  UNL     1       1.800 -81.967-142.202  1.00  0.00    -0.398 OA
ATOM     22  H2  UNL     1       2.425 -82.674-142.096  1.00  0.00     0.209 HD
ENDBRANCH  20  21
ENDBRANCH  17  20
BRANCH  18  23
HETATM   23  O3  UNL     1      -0.315 -78.546-143.502  1.00  0.00    -0.390 OA
ATOM     24  H3  UNL     1      -0.093 -78.417-142.587  1.00  0.00     0.210 HD
ENDBRANCH  18  23
BRANCH  19  25
HETATM   25  O4  UNL     1      -0.972 -79.340-145.992  1.00  0.00    -0.388 OA
ATOM     26  H4  UNL     1      -1.652 -79.123-145.365  1.00  0.00     0.210 HD
ENDBRANCH  19  25
ENDBRANCH  10  15
TORSDOF 5
ENDMDL
