MODEL 2
REMARK VINA RESULT: -12.692925475      1.302      2.515
REMARK  9 active torsions:
REMARK  status: ('A' for Active; 'I' for Inactive)
REMARK    1  A    between atoms: N1_4  and  C4_5 
REMARK    2  A    between atoms: C6_7  and  O1_8 
REMARK    3  A    between atoms: C7_10  and  C8_11 
REMARK    4  A    between atoms: C8_11  and  O2_12 
REMARK    5  A    between atoms: O2_12  and  P1_13 
REMARK    6  A    between atoms: P1_13  and  O5_16 
REMARK    7  A    between atoms: O5_16  and  P2_17 
REMARK    8  A    between atoms: P2_17  and  O8_20 
REMARK    9  A    between atoms: O8_20  and  P3_21 
ROOT
HETATM    1  C4  UNL     1      35.046  15.316  10.060  1.00  0.00     0.235 C 
HETATM    2  C5  UNL     1      34.313  16.445   9.234  1.00  0.00     0.088 C 
HETATM    3  C6  UNL     1      35.574  17.005   8.560  1.00  0.00     0.153 C 
HETATM    4  C7  UNL     1      36.482  16.941   9.740  1.00  0.00     0.177 C 
HETATM    5  O12 UNL     1      36.083  16.032  10.646  1.00  0.00    -0.356 OA
ENDROOT
BRANCH   4   6
HETATM    6  C8  UNL     1      36.605  18.354  10.358  1.00  0.00     0.216 C 
BRANCH   6   7
HETATM    7  O2  UNL     1      36.821  18.005  11.721  1.00  0.00    -0.287 OA
BRANCH   7   8
HETATM    8  P1  UNL     1      35.770  18.833  12.706  1.00  0.00     0.417 P 
HETATM    9  O3  UNL     1      35.953  18.597  14.152  1.00  0.00    -0.624 OA
HETATM   10  O4  UNL     1      34.195  18.317  12.214  1.00  0.00    -0.624 OA
BRANCH   8  11
HETATM   11  O5  UNL     1      35.834  20.468  12.215  1.00  0.00    -0.180 OA
BRANCH  11  12
HETATM   12  P2  UNL     1      37.229  21.221  12.755  1.00  0.00     0.428 P 
HETATM   13  O6  UNL     1      37.044  21.464  14.261  1.00  0.00    -0.624 OA
HETATM   14  O7  UNL     1      38.571  20.174  12.526  1.00  0.00    -0.624 OA
BRANCH  12  15
HETATM   15  O8  UNL     1      37.493  22.660  11.951  1.00  0.00    -0.173 OA
BRANCH  15  16
HETATM   16  P3  UNL     1      37.406  23.908  13.101  1.00  0.00     0.431 P 
HETATM   17  O9  UNL     1      37.977  25.140  12.433  1.00  0.00    -0.616 OA
HETATM   18  O10 UNL     1      35.784  24.182  13.562  1.00  0.00    -0.616 OA
HETATM   19  O11 UNL     1      38.245  23.493  14.500  1.00  0.00    -0.616 OA
ENDBRANCH  15  16
ENDBRANCH  12  15
ENDBRANCH  11  12
ENDBRANCH   8  11
ENDBRANCH   7   8
ENDBRANCH   6   7
ENDBRANCH   4   6
BRANCH   3  20
HETATM   20  O1  UNL     1      35.941  16.109   7.570  1.00  0.00    -0.393 OA
ATOM     21  H1  UNL     1      36.798  15.771   7.802  1.00  0.00     0.210 HD
ENDBRANCH   3  20
BRANCH   1  22
HETATM   22  N1  UNL     1      34.102  14.586  10.722  1.00  0.00    -0.282 N 
HETATM   23  C3  UNL     1      33.924  14.794  12.030  1.00  0.00     0.110 A 
HETATM   24  C2  UNL     1      33.102  14.080  12.822  1.00  0.00     0.022 A 
HETATM   25  C1  UNL     1      33.008  14.303  14.311  1.00  0.00     0.056 C 
HETATM   26  C10 UNL     1      32.353  13.045  12.251  1.00  0.00     0.256 A 
HETATM   27  N2  UNL     1      32.529  12.840  10.914  1.00  0.00    -0.275 N 
HETATM   28  O14 UNL     1      31.561  12.348  12.931  1.00  0.00    -0.267 OA
HETATM   29  C9  UNL     1      33.380  13.580  10.146  1.00  0.00     0.331 A 
ATOM     30  H2  UNL     1      31.997  12.094  10.465  1.00  0.00     0.173 HD
HETATM   31  O13 UNL     1      33.507  13.344   8.947  1.00  0.00    -0.246 OA
ENDBRANCH   1  22
TORSDOF 9
ENDMDL
