MODEL 7
REMARK VINA RESULT: -11.305282961      2.215      4.189
REMARK  9 active torsions:
REMARK  status: ('A' for Active; 'I' for Inactive)
REMARK    1  A    between atoms: N1_4  and  C4_5 
REMARK    2  A    between atoms: C6_7  and  O1_8 
REMARK    3  A    between atoms: C7_10  and  C8_11 
REMARK    4  A    between atoms: C8_11  and  O2_12 
REMARK    5  A    between atoms: O2_12  and  P1_13 
REMARK    6  A    between atoms: P1_13  and  O5_16 
REMARK    7  A    between atoms: O5_16  and  P2_17 
REMARK    8  A    between atoms: P2_17  and  O8_20 
REMARK    9  A    between atoms: O8_20  and  P3_21 
ROOT
HETATM    1  C4  UNL     1      35.711  18.654  12.307  1.00  0.00     0.235 C 
HETATM    2  C5  UNL     1      37.149  18.241  12.811  1.00  0.00     0.088 C 
HETATM    3  C6  UNL     1      37.314  19.394  13.811  1.00  0.00     0.153 C 
HETATM    4  C7  UNL     1      36.730  20.478  12.971  1.00  0.00     0.177 C 
HETATM    5  O12 UNL     1      35.892  20.005  12.032  1.00  0.00    -0.356 OA
ENDROOT
BRANCH   4   6
HETATM    6  C8  UNL     1      37.878  21.309  12.352  1.00  0.00     0.216 C 
BRANCH   6   7
HETATM    7  O2  UNL     1      37.164  22.492  12.011  1.00  0.00    -0.287 OA
BRANCH   7   8
HETATM    8  P1  UNL     1      37.329  23.635  13.206  1.00  0.00     0.417 P 
HETATM    9  O3  UNL     1      37.952  23.147  14.453  1.00  0.00    -0.624 OA
HETATM   10  O4  UNL     1      35.721  24.187  13.521  1.00  0.00    -0.624 OA
BRANCH   8  11
HETATM   11  O5  UNL     1      38.088  24.983  12.484  1.00  0.00    -0.180 OA
BRANCH  11  12
HETATM   12  P2  UNL     1      39.662  25.171  13.027  1.00  0.00     0.428 P 
HETATM   13  O6  UNL     1      39.572  25.766  14.442  1.00  0.00    -0.624 OA
HETATM   14  O7  UNL     1      40.422  23.634  13.122  1.00  0.00    -0.624 OA
BRANCH  12  15
HETATM   15  O8  UNL     1      40.537  26.171  12.018  1.00  0.00    -0.173 OA
BRANCH  15  16
HETATM   16  P3  UNL     1      39.424  27.043  11.076  1.00  0.00     0.431 P 
HETATM   17  O9  UNL     1      38.311  27.459  12.014  1.00  0.00    -0.616 OA
HETATM   18  O10 UNL     1      40.170  28.420  10.394  1.00  0.00    -0.616 OA
HETATM   19  O11 UNL     1      38.862  26.109   9.793  1.00  0.00    -0.616 OA
ENDBRANCH  15  16
ENDBRANCH  12  15
ENDBRANCH  11  12
ENDBRANCH   8  11
ENDBRANCH   7   8
ENDBRANCH   6   7
ENDBRANCH   4   6
BRANCH   3  20
HETATM   20  O1  UNL     1      36.523  19.101  14.908  1.00  0.00    -0.393 OA
ATOM     21  H1  UNL     1      37.103  18.804  15.600  1.00  0.00     0.210 HD
ENDBRANCH   3  20
BRANCH   1  22
HETATM   22  N1  UNL     1      35.277  17.708  11.424  1.00  0.00    -0.282 N 
HETATM   23  C3  UNL     1      35.663  17.790  10.147  1.00  0.00     0.110 A 
HETATM   24  C2  UNL     1      35.233  16.987   9.155  1.00  0.00     0.022 A 
HETATM   25  C1  UNL     1      35.637  17.183   7.715  1.00  0.00     0.056 C 
HETATM   26  C10 UNL     1      34.324  15.969   9.465  1.00  0.00     0.256 A 
HETATM   27  N2  UNL     1      33.938  15.881  10.769  1.00  0.00    -0.275 N 
HETATM   28  O14 UNL     1      33.892  15.180   8.589  1.00  0.00    -0.267 OA
HETATM   29  C9  UNL     1      34.389  16.722  11.745  1.00  0.00     0.331 A 
ATOM     30  H2  UNL     1      33.276  15.150  11.030  1.00  0.00     0.173 HD
HETATM   31  O13 UNL     1      33.999  16.603  12.904  1.00  0.00    -0.246 OA
ENDBRANCH   1  22
TORSDOF 9
ENDMDL
