MODEL 4
REMARK VINA RESULT: -11.609456793      2.330      3.970
REMARK  9 active torsions:
REMARK  status: ('A' for Active; 'I' for Inactive)
REMARK    1  A    between atoms: N1_4  and  C4_5 
REMARK    2  A    between atoms: C6_7  and  O1_8 
REMARK    3  A    between atoms: C7_10  and  C8_11 
REMARK    4  A    between atoms: C8_11  and  O2_12 
REMARK    5  A    between atoms: O2_12  and  P1_13 
REMARK    6  A    between atoms: P1_13  and  O5_16 
REMARK    7  A    between atoms: O5_16  and  P2_17 
REMARK    8  A    between atoms: P2_17  and  O8_20 
REMARK    9  A    between atoms: O8_20  and  P3_21 
ROOT
HETATM    1  C4  UNL     1      35.659  18.544  11.805  1.00  0.00     0.235 C 
HETATM    2  C5  UNL     1      36.999  18.092  12.508  1.00  0.00     0.088 C 
HETATM    3  C6  UNL     1      36.992  19.178  13.594  1.00  0.00     0.153 C 
HETATM    4  C7  UNL     1      36.544  20.316  12.743  1.00  0.00     0.177 C 
HETATM    5  O12 UNL     1      35.873  19.908  11.652  1.00  0.00    -0.356 OA
ENDROOT
BRANCH   4   6
HETATM    6  C8  UNL     1      37.772  21.181  12.374  1.00  0.00     0.216 C 
BRANCH   6   7
HETATM    7  O2  UNL     1      37.115  22.387  12.000  1.00  0.00    -0.287 OA
BRANCH   7   8
HETATM    8  P1  UNL     1      37.305  23.542  13.180  1.00  0.00     0.417 P 
HETATM    9  O3  UNL     1      37.926  23.059  14.430  1.00  0.00    -0.624 OA
HETATM   10  O4  UNL     1      35.708  24.125  13.497  1.00  0.00    -0.624 OA
BRANCH   8  11
HETATM   11  O5  UNL     1      38.083  24.868  12.438  1.00  0.00    -0.180 OA
BRANCH  11  12
HETATM   12  P2  UNL     1      39.682  24.996  12.921  1.00  0.00     0.428 P 
HETATM   13  O6  UNL     1      39.673  25.683  14.296  1.00  0.00    -0.624 OA
HETATM   14  O7  UNL     1      40.356  23.426  13.092  1.00  0.00    -0.624 OA
BRANCH  12  15
HETATM   15  O8  UNL     1      40.579  25.878  11.823  1.00  0.00    -0.173 OA
BRANCH  15  16
HETATM   16  P3  UNL     1      39.507  26.915  11.008  1.00  0.00     0.431 P 
HETATM   17  O9  UNL     1      40.354  28.024  10.422  1.00  0.00    -0.616 OA
HETATM   18  O10 UNL     1      38.693  26.071   9.764  1.00  0.00    -0.616 OA
HETATM   19  O11 UNL     1      38.325  27.498  12.054  1.00  0.00    -0.616 OA
ENDBRANCH  15  16
ENDBRANCH  12  15
ENDBRANCH  11  12
ENDBRANCH   8  11
ENDBRANCH   7   8
ENDBRANCH   6   7
ENDBRANCH   4   6
BRANCH   3  20
HETATM   20  O1  UNL     1      36.036  18.816  14.527  1.00  0.00    -0.393 OA
ATOM     21  H1  UNL     1      35.804  17.910  14.355  1.00  0.00     0.210 HD
ENDBRANCH   3  20
BRANCH   1  22
HETATM   22  N1  UNL     1      35.380  17.659  10.804  1.00  0.00    -0.282 N 
HETATM   23  C3  UNL     1      34.649  16.576  11.084  1.00  0.00     0.110 A 
HETATM   24  C2  UNL     1      34.384  15.577  10.222  1.00  0.00     0.022 A 
HETATM   25  C1  UNL     1      33.626  14.335  10.620  1.00  0.00     0.056 C 
HETATM   26  C10 UNL     1      34.887  15.665   8.919  1.00  0.00     0.256 A 
HETATM   27  N2  UNL     1      35.626  16.775   8.632  1.00  0.00    -0.275 N 
HETATM   28  O14 UNL     1      34.668  14.773   8.063  1.00  0.00    -0.267 OA
HETATM   29  C9  UNL     1      35.881  17.763   9.539  1.00  0.00     0.331 A 
ATOM     30  H2  UNL     1      36.007  16.872   7.691  1.00  0.00     0.173 HD
HETATM   31  O13 UNL     1      36.563  18.737   9.227  1.00  0.00    -0.246 OA
ENDBRANCH   1  22
TORSDOF 9
ENDMDL
