MODEL 5
REMARK VINA RESULT: -11.378018581      2.338      4.022
REMARK  9 active torsions:
REMARK  status: ('A' for Active; 'I' for Inactive)
REMARK    1  A    between atoms: N1_4  and  C4_5 
REMARK    2  A    between atoms: C6_7  and  O1_8 
REMARK    3  A    between atoms: C7_10  and  C8_11 
REMARK    4  A    between atoms: C8_11  and  O2_12 
REMARK    5  A    between atoms: O2_12  and  P1_13 
REMARK    6  A    between atoms: P1_13  and  O5_16 
REMARK    7  A    between atoms: O5_16  and  P2_17 
REMARK    8  A    between atoms: P2_17  and  O8_20 
REMARK    9  A    between atoms: O8_20  and  P3_21 
ROOT
HETATM    1  C4  UNL     1      35.719  18.607  11.812  1.00  0.00     0.235 C 
HETATM    2  C5  UNL     1      37.086  18.178  12.474  1.00  0.00     0.088 C 
HETATM    3  C6  UNL     1      37.092  19.261  13.563  1.00  0.00     0.153 C 
HETATM    4  C7  UNL     1      36.601  20.393  12.727  1.00  0.00     0.177 C 
HETATM    5  O12 UNL     1      35.905  19.975  11.655  1.00  0.00    -0.356 OA
ENDROOT
BRANCH   4   6
HETATM    6  C8  UNL     1      37.802  21.280  12.325  1.00  0.00     0.216 C 
BRANCH   6   7
HETATM    7  O2  UNL     1      37.116  22.483  11.996  1.00  0.00    -0.287 OA
BRANCH   7   8
HETATM    8  P1  UNL     1      37.300  23.605  13.207  1.00  0.00     0.417 P 
HETATM    9  O3  UNL     1      37.940  23.097  14.437  1.00  0.00    -0.624 OA
HETATM   10  O4  UNL     1      35.697  24.155  13.555  1.00  0.00    -0.624 OA
BRANCH   8  11
HETATM   11  O5  UNL     1      38.050  24.965  12.496  1.00  0.00    -0.180 OA
BRANCH  11  12
HETATM   12  P2  UNL     1      39.624  25.155  13.037  1.00  0.00     0.428 P 
HETATM   13  O6  UNL     1      39.536  25.710  14.467  1.00  0.00    -0.624 OA
HETATM   14  O7  UNL     1      40.401  23.624  13.087  1.00  0.00    -0.624 OA
BRANCH  12  15
HETATM   15  O8  UNL     1      40.484  26.191  12.050  1.00  0.00    -0.173 OA
BRANCH  15  16
HETATM   16  P3  UNL     1      42.077  26.248  12.640  1.00  0.00     0.431 P 
HETATM   17  O9  UNL     1      42.584  27.646  12.354  1.00  0.00    -0.616 OA
HETATM   18  O10 UNL     1      42.101  25.942  14.321  1.00  0.00    -0.616 OA
HETATM   19  O11 UNL     1      43.027  25.063  11.916  1.00  0.00    -0.616 OA
ENDBRANCH  15  16
ENDBRANCH  12  15
ENDBRANCH  11  12
ENDBRANCH   8  11
ENDBRANCH   7   8
ENDBRANCH   6   7
ENDBRANCH   4   6
BRANCH   3  20
HETATM   20  O1  UNL     1      36.169  18.881  14.522  1.00  0.00    -0.393 OA
ATOM     21  H1  UNL     1      35.433  18.492  14.065  1.00  0.00     0.210 HD
ENDBRANCH   3  20
BRANCH   1  22
HETATM   22  N1  UNL     1      35.427  17.719  10.817  1.00  0.00    -0.282 N 
HETATM   23  C3  UNL     1      34.688  16.644  11.107  1.00  0.00     0.110 A 
HETATM   24  C2  UNL     1      34.410  15.642  10.252  1.00  0.00     0.022 A 
HETATM   25  C1  UNL     1      33.644  14.409  10.662  1.00  0.00     0.056 C 
HETATM   26  C10 UNL     1      34.906  15.720   8.945  1.00  0.00     0.256 A 
HETATM   27  N2  UNL     1      35.652  16.822   8.648  1.00  0.00    -0.275 N 
HETATM   28  O14 UNL     1      34.674  14.825   8.096  1.00  0.00    -0.267 OA
HETATM   29  C9  UNL     1      35.921  17.813   9.548  1.00  0.00     0.331 A 
ATOM     30  H2  UNL     1      36.028  16.911   7.704  1.00  0.00     0.173 HD
HETATM   31  O13 UNL     1      36.608  18.779   9.227  1.00  0.00    -0.246 OA
ENDBRANCH   1  22
TORSDOF 9
ENDMDL
