MODEL 3
REMARK VINA RESULT: -6.595111729      3.261      7.652
REMARK  10 active torsions:
REMARK  status: ('A' for Active; 'I' for Inactive)
REMARK    1  A    between atoms: N1_1  and  C1_5 
REMARK    2  A    between atoms: C1_5  and  C2_6 
REMARK    3  A    between atoms: C1_5  and  C10_23 
REMARK    4  A    between atoms: C2_6  and  C3_7 
REMARK    5  A    between atoms: C3_7  and  C4_8 
REMARK       I    between atoms: C4_8  and  N2_10 
REMARK    6  A    between atoms: N2_10  and  C5_12 
REMARK    7  A    between atoms: C5_12  and  C6_13 
REMARK    8  A    between atoms: C5_12  and  C7_15 
REMARK       I    between atoms: C7_15  and  N3_17 
REMARK    9  A    between atoms: N3_17  and  C8_19 
REMARK   10  A    between atoms: C8_19  and  C9_20 
ROOT
HETATM    1  C4  UNL     1      16.036  -6.251  19.848  1.00  0.00     0.218 C 
HETATM    2  O1  UNL     1      16.678  -5.636  18.937  1.00  0.00    -0.274 OA
HETATM    3  N2  UNL     1      15.981  -5.618  21.104  1.00  0.00    -0.347 N 
ATOM      4  H2  UNL     1      15.481  -6.060  21.875  1.00  0.00     0.163 HD
ENDROOT
BRANCH   3   5
HETATM    5  C5  UNL     1      16.648  -4.309  21.307  1.00  0.00     0.186 C 
BRANCH   5   6
HETATM    6  C6  UNL     1      15.710  -3.520  22.239  1.00  0.00     0.120 C 
HETATM    7  S1  UNL     1      15.119  -2.011  21.489  1.00  0.00    -0.095 SA
ENDBRANCH   5   6
BRANCH   5   8
HETATM    8  C7  UNL     1      17.881  -4.583  22.068  1.00  0.00     0.241 C 
HETATM    9  O2  UNL     1      18.922  -4.926  21.421  1.00  0.00    -0.271 OA
HETATM   10  N3  UNL     1      17.921  -4.469  23.480  1.00  0.00    -0.349 N 
ATOM     11  H3  UNL     1      17.093  -4.189  24.007  1.00  0.00     0.163 HD
BRANCH  10  12
HETATM   12  C8  UNL     1      19.170  -4.760  24.153  1.00  0.00     0.235 C 
BRANCH  12  13
HETATM   13  C9  UNL     1      19.045  -6.053  24.860  1.00  0.00     0.191 C 
HETATM   14  O3  UNL     1      18.592  -6.100  26.031  1.00  0.00    -0.647 OA
HETATM   15  O4  UNL     1      19.429  -7.230  24.231  1.00  0.00    -0.647 OA
ENDBRANCH  12  13
ENDBRANCH  10  12
ENDBRANCH   5   8
ENDBRANCH   3   5
BRANCH   1  16
HETATM   16  C3  UNL     1      15.389  -7.567  19.572  1.00  0.00     0.105 C 
BRANCH  16  17
HETATM   17  C2  UNL     1      16.005  -8.122  18.332  1.00  0.00     0.053 C 
BRANCH  17  18
HETATM   18  C1  UNL     1      15.373  -9.405  17.866  1.00  0.00     0.283 C 
BRANCH  18  19
HETATM   19  N1  UNL     1      16.101 -10.573  18.236  1.00  0.00    -0.065 N 
ATOM     20  H13 UNL     1      16.093 -11.256  17.479  1.00  0.00     0.275 HD
ATOM     21  H12 UNL     1      17.101 -10.375  18.277  1.00  0.00     0.275 HD
ATOM     22  H11 UNL     1      15.784 -10.998  19.107  1.00  0.00     0.275 HD
ENDBRANCH  18  19
BRANCH  18  23
HETATM   23  C10 UNL     1      15.196  -9.335  16.394  1.00  0.00     0.204 C 
HETATM   24  O5  UNL     1      15.346  -8.267  15.759  1.00  0.00    -0.646 OA
HETATM   25  O6  UNL     1      14.853 -10.503  15.728  1.00  0.00    -0.646 OA
ENDBRANCH  18  23
ENDBRANCH  17  18
ENDBRANCH  16  17
ENDBRANCH   1  16
TORSDOF 10
ENDMDL
