MODEL 1
REMARK VINA RESULT: -5.849255785      0.000      0.000
REMARK  4 active torsions:
REMARK  status: ('A' for Active; 'I' for Inactive)
REMARK    1  A    between atoms: O1_1  and  C1_3 
REMARK    2  A    between atoms: C3_6  and  O3_7 
REMARK    3  A    between atoms: C4_9  and  O4_10 
REMARK    4  A    between atoms: C5_12  and  O5_13 
ROOT
HETATM    1  C1  UNL     1      49.858  38.790  27.830  1.00  0.00     0.173 C 
HETATM    2  C2  UNL     1      50.300  37.416  28.283  1.00  0.00     0.205 C 
HETATM    3  O2  UNL     1      50.184  36.498  27.227  1.00  0.00    -0.356 OA
HETATM    4  C3  UNL     1      51.194  36.831  26.316  1.00  0.00     0.288 C 
HETATM    5  C4  UNL     1      50.780  38.138  25.673  1.00  0.00     0.204 C 
HETATM    6  C5  UNL     1      50.700  39.262  26.679  1.00  0.00     0.182 C 
ENDROOT
BRANCH   1   7
HETATM    7  O1  UNL     1      49.944  39.639  28.939  1.00  0.00    -0.391 OA
ATOM      8  H1  UNL     1      50.162  40.506  28.614  1.00  0.00     0.210 HD
ENDBRANCH   1   7
BRANCH   6   9
HETATM    9  O5  UNL     1      51.946  39.708  27.078  1.00  0.00    -0.390 OA
ATOM     10  H5  UNL     1      52.071  40.636  26.915  1.00  0.00     0.210 HD
ENDBRANCH   6   9
BRANCH   5  11
HETATM   11  O4  UNL     1      51.641  38.500  24.640  1.00  0.00    -0.388 OA
ATOM     12  H4  UNL     1      51.216  38.445  23.792  1.00  0.00     0.210 HD
ENDBRANCH   5  11
BRANCH   4  13
HETATM   13  O3  UNL     1      51.273  35.867  25.329  1.00  0.00    -0.369 OA
ATOM     14  H3  UNL     1      51.183  35.003  25.712  1.00  0.00     0.212 HD
ENDBRANCH   4  13
TORSDOF 4
ENDMDL
