MODEL 16
REMARK VINA RESULT: -4.951114666      1.269      1.269
REMARK  4 active torsions:
REMARK  status: ('A' for Active; 'I' for Inactive)
REMARK    1  A    between atoms: O1_1  and  C1_3 
REMARK    2  A    between atoms: C3_6  and  O3_7 
REMARK    3  A    between atoms: C4_9  and  O4_10 
REMARK    4  A    between atoms: C5_12  and  O5_13 
ROOT
HETATM    1  C1  UNL     1      50.063  39.107  28.551  1.00  0.00     0.173 C 
HETATM    2  C2  UNL     1      49.347  37.774  28.520  1.00  0.00     0.205 C 
HETATM    3  O2  UNL     1      49.119  37.378  27.192  1.00  0.00    -0.356 OA
HETATM    4  C3  UNL     1      50.373  37.034  26.674  1.00  0.00     0.288 C 
HETATM    5  C4  UNL     1      51.142  38.328  26.513  1.00  0.00     0.204 C 
HETATM    6  C5  UNL     1      51.381  39.013  27.838  1.00  0.00     0.182 C 
ENDROOT
BRANCH   1   7
HETATM    7  O1  UNL     1      50.206  39.468  29.896  1.00  0.00    -0.391 OA
ATOM      8  H1  UNL     1      49.387  39.263  30.331  1.00  0.00     0.210 HD
ENDBRANCH   1   7
BRANCH   6   9
HETATM    9  O5  UNL     1      52.352  38.384  28.594  1.00  0.00    -0.390 OA
ATOM     10  H5  UNL     1      51.989  37.907  29.331  1.00  0.00     0.210 HD
ENDBRANCH   6   9
BRANCH   5  11
HETATM   11  O4  UNL     1      52.360  38.128  25.868  1.00  0.00    -0.388 OA
ATOM     12  H4  UNL     1      52.686  38.929  25.474  1.00  0.00     0.210 HD
ENDBRANCH   5  11
BRANCH   4  13
HETATM   13  O3  UNL     1      50.225  36.458  25.427  1.00  0.00    -0.369 OA
ATOM     14  H3  UNL     1      49.749  35.640  25.502  1.00  0.00     0.212 HD
ENDBRANCH   4  13
TORSDOF 4
ENDMDL
