MODEL 3
REMARK VINA RESULT: -8.197232349      1.807      2.694
REMARK  17 active torsions:
REMARK  status: ('A' for Active; 'I' for Inactive)
REMARK       I    between atoms: C2_2  and  N1_4 
REMARK    1  A    between atoms: N1_4  and  C3_6 
REMARK    2  A    between atoms: C4_7  and  O2_8 
REMARK    3  A    between atoms: O2_8  and  C5_9 
REMARK    4  A    between atoms: C6_10  and  O3_11 
REMARK    5  A    between atoms: C7_13  and  N2_14 
REMARK       I    between atoms: N2_14  and  C8_16 
REMARK    6  A    between atoms: C10_19  and  O5_20 
REMARK    7  A    between atoms: O5_20  and  C11_21 
REMARK    8  A    between atoms: C12_22  and  C13_23 
REMARK    9  A    between atoms: C13_23  and  O6_24 
REMARK   10  A    between atoms: C15_28  and  N3_29 
REMARK   11  A    between atoms: C19_35  and  O8_36 
REMARK   12  A    between atoms: C20_39  and  C21_40 
REMARK   13  A    between atoms: C21_40  and  O10_41 
REMARK   14  A    between atoms: C22_44  and  C23_45 
REMARK   15  A    between atoms: C23_45  and  O12_46 
REMARK   16  A    between atoms: C24_48  and  O13_49 
REMARK   17  A    between atoms: C25_51  and  O14_52 
ROOT
HETATM    1  C5  UNL     1      18.864  39.285 102.533  1.00  0.00     0.186 C 
HETATM    2  C6  UNL     1      19.769  40.444 102.823  1.00  0.00     0.177 C 
HETATM    3  C7  UNL     1      19.245  41.567 101.908  1.00  0.00     0.170 C 
HETATM    4  C10 UNL     1      19.569  41.136 100.508  1.00  0.00     0.286 C 
HETATM    5  O9  UNL     1      19.939  39.804 100.522  1.00  0.00    -0.349 OA
HETATM    6  C20 UNL     1      19.011  38.959 101.075  1.00  0.00     0.180 C 
ENDROOT
BRANCH   1   7
HETATM    7  O2  UNL     1      18.987  38.234 103.399  1.00  0.00    -0.348 OA
BRANCH   7   8
HETATM    8  C4  UNL     1      17.757  37.722 103.853  1.00  0.00     0.286 C 
HETATM    9  C3  UNL     1      17.787  36.247 103.661  1.00  0.00     0.170 C 
HETATM   10  C25 UNL     1      17.172  35.555 104.818  1.00  0.00     0.177 C 
HETATM   11  C24 UNL     1      17.952  35.902 106.070  1.00  0.00     0.180 C 
HETATM   12  C22 UNL     1      18.188  37.385 106.148  1.00  0.00     0.179 C 
HETATM   13  O11 UNL     1      17.626  38.080 105.139  1.00  0.00    -0.349 OA
BRANCH   9  14
HETATM   14  N1  UNL     1      17.257  35.810 102.390  1.00  0.00    -0.349 N 
HETATM   15  C2  UNL     1      17.766  34.732 101.652  1.00  0.00     0.214 C 
HETATM   16  C1  UNL     1      17.124  34.365 100.332  1.00  0.00     0.117 C 
HETATM   17  O1  UNL     1      18.743  34.083 102.085  1.00  0.00    -0.274 OA
ATOM     18  H1  UNL     1      16.462  36.318 102.004  1.00  0.00     0.163 HD
ENDBRANCH   9  14
BRANCH  10  19
HETATM   19  O14 UNL     1      15.857  35.970 104.982  1.00  0.00    -0.391 OA
ATOM     20  H14 UNL     1      15.270  35.224 104.952  1.00  0.00     0.210 HD
ENDBRANCH  10  19
BRANCH  11  21
HETATM   21  O13 UNL     1      17.191  35.510 107.155  1.00  0.00    -0.390 OA
ATOM     22  H13 UNL     1      17.208  34.562 107.219  1.00  0.00     0.210 HD
ENDBRANCH  11  21
BRANCH  12  23
HETATM   23  C23 UNL     1      19.672  37.630 106.164  1.00  0.00     0.198 C 
BRANCH  23  24
HETATM   24  O12 UNL     1      19.979  38.988 106.255  1.00  0.00    -0.398 OA
ATOM     25  H12 UNL     1      20.617  39.166 106.936  1.00  0.00     0.209 HD
ENDBRANCH  23  24
ENDBRANCH  12  23
ENDBRANCH   7   8
ENDBRANCH   1   7
BRANCH   2  26
HETATM   26  O3  UNL     1      21.041  40.130 102.357  1.00  0.00    -0.391 OA
ATOM     27  H3  UNL     1      21.009  40.095 101.407  1.00  0.00     0.210 HD
ENDBRANCH   2  26
BRANCH   6  28
HETATM   28  C21 UNL     1      17.693  39.046 100.354  1.00  0.00     0.198 C 
BRANCH  28  29
HETATM   29  O10 UNL     1      17.742  38.439  99.120  1.00  0.00    -0.398 OA
ATOM     30  H10 UNL     1      17.371  38.989  98.440  1.00  0.00     0.209 HD
ENDBRANCH  28  29
ENDBRANCH   6  28
BRANCH   3  31
HETATM   31  N2  UNL     1      19.764  42.837 102.299  1.00  0.00    -0.349 N 
HETATM   32  C8  UNL     1      18.965  43.784 102.999  1.00  0.00     0.214 C 
HETATM   33  C9  UNL     1      19.542  45.100 103.390  1.00  0.00     0.117 C 
HETATM   34  O4  UNL     1      17.781  43.447 103.255  1.00  0.00    -0.274 OA
ATOM     35  H2  UNL     1      20.730  43.072 102.071  1.00  0.00     0.163 HD
ENDBRANCH   3  31
BRANCH   4  36
HETATM   36  O5  UNL     1      18.643  41.383  99.552  1.00  0.00    -0.351 OA
BRANCH  36  37
HETATM   37  C11 UNL     1      18.983  42.138  98.470  1.00  0.00     0.164 C 
HETATM   38  C12 UNL     1      19.977  41.496  97.540  1.00  0.00     0.073 C 
HETATM   39  C14 UNL     1      20.323  42.678  96.641  1.00  0.00     0.166 C 
HETATM   40  O7  UNL     1      21.679  42.775  96.382  1.00  0.00    -0.314 OA
HETATM   41  C18 UNL     1      20.049  43.918  97.458  1.00  0.00     0.146 C 
HETATM   42  C15 UNL     1      22.160  44.017  96.720  1.00  0.00     0.217 C 
HETATM   43  N4  UNL     1      21.241  44.662  97.326  1.00  0.00    -0.347 N 
ATOM     44  H4  UNL     1      21.355  45.612  97.677  1.00  0.00     0.163 HD
HETATM   45  C19 UNL     1      19.841  43.356  98.873  1.00  0.00     0.173 C 
BRANCH  38  46
HETATM   46  C13 UNL     1      19.409  40.358  96.743  1.00  0.00     0.174 C 
BRANCH  46  47
HETATM   47  O6  UNL     1      19.717  39.179  97.423  1.00  0.00    -0.400 OA
ATOM     48  H6  UNL     1      19.995  38.542  96.775  1.00  0.00     0.209 HD
ENDBRANCH  46  47
ENDBRANCH  38  46
BRANCH  42  49
HETATM   49  N3  UNL     1      23.503  44.518  96.432  1.00  0.00    -0.356 N 
HETATM   50  C16 UNL     1      24.345  43.884  95.441  1.00  0.00     0.152 C 
HETATM   51  C17 UNL     1      24.028  45.668  97.135  1.00  0.00     0.152 C 
ENDBRANCH  42  49
BRANCH  45  52
HETATM   52  O8  UNL     1      19.164  44.221  99.679  1.00  0.00    -0.391 OA
ATOM     53  H8  UNL     1      19.555  44.290 100.542  1.00  0.00     0.210 HD
ENDBRANCH  45  52
ENDBRANCH  36  37
ENDBRANCH   4  36
TORSDOF 17
ENDMDL
