MODEL 1
REMARK VINA RESULT: -8.715427957      0.000      0.000
REMARK  17 active torsions:
REMARK  status: ('A' for Active; 'I' for Inactive)
REMARK       I    between atoms: C2_2  and  N1_4 
REMARK    1  A    between atoms: N1_4  and  C3_6 
REMARK    2  A    between atoms: C4_7  and  O2_8 
REMARK    3  A    between atoms: O2_8  and  C5_9 
REMARK    4  A    between atoms: C6_10  and  O3_11 
REMARK    5  A    between atoms: C7_13  and  N2_14 
REMARK       I    between atoms: N2_14  and  C8_16 
REMARK    6  A    between atoms: C10_19  and  O5_20 
REMARK    7  A    between atoms: O5_20  and  C11_21 
REMARK    8  A    between atoms: C12_22  and  C13_23 
REMARK    9  A    between atoms: C13_23  and  O6_24 
REMARK   10  A    between atoms: C15_28  and  N3_29 
REMARK   11  A    between atoms: C19_35  and  O8_36 
REMARK   12  A    between atoms: C20_39  and  C21_40 
REMARK   13  A    between atoms: C21_40  and  O10_41 
REMARK   14  A    between atoms: C22_44  and  C23_45 
REMARK   15  A    between atoms: C23_45  and  O12_46 
REMARK   16  A    between atoms: C24_48  and  O13_49 
REMARK   17  A    between atoms: C25_51  and  O14_52 
ROOT
HETATM    1  C5  UNL     1      18.708  38.878 103.554  1.00  0.00     0.186 C 
HETATM    2  C6  UNL     1      19.655  40.036 103.665  1.00  0.00     0.177 C 
HETATM    3  C7  UNL     1      19.113  41.062 102.652  1.00  0.00     0.170 C 
HETATM    4  C10 UNL     1      19.355  40.465 101.298  1.00  0.00     0.286 C 
HETATM    5  O9  UNL     1      19.693  39.133 101.448  1.00  0.00    -0.349 OA
HETATM    6  C20 UNL     1      18.774  38.384 102.138  1.00  0.00     0.180 C 
ENDROOT
BRANCH   1   7
HETATM    7  O2  UNL     1      18.850  37.930 104.528  1.00  0.00    -0.348 OA
BRANCH   7   8
HETATM    8  C4  UNL     1      18.447  38.361 105.805  1.00  0.00     0.286 C 
HETATM    9  C3  UNL     1      16.960  38.363 105.831  1.00  0.00     0.170 C 
HETATM   10  C25 UNL     1      16.456  37.849 107.126  1.00  0.00     0.177 C 
HETATM   11  C24 UNL     1      16.947  36.427 107.315  1.00  0.00     0.180 C 
HETATM   12  C22 UNL     1      18.418  36.335 107.015  1.00  0.00     0.179 C 
HETATM   13  O11 UNL     1      18.985  37.516 106.699  1.00  0.00    -0.349 OA
BRANCH   9  14
HETATM   14  N1  UNL     1      16.368  39.626 105.452  1.00  0.00    -0.349 N 
HETATM   15  C2  UNL     1      15.220  39.752 104.659  1.00  0.00     0.214 C 
HETATM   16  C1  UNL     1      14.690  41.131 104.330  1.00  0.00     0.117 C 
HETATM   17  O1  UNL     1      14.641  38.731 104.227  1.00  0.00    -0.274 OA
ATOM     18  H1  UNL     1      16.815  40.480 105.784  1.00  0.00     0.163 HD
ENDBRANCH   9  14
BRANCH  10  19
HETATM   19  O14 UNL     1      16.934  38.628 108.171  1.00  0.00    -0.391 OA
ATOM     20  H14 UNL     1      17.345  38.080 108.829  1.00  0.00     0.210 HD
ENDBRANCH  10  19
BRANCH  11  21
HETATM   21  O13 UNL     1      16.735  36.087 108.637  1.00  0.00    -0.390 OA
ATOM     22  H13 UNL     1      15.835  36.286 108.868  1.00  0.00     0.210 HD
ENDBRANCH  11  21
BRANCH  12  23
HETATM   23  C23 UNL     1      18.613  35.364 105.883  1.00  0.00     0.198 C 
BRANCH  23  24
HETATM   24  O12 UNL     1      18.345  34.049 106.266  1.00  0.00    -0.398 OA
ATOM     25  H12 UNL     1      17.417  33.900 106.408  1.00  0.00     0.209 HD
ENDBRANCH  23  24
ENDBRANCH  12  23
ENDBRANCH   7   8
ENDBRANCH   1   7
BRANCH   2  26
HETATM   26  O3  UNL     1      20.894  39.632 103.178  1.00  0.00    -0.391 OA
ATOM     27  H3  UNL     1      21.498  40.361 103.265  1.00  0.00     0.210 HD
ENDBRANCH   2  26
BRANCH   6  28
HETATM   28  C21 UNL     1      17.424  38.428 101.474  1.00  0.00     0.198 C 
BRANCH  28  29
HETATM   29  O10 UNL     1      17.437  37.818 100.241  1.00  0.00    -0.398 OA
ATOM     30  H10 UNL     1      17.021  38.353  99.576  1.00  0.00     0.209 HD
ENDBRANCH  28  29
ENDBRANCH   6  28
BRANCH   3  31
HETATM   31  N2  UNL     1      19.681  42.352 102.870  1.00  0.00    -0.349 N 
HETATM   32  C8  UNL     1      18.866  43.494 103.110  1.00  0.00     0.214 C 
HETATM   33  C9  UNL     1      19.495  44.825 103.332  1.00  0.00     0.117 C 
HETATM   34  O4  UNL     1      17.622  43.310 103.120  1.00  0.00    -0.274 OA
ATOM     35  H2  UNL     1      20.695  42.459 102.853  1.00  0.00     0.163 HD
ENDBRANCH   3  31
BRANCH   4  36
HETATM   36  O5  UNL     1      18.389  40.630 100.365  1.00  0.00    -0.351 OA
BRANCH  36  37
HETATM   37  C11 UNL     1      18.684  41.273  99.201  1.00  0.00     0.164 C 
HETATM   38  C12 UNL     1      19.885  40.735  98.470  1.00  0.00     0.073 C 
HETATM   39  C14 UNL     1      20.078  41.820  97.415  1.00  0.00     0.166 C 
HETATM   40  O7  UNL     1      21.406  42.173  97.248  1.00  0.00    -0.314 OA
HETATM   41  C18 UNL     1      19.467  43.075  97.991  1.00  0.00     0.146 C 
HETATM   42  C15 UNL     1      21.582  43.527  97.409  1.00  0.00     0.217 C 
HETATM   43  N4  UNL     1      20.490  44.035  97.827  1.00  0.00    -0.347 N 
ATOM     44  H4  UNL     1      20.367  45.028  98.023  1.00  0.00     0.163 HD
HETATM   45  C19 UNL     1      19.224  42.695  99.459  1.00  0.00     0.173 C 
BRANCH  38  46
HETATM   46  C13 UNL     1      19.653  39.396  97.833  1.00  0.00     0.174 C 
BRANCH  46  47
HETATM   47  O6  UNL     1      20.015  38.424  98.766  1.00  0.00    -0.400 OA
ATOM     48  H6  UNL     1      20.907  38.607  99.035  1.00  0.00     0.209 HD
ENDBRANCH  46  47
ENDBRANCH  38  46
BRANCH  42  49
HETATM   49  N3  UNL     1      22.818  44.262  97.145  1.00  0.00    -0.356 N 
HETATM   50  C16 UNL     1      23.268  45.317  98.026  1.00  0.00     0.152 C 
HETATM   51  C17 UNL     1      23.627  43.952  95.987  1.00  0.00     0.152 C 
ENDBRANCH  42  49
BRANCH  45  52
HETATM   52  O8  UNL     1      18.300  43.499 100.055  1.00  0.00    -0.391 OA
ATOM     53  H8  UNL     1      17.575  43.005 100.420  1.00  0.00     0.210 HD
ENDBRANCH  45  52
ENDBRANCH  36  37
ENDBRANCH   4  36
TORSDOF 17
ENDMDL
