MODEL 4
REMARK VINA RESULT: -8.145233451      3.409      6.141
REMARK  17 active torsions:
REMARK  status: ('A' for Active; 'I' for Inactive)
REMARK       I    between atoms: C2_2  and  N1_4 
REMARK    1  A    between atoms: N1_4  and  C3_6 
REMARK    2  A    between atoms: C4_7  and  O2_8 
REMARK    3  A    between atoms: O2_8  and  C5_9 
REMARK    4  A    between atoms: C6_10  and  O3_11 
REMARK    5  A    between atoms: C7_13  and  N2_14 
REMARK       I    between atoms: N2_14  and  C8_16 
REMARK    6  A    between atoms: C10_19  and  O5_20 
REMARK    7  A    between atoms: O5_20  and  C11_21 
REMARK    8  A    between atoms: C12_22  and  C13_23 
REMARK    9  A    between atoms: C13_23  and  O6_24 
REMARK   10  A    between atoms: C15_28  and  N3_29 
REMARK   11  A    between atoms: C19_35  and  O8_36 
REMARK   12  A    between atoms: C20_39  and  C21_40 
REMARK   13  A    between atoms: C21_40  and  O10_41 
REMARK   14  A    between atoms: C22_44  and  C23_45 
REMARK   15  A    between atoms: C23_45  and  O12_46 
REMARK   16  A    between atoms: C24_48  and  O13_49 
REMARK   17  A    between atoms: C25_51  and  O14_52 
ROOT
HETATM    1  C5  UNL     1      18.058  37.701 102.150  1.00  0.00     0.186 C 
HETATM    2  C6  UNL     1      17.638  38.324 100.853  1.00  0.00     0.177 C 
HETATM    3  C7  UNL     1      18.142  39.776 100.954  1.00  0.00     0.170 C 
HETATM    4  C10 UNL     1      17.301  40.427 102.011  1.00  0.00     0.286 C 
HETATM    5  O9  UNL     1      16.604  39.450 102.696  1.00  0.00    -0.349 OA
HETATM    6  C20 UNL     1      17.389  38.471 103.251  1.00  0.00     0.180 C 
ENDROOT
BRANCH   1   7
HETATM    7  O2  UNL     1      17.923  36.342 102.200  1.00  0.00    -0.348 OA
BRANCH   7   8
HETATM    8  C4  UNL     1      17.094  35.814 101.193  1.00  0.00     0.286 C 
HETATM    9  C3  UNL     1      17.763  34.600 100.651  1.00  0.00     0.170 C 
HETATM   10  C25 UNL     1      16.776  33.523 100.404  1.00  0.00     0.177 C 
HETATM   11  C24 UNL     1      16.099  33.166 101.712  1.00  0.00     0.180 C 
HETATM   12  C22 UNL     1      15.657  34.411 102.432  1.00  0.00     0.179 C 
HETATM   13  O11 UNL     1      15.904  35.549 101.754  1.00  0.00    -0.349 OA
BRANCH   9  14
HETATM   14  N1  UNL     1      18.618  34.859  99.515  1.00  0.00    -0.349 N 
HETATM   15  C2  UNL     1      19.797  34.155  99.239  1.00  0.00     0.214 C 
HETATM   16  C1  UNL     1      20.610  34.514  98.015  1.00  0.00     0.117 C 
HETATM   17  O1  UNL     1      20.171  33.237 100.001  1.00  0.00    -0.274 OA
ATOM     18  H1  UNL     1      18.345  35.603  98.873  1.00  0.00     0.163 HD
ENDBRANCH   9  14
BRANCH  10  19
HETATM   19  O14 UNL     1      15.809  33.955  99.505  1.00  0.00    -0.391 OA
ATOM     20  H14 UNL     1      15.035  34.250  99.971  1.00  0.00     0.210 HD
ENDBRANCH  10  19
BRANCH  11  21
HETATM   21  O13 UNL     1      14.988  32.402 101.411  1.00  0.00    -0.390 OA
ATOM     22  H13 UNL     1      14.870  32.388 100.468  1.00  0.00     0.210 HD
ENDBRANCH  11  21
BRANCH  12  23
HETATM   23  C23 UNL     1      16.349  34.460 103.767  1.00  0.00     0.198 C 
BRANCH  23  24
HETATM   24  O12 UNL     1      15.948  35.559 104.526  1.00  0.00    -0.398 OA
ATOM     25  H12 UNL     1      15.121  35.919 104.226  1.00  0.00     0.209 HD
ENDBRANCH  23  24
ENDBRANCH  12  23
ENDBRANCH   7   8
ENDBRANCH   1   7
BRANCH   2  26
HETATM   26  O3  UNL     1      16.249  38.399 100.837  1.00  0.00    -0.391 OA
ATOM     27  H3  UNL     1      15.983  38.804 100.019  1.00  0.00     0.210 HD
ENDBRANCH   2  26
BRANCH   6  28
HETATM   28  C21 UNL     1      18.394  39.053 104.208  1.00  0.00     0.198 C 
BRANCH  28  29
HETATM   29  O10 UNL     1      17.791  39.582 105.327  1.00  0.00    -0.398 OA
ATOM     30  H10 UNL     1      18.101  39.169 106.125  1.00  0.00     0.209 HD
ENDBRANCH  28  29
ENDBRANCH   6  28
BRANCH   3  31
HETATM   31  N2  UNL     1      18.136  40.415  99.678  1.00  0.00    -0.349 N 
HETATM   32  C8  UNL     1      19.326  40.557  98.911  1.00  0.00     0.214 C 
HETATM   33  C9  UNL     1      19.280  41.230  97.583  1.00  0.00     0.117 C 
HETATM   34  O4  UNL     1      20.381  40.092  99.411  1.00  0.00    -0.274 OA
ATOM     35  H2  UNL     1      17.258  40.778  99.307  1.00  0.00     0.163 HD
ENDBRANCH   3  31
BRANCH   4  36
HETATM   36  O5  UNL     1      17.920  41.281 102.859  1.00  0.00    -0.351 OA
BRANCH  36  37
HETATM   37  C11 UNL     1      18.355  42.487 102.396  1.00  0.00     0.164 C 
HETATM   38  C12 UNL     1      19.427  43.133 103.233  1.00  0.00     0.073 C 
HETATM   39  C14 UNL     1      19.467  44.524 102.608  1.00  0.00     0.166 C 
HETATM   40  O7  UNL     1      19.546  45.533 103.552  1.00  0.00    -0.314 OA
HETATM   41  C18 UNL     1      18.105  44.745 101.994  1.00  0.00     0.146 C 
HETATM   42  C15 UNL     1      18.532  46.446 103.387  1.00  0.00     0.217 C 
HETATM   43  N4  UNL     1      17.720  46.002 102.509  1.00  0.00    -0.347 N 
ATOM     44  H4  UNL     1      16.883  46.502 102.210  1.00  0.00     0.163 HD
HETATM   45  C19 UNL     1      17.280  43.581 102.563  1.00  0.00     0.173 C 
BRANCH  38  46
HETATM   46  C13 UNL     1      20.762  42.455 103.131  1.00  0.00     0.174 C 
BRANCH  46  47
HETATM   47  O6  UNL     1      20.728  41.636 102.003  1.00  0.00    -0.400 OA
ATOM     48  H6  UNL     1      19.859  41.256 101.954  1.00  0.00     0.209 HD
ENDBRANCH  46  47
ENDBRANCH  38  46
BRANCH  42  49
HETATM   49  N3  UNL     1      18.405  47.716 104.100  1.00  0.00    -0.356 N 
HETATM   50  C16 UNL     1      19.569  48.490 104.472  1.00  0.00     0.152 C 
HETATM   51  C17 UNL     1      17.102  48.235 104.455  1.00  0.00     0.152 C 
ENDBRANCH  42  49
BRANCH  45  52
HETATM   52  O8  UNL     1      16.165  43.327 101.823  1.00  0.00    -0.391 OA
ATOM     53  H8  UNL     1      15.661  44.113 101.651  1.00  0.00     0.210 HD
ENDBRANCH  45  52
ENDBRANCH  36  37
ENDBRANCH   4  36
TORSDOF 17
ENDMDL
