MODEL 1
REMARK VINA RESULT: -8.932377074      0.000      0.000
REMARK  1 active torsions:
REMARK  status: ('A' for Active; 'I' for Inactive)
REMARK    1  A    between atoms: C11_11  and  O1_12 
ROOT
HETATM    1  C1  UNL     1      11.681 -47.770 -13.785  1.00  0.00     0.024 C 
HETATM    2  C2  UNL     1      13.043 -48.369 -13.693  1.00  0.00     0.025 C 
HETATM    3  C3  UNL     1      13.872 -47.586 -12.711  1.00  0.00     0.022 C 
HETATM    4  C4  UNL     1      13.941 -46.141 -13.106  1.00  0.00     0.041 C 
HETATM    5  C5  UNL     1      13.776 -45.900 -14.546  1.00  0.00    -0.040 A 
HETATM    6  C6  UNL     1      13.706 -46.911 -15.486  1.00  0.00    -0.046 A 
HETATM    7  C7  UNL     1      13.547 -46.562 -16.816  1.00  0.00     0.009 A 
HETATM    8  C8  UNL     1      13.460 -45.247 -17.212  1.00  0.00     0.013 A 
HETATM    9  C9  UNL     1      13.530 -44.227 -16.279  1.00  0.00    -0.023 A 
HETATM   10  C10 UNL     1      13.439 -42.905 -16.710  1.00  0.00     0.048 A 
HETATM   11  C11 UNL     1      13.507 -41.891 -15.800  1.00  0.00     0.066 A 
HETATM   12  C12 UNL     1      13.664 -42.188 -14.465  1.00  0.00     0.037 A 
HETATM   13  C13 UNL     1      13.754 -43.518 -14.044  1.00  0.00     0.015 A 
HETATM   14  C14 UNL     1      13.688 -44.559 -14.946  1.00  0.00    -0.019 A 
HETATM   15  C15 UNL     1      13.804 -48.281 -15.021  1.00  0.00     0.035 C 
HETATM   16  C16 UNL     1      13.138 -49.324 -15.824  1.00  0.00     0.018 C 
HETATM   17  C17 UNL     1      13.043 -50.463 -14.825  1.00  0.00     0.080 C 
HETATM   18  C18 UNL     1      13.028 -49.810 -13.468  1.00  0.00     0.136 C 
HETATM   19  O2  UNL     1      13.010 -50.443 -12.439  1.00  0.00    -0.297 OA
ENDROOT
BRANCH  11  20
HETATM   20  O1  UNL     1      13.417 -40.570 -16.228  1.00  0.00    -0.361 OA
ATOM     21  H1  UNL     1      13.976 -39.907 -15.839  1.00  0.00     0.217 HD
ENDBRANCH  11  20
TORSDOF 1
ENDMDL
