MODEL 8
REMARK VINA RESULT: -7.970159030      1.387      6.445
REMARK  1 active torsions:
REMARK  status: ('A' for Active; 'I' for Inactive)
REMARK    1  A    between atoms: C11_11  and  O1_12 
ROOT
HETATM    1  C1  UNL     1      11.890 -43.148 -14.202  1.00  0.00     0.024 C 
HETATM    2  C2  UNL     1      13.109 -43.153 -15.060  1.00  0.00     0.025 C 
HETATM    3  C3  UNL     1      12.915 -44.108 -16.207  1.00  0.00     0.022 C 
HETATM    4  C4  UNL     1      12.601 -45.486 -15.704  1.00  0.00     0.041 C 
HETATM    5  C5  UNL     1      13.132 -45.775 -14.365  1.00  0.00    -0.040 A 
HETATM    6  C6  UNL     1      13.969 -44.919 -13.674  1.00  0.00    -0.046 A 
HETATM    7  C7  UNL     1      14.405 -45.298 -12.416  1.00  0.00     0.009 A 
HETATM    8  C8  UNL     1      14.024 -46.495 -11.851  1.00  0.00     0.013 A 
HETATM    9  C9  UNL     1      13.188 -47.360 -12.535  1.00  0.00    -0.023 A 
HETATM   10  C10 UNL     1      12.821 -48.564 -11.938  1.00  0.00     0.048 A 
HETATM   11  C11 UNL     1      11.997 -49.425 -12.601  1.00  0.00     0.066 A 
HETATM   12  C12 UNL     1      11.537 -49.091 -13.855  1.00  0.00     0.037 A 
HETATM   13  C13 UNL     1      11.912 -47.880 -14.445  1.00  0.00     0.015 A 
HETATM   14  C14 UNL     1      12.744 -46.995 -13.793  1.00  0.00    -0.019 A 
HETATM   15  C15 UNL     1      14.342 -43.671 -14.311  1.00  0.00     0.035 C 
HETATM   16  C16 UNL     1      14.670 -42.529 -13.436  1.00  0.00     0.018 C 
HETATM   17  C17 UNL     1      14.528 -41.361 -14.394  1.00  0.00     0.080 C 
HETATM   18  C18 UNL     1      13.551 -41.817 -15.445  1.00  0.00     0.136 C 
HETATM   19  O2  UNL     1      13.250 -41.136 -16.398  1.00  0.00    -0.297 OA
ENDROOT
BRANCH  11  20
HETATM   20  O1  UNL     1      11.629 -50.628 -12.007  1.00  0.00    -0.361 OA
ATOM     21  H1  UNL     1      12.244 -51.352 -11.984  1.00  0.00     0.217 HD
ENDBRANCH  11  20
TORSDOF 1
ENDMDL
