MODEL 3
REMARK VINA RESULT: -8.207715031      1.614      5.941
REMARK  1 active torsions:
REMARK  status: ('A' for Active; 'I' for Inactive)
REMARK    1  A    between atoms: C11_11  and  O1_12 
ROOT
HETATM    1  C1  UNL     1      14.564 -42.957 -14.797  1.00  0.00     0.024 C 
HETATM    2  C2  UNL     1      13.202 -43.079 -15.389  1.00  0.00     0.025 C 
HETATM    3  C3  UNL     1      12.178 -43.145 -14.289  1.00  0.00     0.022 C 
HETATM    4  C4  UNL     1      12.469 -44.286 -13.359  1.00  0.00     0.041 C 
HETATM    5  C5  UNL     1      13.206 -45.396 -13.978  1.00  0.00    -0.040 A 
HETATM    6  C6  UNL     1      13.489 -45.466 -15.329  1.00  0.00    -0.046 A 
HETATM    7  C7  UNL     1      14.193 -46.561 -15.798  1.00  0.00     0.009 A 
HETATM    8  C8  UNL     1      14.608 -47.567 -14.955  1.00  0.00     0.013 A 
HETATM    9  C9  UNL     1      14.330 -47.508 -13.601  1.00  0.00    -0.023 A 
HETATM   10  C10 UNL     1      14.763 -48.541 -12.772  1.00  0.00     0.048 A 
HETATM   11  C11 UNL     1      14.494 -48.494 -11.435  1.00  0.00     0.066 A 
HETATM   12  C12 UNL     1      13.797 -47.423 -10.922  1.00  0.00     0.037 A 
HETATM   13  C13 UNL     1      13.367 -46.393 -11.762  1.00  0.00     0.015 A 
HETATM   14  C14 UNL     1      13.627 -46.419 -13.117  1.00  0.00    -0.019 A 
HETATM   15  C15 UNL     1      13.028 -44.383 -16.177  1.00  0.00     0.035 C 
HETATM   16  C16 UNL     1      13.799 -44.103 -17.404  1.00  0.00     0.018 C 
HETATM   17  C17 UNL     1      13.343 -42.693 -17.734  1.00  0.00     0.080 C 
HETATM   18  C18 UNL     1      12.927 -42.085 -16.421  1.00  0.00     0.136 C 
HETATM   19  O2  UNL     1      12.461 -40.973 -16.334  1.00  0.00    -0.297 OA
ENDROOT
BRANCH  11  20
HETATM   20  O1  UNL     1      14.926 -49.524 -10.606  1.00  0.00    -0.361 OA
ATOM     21  H1  UNL     1      14.299 -49.988 -10.063  1.00  0.00     0.217 HD
ENDBRANCH  11  20
TORSDOF 1
ENDMDL
