MODEL 11
REMARK VINA RESULT: -7.443828005      1.242      1.506
REMARK  1 active torsions:
REMARK  status: ('A' for Active; 'I' for Inactive)
REMARK    1  A    between atoms: C11_11  and  O1_12 
ROOT
HETATM    1  C1  UNL     1      11.210 -48.767 -13.128  1.00  0.00     0.024 C 
HETATM    2  C2  UNL     1      12.565 -49.383 -13.207  1.00  0.00     0.025 C 
HETATM    3  C3  UNL     1      13.436 -48.828 -12.112  1.00  0.00     0.022 C 
HETATM    4  C4  UNL     1      13.513 -47.332 -12.201  1.00  0.00     0.041 C 
HETATM    5  C5  UNL     1      13.309 -46.797 -13.554  1.00  0.00    -0.040 A 
HETATM    6  C6  UNL     1      13.195 -47.590 -14.680  1.00  0.00    -0.046 A 
HETATM    7  C7  UNL     1      13.001 -46.972 -15.903  1.00  0.00     0.009 A 
HETATM    8  C8  UNL     1      12.922 -45.602 -16.015  1.00  0.00     0.013 A 
HETATM    9  C9  UNL     1      13.035 -44.799 -14.894  1.00  0.00    -0.023 A 
HETATM   10  C10 UNL     1      12.951 -43.415 -15.039  1.00  0.00     0.048 A 
HETATM   11  C11 UNL     1      13.061 -42.612 -13.942  1.00  0.00     0.066 A 
HETATM   12  C12 UNL     1      13.254 -43.182 -12.703  1.00  0.00     0.037 A 
HETATM   13  C13 UNL     1      13.338 -44.571 -12.569  1.00  0.00     0.015 A 
HETATM   14  C14 UNL     1      13.229 -45.402 -13.665  1.00  0.00    -0.019 A 
HETATM   15  C15 UNL     1      13.287 -49.028 -14.512  1.00  0.00     0.035 C 
HETATM   16  C16 UNL     1      12.581 -49.876 -15.491  1.00  0.00     0.018 C 
HETATM   17  C17 UNL     1      12.500 -51.197 -14.748  1.00  0.00     0.080 C 
HETATM   18  C18 UNL     1      12.536 -50.839 -13.285  1.00  0.00     0.136 C 
HETATM   19  O2  UNL     1      12.539 -51.672 -12.409  1.00  0.00    -0.297 OA
ENDROOT
BRANCH  11  20
HETATM   20  O1  UNL     1      12.977 -41.231 -14.083  1.00  0.00    -0.361 OA
ATOM     21  H1  UNL     1      13.425 -40.664 -13.465  1.00  0.00     0.217 HD
ENDBRANCH  11  20
TORSDOF 1
ENDMDL
