MODEL 5
REMARK VINA RESULT: -8.156769961      1.439      1.694
REMARK  1 active torsions:
REMARK  status: ('A' for Active; 'I' for Inactive)
REMARK    1  A    between atoms: C11_11  and  O1_12 
ROOT
HETATM    1  C1  UNL     1      10.996 -48.226 -15.299  1.00  0.00     0.024 C 
HETATM    2  C2  UNL     1      11.850 -48.992 -14.347  1.00  0.00     0.025 C 
HETATM    3  C3  UNL     1      11.639 -48.473 -12.950  1.00  0.00     0.022 C 
HETATM    4  C4  UNL     1      11.932 -47.004 -12.879  1.00  0.00     0.041 C 
HETATM    5  C5  UNL     1      12.892 -46.530 -13.886  1.00  0.00    -0.040 A 
HETATM    6  C6  UNL     1      13.582 -47.371 -14.738  1.00  0.00    -0.046 A 
HETATM    7  C7  UNL     1      14.460 -46.809 -15.648  1.00  0.00     0.009 A 
HETATM    8  C8  UNL     1      14.655 -45.448 -15.718  1.00  0.00     0.013 A 
HETATM    9  C9  UNL     1      13.969 -44.597 -14.869  1.00  0.00    -0.023 A 
HETATM   10  C10 UNL     1      14.188 -43.224 -14.962  1.00  0.00     0.048 A 
HETATM   11  C11 UNL     1      13.518 -42.374 -14.130  1.00  0.00     0.066 A 
HETATM   12  C12 UNL     1      12.634 -42.887 -13.208  1.00  0.00     0.037 A 
HETATM   13  C13 UNL     1      12.423 -44.266 -13.123  1.00  0.00     0.015 A 
HETATM   14  C14 UNL     1      13.088 -45.144 -13.953  1.00  0.00    -0.019 A 
HETATM   15  C15 UNL     1      13.345 -48.798 -14.626  1.00  0.00     0.035 C 
HETATM   16  C16 UNL     1      13.539 -49.619 -15.836  1.00  0.00     0.018 C 
HETATM   17  C17 UNL     1      12.767 -50.876 -15.478  1.00  0.00     0.080 C 
HETATM   18  C18 UNL     1      11.721 -50.438 -14.488  1.00  0.00     0.136 C 
HETATM   19  O2  UNL     1      10.959 -51.213 -13.957  1.00  0.00    -0.297 OA
ENDROOT
BRANCH  11  20
HETATM   20  O1  UNL     1      13.734 -41.003 -14.221  1.00  0.00    -0.361 OA
ATOM     21  H1  UNL     1      13.218 -40.483 -14.826  1.00  0.00     0.217 HD
ENDBRANCH  11  20
TORSDOF 1
ENDMDL
