MODEL 4
REMARK VINA RESULT: -8.173527668      1.306      6.054
REMARK  1 active torsions:
REMARK  status: ('A' for Active; 'I' for Inactive)
REMARK    1  A    between atoms: C11_11  and  O1_12 
ROOT
HETATM    1  C1  UNL     1      14.515 -44.127 -13.591  1.00  0.00     0.024 C 
HETATM    2  C2  UNL     1      13.185 -43.554 -13.944  1.00  0.00     0.025 C 
HETATM    3  C3  UNL     1      12.190 -43.886 -12.865  1.00  0.00     0.022 C 
HETATM    4  C4  UNL     1      12.104 -45.369 -12.658  1.00  0.00     0.041 C 
HETATM    5  C5  UNL     1      12.452 -46.164 -13.844  1.00  0.00    -0.040 A 
HETATM    6  C6  UNL     1      12.701 -45.614 -15.086  1.00  0.00    -0.046 A 
HETATM    7  C7  UNL     1      13.023 -46.465 -16.130  1.00  0.00     0.009 A 
HETATM    8  C8  UNL     1      13.098 -47.828 -15.953  1.00  0.00     0.013 A 
HETATM    9  C9  UNL     1      12.849 -48.389 -14.713  1.00  0.00    -0.023 A 
HETATM   10  C10 UNL     1      12.932 -49.772 -14.565  1.00  0.00     0.048 A 
HETATM   11  C11 UNL     1      12.689 -50.338 -13.347  1.00  0.00     0.066 A 
HETATM   12  C12 UNL     1      12.366 -49.532 -12.279  1.00  0.00     0.037 A 
HETATM   13  C13 UNL     1      12.285 -48.146 -12.439  1.00  0.00     0.015 A 
HETATM   14  C14 UNL     1      12.527 -47.552 -13.660  1.00  0.00    -0.019 A 
HETATM   15  C15 UNL     1      12.609 -44.173 -15.223  1.00  0.00     0.035 C 
HETATM   16  C16 UNL     1      13.430 -43.533 -16.268  1.00  0.00     0.018 C 
HETATM   17  C17 UNL     1      13.444 -42.089 -15.802  1.00  0.00     0.080 C 
HETATM   18  C18 UNL     1      13.240 -42.143 -14.312  1.00  0.00     0.136 C 
HETATM   19  O2  UNL     1      13.149 -41.151 -13.627  1.00  0.00    -0.297 OA
ENDROOT
BRANCH  11  20
HETATM   20  O1  UNL     1      12.771 -51.719 -13.196  1.00  0.00    -0.361 OA
ATOM     21  H1  UNL     1      13.246 -52.087 -12.460  1.00  0.00     0.217 HD
ENDBRANCH  11  20
TORSDOF 1
ENDMDL
