MODEL 6
REMARK VINA RESULT: -8.854239102      1.171      1.661
REMARK  1 active torsions:
REMARK  status: ('A' for Active; 'I' for Inactive)
REMARK    1  A    between atoms: C11_11  and  O1_12 
ROOT
HETATM    1  C1  UNL     1      16.313  75.345   5.438  1.00  0.00     0.024 C 
HETATM    2  C2  UNL     1      15.675  76.668   5.184  1.00  0.00     0.025 C 
HETATM    3  C3  UNL     1      16.666  77.767   5.458  1.00  0.00     0.022 C 
HETATM    4  C4  UNL     1      17.186  77.676   6.862  1.00  0.00     0.041 C 
HETATM    5  C5  UNL     1      16.263  77.034   7.808  1.00  0.00    -0.040 A 
HETATM    6  C6  UNL     1      14.970  76.668   7.484  1.00  0.00    -0.046 A 
HETATM    7  C7  UNL     1      14.192  76.067   8.458  1.00  0.00     0.009 A 
HETATM    8  C8  UNL     1      14.678  75.831   9.724  1.00  0.00     0.013 A 
HETATM    9  C9  UNL     1      15.970  76.194  10.060  1.00  0.00    -0.023 A 
HETATM   10  C10 UNL     1      16.433  75.943  11.350  1.00  0.00     0.048 A 
HETATM   11  C11 UNL     1      17.705  76.296  11.693  1.00  0.00     0.066 A 
HETATM   12  C12 UNL     1      18.517  76.897  10.757  1.00  0.00     0.037 A 
HETATM   13  C13 UNL     1      18.042  77.144   9.466  1.00  0.00     0.015 A 
HETATM   14  C14 UNL     1      16.760  76.795   9.097  1.00  0.00    -0.019 A 
HETATM   15  C15 UNL     1      14.504  76.939   6.137  1.00  0.00     0.035 C 
HETATM   16  C16 UNL     1      13.455  76.058   5.588  1.00  0.00     0.018 C 
HETATM   17  C17 UNL     1      13.585  76.322   4.099  1.00  0.00     0.080 C 
HETATM   18  C18 UNL     1      15.012  76.753   3.888  1.00  0.00     0.136 C 
HETATM   19  O2  UNL     1      15.440  77.090   2.809  1.00  0.00    -0.297 OA
ENDROOT
BRANCH  11  20
HETATM   20  O1  UNL     1      18.170  76.047  12.981  1.00  0.00    -0.361 OA
ATOM     21  H1  UNL     1      19.102  76.076  13.161  1.00  0.00     0.217 HD
ENDBRANCH  11  20
TORSDOF 1
ENDMDL
