MODEL 4
REMARK VINA RESULT: -9.075375983      1.204      6.271
REMARK  1 active torsions:
REMARK  status: ('A' for Active; 'I' for Inactive)
REMARK    1  A    between atoms: C11_11  and  O1_12 
ROOT
HETATM    1  C1  UNL     1      17.217  74.675   9.968  1.00  0.00     0.024 C 
HETATM    2  C2  UNL     1      17.001  75.880  10.818  1.00  0.00     0.025 C 
HETATM    3  C3  UNL     1      15.527  76.155  10.937  1.00  0.00     0.022 C 
HETATM    4  C4  UNL     1      14.907  76.329   9.582  1.00  0.00     0.041 C 
HETATM    5  C5  UNL     1      15.837  76.808   8.550  1.00  0.00    -0.040 A 
HETATM    6  C6  UNL     1      17.134  77.204   8.815  1.00  0.00    -0.046 A 
HETATM    7  C7  UNL     1      17.919  77.635   7.760  1.00  0.00     0.009 A 
HETATM    8  C8  UNL     1      17.436  77.675   6.471  1.00  0.00     0.013 A 
HETATM    9  C9  UNL     1      16.139  77.281   6.194  1.00  0.00    -0.023 A 
HETATM   10  C10 UNL     1      15.679  77.333   4.880  1.00  0.00     0.048 A 
HETATM   11  C11 UNL     1      14.402  76.948   4.595  1.00  0.00     0.066 A 
HETATM   12  C12 UNL     1      13.583  76.511   5.612  1.00  0.00     0.037 A 
HETATM   13  C13 UNL     1      14.055  76.463   6.927  1.00  0.00     0.015 A 
HETATM   14  C14 UNL     1      15.342  76.847   7.239  1.00  0.00    -0.019 A 
HETATM   15  C15 UNL     1      17.595  77.146  10.189  1.00  0.00     0.035 C 
HETATM   16  C16 UNL     1      19.040  76.949  10.415  1.00  0.00     0.018 C 
HETATM   17  C17 UNL     1      19.060  76.472  11.856  1.00  0.00     0.080 C 
HETATM   18  C18 UNL     1      17.718  75.831  12.087  1.00  0.00     0.136 C 
HETATM   19  O2  UNL     1      17.383  75.386  13.160  1.00  0.00    -0.297 OA
ENDROOT
BRANCH  11  20
HETATM   20  O1  UNL     1      13.940  76.998   3.283  1.00  0.00    -0.361 OA
ATOM     21  H1  UNL     1      13.931  77.826   2.817  1.00  0.00     0.217 HD
ENDBRANCH  11  20
TORSDOF 1
ENDMDL
