MODEL 3
REMARK VINA RESULT: -9.305003985      1.319      5.976
REMARK  1 active torsions:
REMARK  status: ('A' for Active; 'I' for Inactive)
REMARK    1  A    between atoms: C11_11  and  O1_12 
ROOT
HETATM    1  C1  UNL     1      18.880  77.861  10.059  1.00  0.00     0.024 C 
HETATM    2  C2  UNL     1      18.871  76.394  10.321  1.00  0.00     0.025 C 
HETATM    3  C3  UNL     1      19.445  75.667   9.135  1.00  0.00     0.022 C 
HETATM    4  C4  UNL     1      18.682  75.999   7.887  1.00  0.00     0.041 C 
HETATM    5  C5  UNL     1      17.285  76.390   8.119  1.00  0.00    -0.040 A 
HETATM    6  C6  UNL     1      16.669  76.327   9.355  1.00  0.00    -0.046 A 
HETATM    7  C7  UNL     1      15.348  76.725   9.453  1.00  0.00     0.009 A 
HETATM    8  C8  UNL     1      14.647  77.176   8.357  1.00  0.00     0.013 A 
HETATM    9  C9  UNL     1      15.253  77.243   7.115  1.00  0.00    -0.023 A 
HETATM   10  C10 UNL     1      14.518  77.703   6.024  1.00  0.00     0.048 A 
HETATM   11  C11 UNL     1      15.105  77.774   4.794  1.00  0.00     0.066 A 
HETATM   12  C12 UNL     1      16.419  77.389   4.648  1.00  0.00     0.037 A 
HETATM   13  C13 UNL     1      17.147  76.929   5.749  1.00  0.00     0.015 A 
HETATM   14  C14 UNL     1      16.574  76.849   7.001  1.00  0.00    -0.019 A 
HETATM   15  C15 UNL     1      17.448  75.843  10.479  1.00  0.00     0.035 C 
HETATM   16  C16 UNL     1      17.081  76.328  11.823  1.00  0.00     0.018 C 
HETATM   17  C17 UNL     1      18.341  76.022  12.612  1.00  0.00     0.080 C 
HETATM   18  C18 UNL     1      19.460  76.031  11.605  1.00  0.00     0.136 C 
HETATM   19  O2  UNL     1      20.604  75.771  11.897  1.00  0.00    -0.297 OA
ENDROOT
BRANCH  11  20
HETATM   20  O1  UNL     1      14.374  78.234   3.704  1.00  0.00    -0.361 OA
ATOM     21  H1  UNL     1      14.826  78.580   2.943  1.00  0.00     0.217 HD
ENDBRANCH  11  20
TORSDOF 1
ENDMDL
