MODEL 10
REMARK VINA RESULT: -8.511723701      1.052      1.405
REMARK  1 active torsions:
REMARK  status: ('A' for Active; 'I' for Inactive)
REMARK    1  A    between atoms: C11_11  and  O1_12 
ROOT
HETATM    1  C1  UNL     1      15.496  75.153   5.337  1.00  0.00     0.024 C 
HETATM    2  C2  UNL     1      14.662  76.372   5.140  1.00  0.00     0.025 C 
HETATM    3  C3  UNL     1      15.554  77.571   4.961  1.00  0.00     0.022 C 
HETATM    4  C4  UNL     1      16.475  77.727   6.135  1.00  0.00     0.041 C 
HETATM    5  C5  UNL     1      15.955  77.164   7.389  1.00  0.00    -0.040 A 
HETATM    6  C6  UNL     1      14.677  76.658   7.527  1.00  0.00    -0.046 A 
HETATM    7  C7  UNL     1      14.299  76.151   8.758  1.00  0.00     0.009 A 
HETATM    8  C8  UNL     1      15.163  76.142   9.830  1.00  0.00     0.013 A 
HETATM    9  C9  UNL     1      16.445  76.646   9.703  1.00  0.00    -0.023 A 
HETATM   10  C10 UNL     1      17.296  76.625  10.806  1.00  0.00     0.048 A 
HETATM   11  C11 UNL     1      18.563  77.119  10.694  1.00  0.00     0.066 A 
HETATM   12  C12 UNL     1      18.984  77.634   9.488  1.00  0.00     0.037 A 
HETATM   13  C13 UNL     1      18.122  77.652   8.388  1.00  0.00     0.015 A 
HETATM   14  C14 UNL     1      16.837  77.157   8.479  1.00  0.00    -0.019 A 
HETATM   15  C15 UNL     1      13.804  76.692   6.370  1.00  0.00     0.035 C 
HETATM   16  C16 UNL     1      12.749  75.663   6.281  1.00  0.00     0.018 C 
HETATM   17  C17 UNL     1      12.399  75.713   4.805  1.00  0.00     0.080 C 
HETATM   18  C18 UNL     1      13.638  76.215   4.112  1.00  0.00     0.136 C 
HETATM   19  O2  UNL     1      13.684  76.420   2.922  1.00  0.00    -0.297 OA
ENDROOT
BRANCH  11  20
HETATM   20  O1  UNL     1      19.415  77.098  11.793  1.00  0.00    -0.361 OA
ATOM     21  H1  UNL     1      19.919  77.872  12.016  1.00  0.00     0.217 HD
ENDBRANCH  11  20
TORSDOF 1
ENDMDL
