MODEL 1
REMARK VINA RESULT: -9.917132066      0.000      0.000
REMARK  1 active torsions:
REMARK  status: ('A' for Active; 'I' for Inactive)
REMARK    1  A    between atoms: C11_11  and  O1_12 
ROOT
HETATM    1  C1  UNL     1      16.000  75.253   6.462  1.00  0.00     0.024 C 
HETATM    2  C2  UNL     1      15.172  76.491   6.400  1.00  0.00     0.025 C 
HETATM    3  C3  UNL     1      16.064  77.685   6.198  1.00  0.00     0.022 C 
HETATM    4  C4  UNL     1      17.090  77.773   7.289  1.00  0.00     0.041 C 
HETATM    5  C5  UNL     1      16.677  77.156   8.557  1.00  0.00    -0.040 A 
HETATM    6  C6  UNL     1      15.408  76.660   8.787  1.00  0.00    -0.046 A 
HETATM    7  C7  UNL     1      15.136  76.098  10.022  1.00  0.00     0.009 A 
HETATM    8  C8  UNL     1      16.093  76.026  11.009  1.00  0.00     0.013 A 
HETATM    9  C9  UNL     1      17.366  76.521  10.789  1.00  0.00    -0.023 A 
HETATM   10  C10 UNL     1      18.313  76.435  11.808  1.00  0.00     0.048 A 
HETATM   11  C11 UNL     1      19.573  76.918  11.603  1.00  0.00     0.066 A 
HETATM   12  C12 UNL     1      19.891  77.486  10.390  1.00  0.00     0.037 A 
HETATM   13  C13 UNL     1      18.933  77.568   9.375  1.00  0.00     0.015 A 
HETATM   14  C14 UNL     1      17.654  77.085   9.560  1.00  0.00    -0.019 A 
HETATM   15  C15 UNL     1      14.434  76.760   7.717  1.00  0.00     0.035 C 
HETATM   16  C16 UNL     1      13.359  75.750   7.676  1.00  0.00     0.018 C 
HETATM   17  C17 UNL     1      12.877  75.876   6.243  1.00  0.00     0.080 C 
HETATM   18  C18 UNL     1      14.057  76.396   5.464  1.00  0.00     0.136 C 
HETATM   19  O2  UNL     1      13.997  76.659   4.286  1.00  0.00    -0.297 OA
ENDROOT
BRANCH  11  20
HETATM   20  O1  UNL     1      20.520  76.833  12.618  1.00  0.00    -0.361 OA
ATOM     21  H1  UNL     1      21.387  76.493  12.428  1.00  0.00     0.217 HD
ENDBRANCH  11  20
TORSDOF 1
ENDMDL
