MODEL 8
REMARK VINA RESULT: -8.606380685      1.541      1.634
REMARK  1 active torsions:
REMARK  status: ('A' for Active; 'I' for Inactive)
REMARK    1  A    between atoms: C11_11  and  O1_12 
ROOT
HETATM    1  C1  UNL     1      15.241  73.396   7.584  1.00  0.00     0.024 C 
HETATM    2  C2  UNL     1      14.961  74.692   6.904  1.00  0.00     0.025 C 
HETATM    3  C3  UNL     1      16.211  75.189   6.231  1.00  0.00     0.022 C 
HETATM    4  C4  UNL     1      17.329  75.327   7.221  1.00  0.00     0.041 C 
HETATM    5  C5  UNL     1      16.887  75.569   8.601  1.00  0.00    -0.040 A 
HETATM    6  C6  UNL     1      15.569  75.794   8.953  1.00  0.00    -0.046 A 
HETATM    7  C7  UNL     1      15.271  76.008  10.287  1.00  0.00     0.009 A 
HETATM    8  C8  UNL     1      16.250  76.000  11.255  1.00  0.00     0.013 A 
HETATM    9  C9  UNL     1      17.573  75.776  10.914  1.00  0.00    -0.023 A 
HETATM   10  C10 UNL     1      18.541  75.775  11.916  1.00  0.00     0.048 A 
HETATM   11  C11 UNL     1      19.848  75.555  11.593  1.00  0.00     0.066 A 
HETATM   12  C12 UNL     1      20.193  75.337  10.278  1.00  0.00     0.037 A 
HETATM   13  C13 UNL     1      19.214  75.341   9.281  1.00  0.00     0.015 A 
HETATM   14  C14 UNL     1      17.886  75.561   9.584  1.00  0.00    -0.019 A 
HETATM   15  C15 UNL     1      14.575  75.795   7.897  1.00  0.00     0.035 C 
HETATM   16  C16 UNL     1      13.196  75.411   8.258  1.00  0.00     0.018 C 
HETATM   17  C17 UNL     1      12.610  75.070   6.900  1.00  0.00     0.080 C 
HETATM   18  C18 UNL     1      13.780  74.655   6.048  1.00  0.00     0.136 C 
HETATM   19  O2  UNL     1      13.667  74.363   4.880  1.00  0.00    -0.297 OA
ENDROOT
BRANCH  11  20
HETATM   20  O1  UNL     1      20.817  75.553  12.591  1.00  0.00    -0.361 OA
ATOM     21  H1  UNL     1      21.292  76.351  12.791  1.00  0.00     0.217 HD
ENDBRANCH  11  20
TORSDOF 1
ENDMDL
