MODEL 2
REMARK VINA RESULT: -9.500095257      1.103      6.334
REMARK  1 active torsions:
REMARK  status: ('A' for Active; 'I' for Inactive)
REMARK    1  A    between atoms: C11_11  and  O1_12 
ROOT
HETATM    1  C1  UNL     1      18.956  75.445   9.809  1.00  0.00     0.024 C 
HETATM    2  C2  UNL     1      18.853  76.779  10.467  1.00  0.00     0.025 C 
HETATM    3  C3  UNL     1      17.636  76.813  11.351  1.00  0.00     0.022 C 
HETATM    4  C4  UNL     1      16.398  76.499  10.565  1.00  0.00     0.041 C 
HETATM    5  C5  UNL     1      16.489  76.834   9.137  1.00  0.00    -0.040 A 
HETATM    6  C6  UNL     1      17.557  77.509   8.577  1.00  0.00    -0.046 A 
HETATM    7  C7  UNL     1      17.533  77.768   7.218  1.00  0.00     0.009 A 
HETATM    8  C8  UNL     1      16.480  77.370   6.427  1.00  0.00     0.013 A 
HETATM    9  C9  UNL     1      15.404  76.694   6.976  1.00  0.00    -0.023 A 
HETATM   10  C10 UNL     1      14.352  76.304   6.150  1.00  0.00     0.048 A 
HETATM   11  C11 UNL     1      13.287  75.637   6.680  1.00  0.00     0.066 A 
HETATM   12  C12 UNL     1      13.266  75.357   8.028  1.00  0.00     0.037 A 
HETATM   13  C13 UNL     1      14.327  75.753   8.848  1.00  0.00     0.015 A 
HETATM   14  C14 UNL     1      15.414  76.428   8.334  1.00  0.00    -0.019 A 
HETATM   15  C15 UNL     1      18.642  77.910   9.453  1.00  0.00     0.035 C 
HETATM   16  C16 UNL     1      19.987  78.039   8.857  1.00  0.00     0.018 C 
HETATM   17  C17 UNL     1      20.872  77.983  10.089  1.00  0.00     0.080 C 
HETATM   18  C18 UNL     1      20.090  77.204  11.113  1.00  0.00     0.136 C 
HETATM   19  O2  UNL     1      20.491  77.016  12.238  1.00  0.00    -0.297 OA
ENDROOT
BRANCH  11  20
HETATM   20  O1  UNL     1      12.235  75.247   5.857  1.00  0.00    -0.361 OA
ATOM     21  H1  UNL     1      12.070  74.323   5.707  1.00  0.00     0.217 HD
ENDBRANCH  11  20
TORSDOF 1
ENDMDL
