MODEL 1
REMARK VINA RESULT: -10.609479904      0.000      0.000
REMARK  12 active torsions:
REMARK  status: ('A' for Active; 'I' for Inactive)
REMARK    1  A    between atoms: C3_3  and  O1_4 
REMARK    2  A    between atoms: C7_9  and  C8_10 
REMARK       I    between atoms: C8_10  and  N1_12 
REMARK    3  A    between atoms: N1_12  and  C9_14 
REMARK    4  A    between atoms: C9_14  and  C10_15 
REMARK    5  A    between atoms: C9_14  and  C17_23 
REMARK    6  A    between atoms: C10_15  and  S1_16 
REMARK    7  A    between atoms: S1_16  and  C11_17 
REMARK    8  A    between atoms: C17_23  and  O3_24 
REMARK    9  A    between atoms: C17_23  and  C18_26 
REMARK   10  A    between atoms: C18_26  and  N2_27 
REMARK   11  A    between atoms: C27_36  and  C28_37 
REMARK       I    between atoms: C28_37  and  N3_39 
REMARK   12  A    between atoms: N3_39  and  C29_41 
ROOT
HETATM    1  C9  UNL     1       5.121  -0.789  14.428  1.00  0.00     0.124 C 
ENDROOT
BRANCH   1   2
HETATM    2  N1  UNL     1       3.947  -0.080  14.036  1.00  0.00    -0.349 N 
HETATM    3  C8  UNL     1       3.241  -0.271  12.825  1.00  0.00     0.252 C 
HETATM    4  O2  UNL     1       3.674  -1.137  12.003  1.00  0.00    -0.268 OA
ATOM      5  H1  UNL     1       3.586   0.622  14.683  1.00  0.00     0.163 HD
BRANCH   3   6
HETATM    6  C7  UNL     1       2.036   0.506  12.513  1.00  0.00     0.040 A 
HETATM    7  C2  UNL     1       2.197   1.751  11.957  1.00  0.00    -0.013 A 
HETATM    8  C1  UNL     1       3.513   2.340  11.643  1.00  0.00     0.052 C 
HETATM    9  C3  UNL     1       1.043   2.477  11.673  1.00  0.00     0.072 A 
HETATM   10  C4  UNL     1      -0.226   1.992  11.929  1.00  0.00     0.037 A 
HETATM   11  C5  UNL     1      -0.358   0.753  12.481  1.00  0.00     0.004 A 
HETATM   12  C6  UNL     1       0.784   0.006  12.775  1.00  0.00     0.018 A 
BRANCH   9  13
HETATM   13  O1  UNL     1       1.130   3.729  11.118  1.00  0.00    -0.360 OA
ATOM     14  H1  UNL     1       0.537   3.989  10.423  1.00  0.00     0.217 HD
ENDBRANCH   9  13
ENDBRANCH   3   6
ENDBRANCH   1   2
BRANCH   1  15
HETATM   15  C10 UNL     1       6.355   0.106  14.245  1.00  0.00     0.107 C 
BRANCH  15  16
HETATM   16  S1  UNL     1       7.283  -0.323  12.752  1.00  0.00    -0.128 SA
BRANCH  16  17
HETATM   17  C11 UNL     1       7.539   1.157  11.794  1.00  0.00     0.000 A 
HETATM   18  C12 UNL     1       7.455   2.418  12.386  1.00  0.00     0.018 A 
HETATM   19  C13 UNL     1       7.648   3.577  11.673  1.00  0.00     0.001 A 
HETATM   20  C14 UNL     1       7.938   3.524  10.327  1.00  0.00     0.000 A 
HETATM   21  C15 UNL     1       8.025   2.293   9.724  1.00  0.00     0.001 A 
HETATM   22  C16 UNL     1       7.826   1.115  10.458  1.00  0.00     0.018 A 
ENDBRANCH  16  17
ENDBRANCH  15  16
ENDBRANCH   1  15
BRANCH   1  23
HETATM   23  C17 UNL     1       5.036  -1.241  15.875  1.00  0.00     0.170 C 
BRANCH  23  24
HETATM   24  O3  UNL     1       5.192  -0.217  16.770  1.00  0.00    -0.392 OA
ATOM     25  H3  UNL     1       4.508   0.440  16.711  1.00  0.00     0.210 HD
ENDBRANCH  23  24
BRANCH  23  26
HETATM   26  C18 UNL     1       5.813  -2.477  16.190  1.00  0.00     0.307 C 
BRANCH  26  27
HETATM   27  N2  UNL     1       5.151  -3.728  15.891  1.00  0.00     0.105 N 
HETATM   28  C19 UNL     1       3.740  -3.525  16.088  1.00  0.00     0.278 C 
HETATM   29  C20 UNL     1       2.898  -4.704  16.347  1.00  0.00     0.018 C 
HETATM   30  C21 UNL     1       2.273  -5.181  15.027  1.00  0.00     0.007 C 
HETATM   31  C25 UNL     1       3.552  -5.828  17.080  1.00  0.00    -0.006 C 
HETATM   32  C22 UNL     1       1.279  -6.259  15.406  1.00  0.00     0.000 C 
HETATM   33  C23 UNL     1       2.117  -7.470  15.828  1.00  0.00     0.000 C 
HETATM   34  C24 UNL     1       2.789  -7.089  17.118  1.00  0.00     0.005 C 
HETATM   35  C26 UNL     1       4.953  -6.026  16.510  1.00  0.00     0.050 C 
HETATM   36  C27 UNL     1       5.650  -4.693  16.832  1.00  0.00     0.314 C 
BRANCH  36  37
HETATM   37  C28 UNL     1       7.073  -4.960  16.805  1.00  0.00     0.252 C 
HETATM   38  O4  UNL     1       7.818  -4.890  17.806  1.00  0.00    -0.271 OA
HETATM   39  N3  UNL     1       7.716  -5.332  15.574  1.00  0.00    -0.351 N 
ATOM     40  H3  UNL     1       7.152  -5.403  14.727  1.00  0.00     0.163 HD
BRANCH  39  41
HETATM   41  C29 UNL     1       9.130  -5.608  15.494  1.00  0.00     0.022 C 
HETATM   42  C30 UNL     1       9.478  -5.891  14.049  1.00  0.00     0.037 C 
HETATM   43  C31 UNL     1       9.967  -4.421  15.926  1.00  0.00     0.037 C 
HETATM   44  C32 UNL     1       9.538  -6.819  16.300  1.00  0.00     0.037 C 
ENDBRANCH  39  41
ENDBRANCH  36  37
ENDBRANCH  26  27
ENDBRANCH  23  26
ENDBRANCH   1  23
TORSDOF 12
ENDMDL
