MODEL 2
REMARK VINA RESULT: -10.294959862      1.067      1.822
REMARK  12 active torsions:
REMARK  status: ('A' for Active; 'I' for Inactive)
REMARK    1  A    between atoms: C3_3  and  O1_4 
REMARK    2  A    between atoms: C7_9  and  C8_10 
REMARK       I    between atoms: C8_10  and  N1_12 
REMARK    3  A    between atoms: N1_12  and  C9_14 
REMARK    4  A    between atoms: C9_14  and  C10_15 
REMARK    5  A    between atoms: C9_14  and  C17_23 
REMARK    6  A    between atoms: C10_15  and  S1_16 
REMARK    7  A    between atoms: S1_16  and  C11_17 
REMARK    8  A    between atoms: C17_23  and  O3_24 
REMARK    9  A    between atoms: C17_23  and  C18_26 
REMARK   10  A    between atoms: C18_26  and  N2_27 
REMARK   11  A    between atoms: C27_36  and  C28_37 
REMARK       I    between atoms: C28_37  and  N3_39 
REMARK   12  A    between atoms: N3_39  and  C29_41 
ROOT
HETATM    1  C9  UNL     1       5.364  -0.464  14.215  1.00  0.00     0.124 C 
ENDROOT
BRANCH   1   2
HETATM    2  N1  UNL     1       4.691   0.595  13.538  1.00  0.00    -0.349 N 
HETATM    3  C8  UNL     1       3.934   0.459  12.351  1.00  0.00     0.252 C 
HETATM    4  O2  UNL     1       3.837  -0.694  11.825  1.00  0.00    -0.268 OA
ATOM      5  H1  UNL     1       4.760   1.529  13.945  1.00  0.00     0.163 HD
BRANCH   3   6
HETATM    6  C7  UNL     1       3.271   1.611  11.731  1.00  0.00     0.040 A 
HETATM    7  C2  UNL     1       1.900   1.673  11.783  1.00  0.00    -0.013 A 
HETATM    8  C1  UNL     1       1.063   0.652  12.441  1.00  0.00     0.052 C 
HETATM    9  C3  UNL     1       1.288   2.770  11.183  1.00  0.00     0.072 A 
HETATM   10  C4  UNL     1       2.002   3.773  10.554  1.00  0.00     0.037 A 
HETATM   11  C5  UNL     1       3.362   3.689  10.517  1.00  0.00     0.004 A 
HETATM   12  C6  UNL     1       4.000   2.597  11.111  1.00  0.00     0.018 A 
BRANCH   9  13
HETATM   13  O1  UNL     1      -0.078   2.895  11.197  1.00  0.00    -0.360 OA
ATOM     14  H1  UNL     1      -0.606   2.477  10.526  1.00  0.00     0.217 HD
ENDBRANCH   9  13
ENDBRANCH   3   6
ENDBRANCH   1   2
BRANCH   1  15
HETATM   15  C10 UNL     1       6.880  -0.229  14.171  1.00  0.00     0.107 C 
BRANCH  15  16
HETATM   16  S1  UNL     1       7.548  -0.441  12.503  1.00  0.00    -0.128 SA
BRANCH  16  17
HETATM   17  C11 UNL     1       7.589   1.147  11.698  1.00  0.00     0.000 A 
HETATM   18  C12 UNL     1       7.667   2.326  12.441  1.00  0.00     0.018 A 
HETATM   19  C13 UNL     1       7.702   3.566  11.849  1.00  0.00     0.001 A 
HETATM   20  C14 UNL     1       7.661   3.680  10.476  1.00  0.00     0.000 A 
HETATM   21  C15 UNL     1       7.583   2.533   9.725  1.00  0.00     0.001 A 
HETATM   22  C16 UNL     1       7.548   1.272  10.337  1.00  0.00     0.018 A 
ENDBRANCH  16  17
ENDBRANCH  15  16
ENDBRANCH   1  15
BRANCH   1  23
HETATM   23  C17 UNL     1       4.912  -0.572  15.660  1.00  0.00     0.170 C 
BRANCH  23  24
HETATM   24  O3  UNL     1       5.138   0.568  16.383  1.00  0.00    -0.392 OA
ATOM     25  H3  UNL     1       4.450   0.756  17.011  1.00  0.00     0.210 HD
ENDBRANCH  23  24
BRANCH  23  26
HETATM   26  C18 UNL     1       5.305  -1.841  16.345  1.00  0.00     0.307 C 
BRANCH  26  27
HETATM   27  N2  UNL     1       4.760  -3.054  15.779  1.00  0.00     0.105 N 
HETATM   28  C19 UNL     1       3.461  -3.256  16.365  1.00  0.00     0.278 C 
HETATM   29  C20 UNL     1       2.906  -4.619  16.370  1.00  0.00     0.018 C 
HETATM   30  C21 UNL     1       1.981  -4.796  15.155  1.00  0.00     0.007 C 
HETATM   31  C25 UNL     1       3.897  -5.731  16.467  1.00  0.00    -0.006 C 
HETATM   32  C22 UNL     1       1.305  -6.138  15.342  1.00  0.00     0.000 C 
HETATM   33  C23 UNL     1       2.388  -7.190  15.084  1.00  0.00     0.000 C 
HETATM   34  C24 UNL     1       3.361  -7.082  16.225  1.00  0.00     0.005 C 
HETATM   35  C26 UNL     1       5.073  -5.411  15.550  1.00  0.00     0.050 C 
HETATM   36  C27 UNL     1       5.648  -4.120  16.158  1.00  0.00     0.314 C 
BRANCH  36  37
HETATM   37  C28 UNL     1       7.018  -4.027  15.699  1.00  0.00     0.252 C 
HETATM   38  O4  UNL     1       7.348  -3.690  14.542  1.00  0.00    -0.271 OA
HETATM   39  N3  UNL     1       8.101  -4.332  16.593  1.00  0.00    -0.351 N 
ATOM     40  H3  UNL     1       7.886  -4.613  17.550  1.00  0.00     0.163 HD
BRANCH  39  41
HETATM   41  C29 UNL     1       9.483  -4.256  16.184  1.00  0.00     0.022 C 
HETATM   42  C30 UNL     1      10.347  -4.708  17.342  1.00  0.00     0.037 C 
HETATM   43  C31 UNL     1       9.785  -5.180  15.021  1.00  0.00     0.037 C 
HETATM   44  C32 UNL     1       9.913  -2.853  15.824  1.00  0.00     0.037 C 
ENDBRANCH  39  41
ENDBRANCH  36  37
ENDBRANCH  26  27
ENDBRANCH  23  26
ENDBRANCH   1  23
TORSDOF 12
ENDMDL
