MODEL 6
REMARK VINA RESULT: -10.060338495      1.698      8.754
REMARK  12 active torsions:
REMARK  status: ('A' for Active; 'I' for Inactive)
REMARK    1  A    between atoms: C3_3  and  O1_4 
REMARK    2  A    between atoms: C7_9  and  C8_10 
REMARK       I    between atoms: C8_10  and  N1_12 
REMARK    3  A    between atoms: N1_12  and  C9_14 
REMARK    4  A    between atoms: C9_14  and  C10_15 
REMARK    5  A    between atoms: C9_14  and  C17_23 
REMARK    6  A    between atoms: C10_15  and  S1_16 
REMARK    7  A    between atoms: S1_16  and  C11_17 
REMARK    8  A    between atoms: C17_23  and  O3_24 
REMARK    9  A    between atoms: C17_23  and  C18_26 
REMARK   10  A    between atoms: C18_26  and  N2_27 
REMARK   11  A    between atoms: C27_36  and  C28_37 
REMARK       I    between atoms: C28_37  and  N3_39 
REMARK   12  A    between atoms: N3_39  and  C29_41 
ROOT
HETATM    1  C9  UNL     1       6.086  -1.610  15.980  1.00  0.00     0.124 C 
ENDROOT
BRANCH   1   2
HETATM    2  N1  UNL     1       5.395  -2.783  15.555  1.00  0.00    -0.349 N 
HETATM    3  C8  UNL     1       4.236  -3.317  16.164  1.00  0.00     0.252 C 
HETATM    4  O2  UNL     1       3.756  -2.721  17.178  1.00  0.00    -0.268 OA
ATOM      5  H1  UNL     1       5.768  -3.277  14.744  1.00  0.00     0.163 HD
BRANCH   3   6
HETATM    6  C7  UNL     1       3.592  -4.530  15.648  1.00  0.00     0.040 A 
HETATM    7  C2  UNL     1       4.212  -5.735  15.870  1.00  0.00    -0.013 A 
HETATM    8  C1  UNL     1       5.481  -5.874  16.611  1.00  0.00     0.052 C 
HETATM    9  C3  UNL     1       3.591  -6.875  15.368  1.00  0.00     0.072 A 
HETATM   10  C4  UNL     1       2.397  -6.830  14.671  1.00  0.00     0.037 A 
HETATM   11  C5  UNL     1       1.802  -5.622  14.465  1.00  0.00     0.004 A 
HETATM   12  C6  UNL     1       2.406  -4.463  14.958  1.00  0.00     0.018 A 
BRANCH   9  13
HETATM   13  O1  UNL     1       4.156  -8.111  15.552  1.00  0.00    -0.360 OA
ATOM     14  H1  UNL     1       4.536  -8.580  14.818  1.00  0.00     0.217 HD
ENDBRANCH   9  13
ENDBRANCH   3   6
ENDBRANCH   1   2
BRANCH   1  15
HETATM   15  C10 UNL     1       7.590  -1.768  15.717  1.00  0.00     0.107 C 
BRANCH  15  16
HETATM   16  S1  UNL     1       7.934  -3.102  14.544  1.00  0.00    -0.128 SA
BRANCH  16  17
HETATM   17  C11 UNL     1       8.863  -4.371  15.378  1.00  0.00     0.000 A 
HETATM   18  C12 UNL     1       9.637  -4.073  16.501  1.00  0.00     0.018 A 
HETATM   19  C13 UNL     1      10.363  -5.031  17.167  1.00  0.00     0.001 A 
HETATM   20  C14 UNL     1      10.346  -6.339  16.736  1.00  0.00     0.000 A 
HETATM   21  C15 UNL     1       9.591  -6.655  15.632  1.00  0.00     0.001 A 
HETATM   22  C16 UNL     1       8.853  -5.672  14.958  1.00  0.00     0.018 A 
ENDBRANCH  16  17
ENDBRANCH  15  16
ENDBRANCH   1  15
BRANCH   1  23
HETATM   23  C17 UNL     1       5.574  -0.376  15.260  1.00  0.00     0.170 C 
BRANCH  23  24
HETATM   24  O3  UNL     1       4.973   0.526  16.096  1.00  0.00    -0.392 OA
ATOM     25  H3  UNL     1       4.878   1.389  15.710  1.00  0.00     0.210 HD
ENDBRANCH  23  24
BRANCH  23  26
HETATM   26  C18 UNL     1       4.831  -0.654  13.994  1.00  0.00     0.307 C 
BRANCH  26  27
HETATM   27  N2  UNL     1       5.400  -0.082  12.794  1.00  0.00     0.105 N 
HETATM   28  C19 UNL     1       6.640   0.547  13.164  1.00  0.00     0.278 C 
HETATM   29  C20 UNL     1       7.168   1.608  12.291  1.00  0.00     0.018 C 
HETATM   30  C21 UNL     1       8.188   1.003  11.315  1.00  0.00     0.007 C 
HETATM   31  C25 UNL     1       6.151   2.435  11.576  1.00  0.00    -0.006 C 
HETATM   32  C22 UNL     1       8.820   2.178  10.598  1.00  0.00     0.000 C 
HETATM   33  C23 UNL     1       7.744   2.718   9.652  1.00  0.00     0.000 C 
HETATM   34  C24 UNL     1       6.680   3.323  10.526  1.00  0.00     0.005 C 
HETATM   35  C26 UNL     1       5.063   1.508  11.044  1.00  0.00     0.050 C 
HETATM   36  C27 UNL     1       4.463   0.903  12.325  1.00  0.00     0.314 C 
BRANCH  36  37
HETATM   37  C28 UNL     1       3.138   0.435  11.974  1.00  0.00     0.252 C 
HETATM   38  O4  UNL     1       2.908  -0.656  11.410  1.00  0.00    -0.271 OA
HETATM   39  N3  UNL     1       1.985   1.240  12.271  1.00  0.00    -0.351 N 
ATOM     40  H3  UNL     1       2.119   2.141  12.732  1.00  0.00     0.163 HD
BRANCH  39  41
HETATM   41  C29 UNL     1       0.645   0.819  11.941  1.00  0.00     0.022 C 
HETATM   42  C30 UNL     1      -0.245   2.044  11.914  1.00  0.00     0.037 C 
HETATM   43  C31 UNL     1       0.568   0.187  10.566  1.00  0.00     0.037 C 
HETATM   44  C32 UNL     1       0.062  -0.136  12.957  1.00  0.00     0.037 C 
ENDBRANCH  39  41
ENDBRANCH  36  37
ENDBRANCH  26  27
ENDBRANCH  23  26
ENDBRANCH   1  23
TORSDOF 12
ENDMDL
