MODEL 5
REMARK VINA RESULT: -10.198386403      1.976      8.024
REMARK  12 active torsions:
REMARK  status: ('A' for Active; 'I' for Inactive)
REMARK    1  A    between atoms: C3_3  and  O1_4 
REMARK    2  A    between atoms: C7_9  and  C8_10 
REMARK       I    between atoms: C8_10  and  N1_12 
REMARK    3  A    between atoms: N1_12  and  C9_14 
REMARK    4  A    between atoms: C9_14  and  C10_15 
REMARK    5  A    between atoms: C9_14  and  C17_23 
REMARK    6  A    between atoms: C10_15  and  S1_16 
REMARK    7  A    between atoms: S1_16  and  C11_17 
REMARK    8  A    between atoms: C17_23  and  O3_24 
REMARK    9  A    between atoms: C17_23  and  C18_26 
REMARK   10  A    between atoms: C18_26  and  N2_27 
REMARK   11  A    between atoms: C27_36  and  C28_37 
REMARK       I    between atoms: C28_37  and  N3_39 
REMARK   12  A    between atoms: N3_39  and  C29_41 
ROOT
HETATM    1  C9  UNL     1       6.398  -1.262  15.341  1.00  0.00     0.124 C 
ENDROOT
BRANCH   1   2
HETATM    2  N1  UNL     1       5.594  -2.402  15.043  1.00  0.00    -0.349 N 
HETATM    3  C8  UNL     1       4.536  -2.891  15.845  1.00  0.00     0.252 C 
HETATM    4  O2  UNL     1       4.266  -2.282  16.927  1.00  0.00    -0.268 OA
ATOM      5  H1  UNL     1       5.798  -2.906  14.180  1.00  0.00     0.163 HD
BRANCH   3   6
HETATM    6  C7  UNL     1       3.761  -4.072  15.451  1.00  0.00     0.040 A 
HETATM    7  C2  UNL     1       4.315  -5.310  15.668  1.00  0.00    -0.013 A 
HETATM    8  C1  UNL     1       5.638  -5.514  16.289  1.00  0.00     0.052 C 
HETATM    9  C3  UNL     1       3.569  -6.420  15.281  1.00  0.00     0.072 A 
HETATM   10  C4  UNL     1       2.318  -6.314  14.700  1.00  0.00     0.037 A 
HETATM   11  C5  UNL     1       1.791  -5.074  14.496  1.00  0.00     0.004 A 
HETATM   12  C6  UNL     1       2.520  -3.945  14.875  1.00  0.00     0.018 A 
BRANCH   9  13
HETATM   13  O1  UNL     1       4.062  -7.687  15.467  1.00  0.00    -0.360 OA
ATOM     14  H1  UNL     1       4.677  -7.865  16.169  1.00  0.00     0.217 HD
ENDBRANCH   9  13
ENDBRANCH   3   6
ENDBRANCH   1   2
BRANCH   1  15
HETATM   15  C10 UNL     1       7.828  -1.707  15.674  1.00  0.00     0.107 C 
BRANCH  15  16
HETATM   16  S1  UNL     1       8.474  -2.874  14.451  1.00  0.00    -0.128 SA
BRANCH  16  17
HETATM   17  C11 UNL     1       9.156  -4.279  15.308  1.00  0.00     0.000 A 
HETATM   18  C12 UNL     1       9.852  -4.119  16.507  1.00  0.00     0.018 A 
HETATM   19  C13 UNL     1      10.388  -5.184  17.191  1.00  0.00     0.001 A 
HETATM   20  C14 UNL     1      10.249  -6.464  16.702  1.00  0.00     0.000 A 
HETATM   21  C15 UNL     1       9.568  -6.645  15.522  1.00  0.00     0.001 A 
HETATM   22  C16 UNL     1       9.024  -5.553  14.831  1.00  0.00     0.018 A 
ENDBRANCH  16  17
ENDBRANCH  15  16
ENDBRANCH   1  15
BRANCH   1  23
HETATM   23  C17 UNL     1       6.429  -0.289  14.176  1.00  0.00     0.170 C 
BRANCH  23  24
HETATM   24  O3  UNL     1       6.346   1.020  14.565  1.00  0.00    -0.392 OA
ATOM     25  H3  UNL     1       5.847   1.559  13.962  1.00  0.00     0.210 HD
ENDBRANCH  23  24
BRANCH  23  26
HETATM   26  C18 UNL     1       5.551  -0.662  13.027  1.00  0.00     0.307 C 
BRANCH  26  27
HETATM   27  N2  UNL     1       4.339   0.114  12.885  1.00  0.00     0.105 N 
HETATM   28  C19 UNL     1       3.229  -0.791  13.030  1.00  0.00     0.278 C 
HETATM   29  C20 UNL     1       1.935  -0.401  12.450  1.00  0.00     0.018 C 
HETATM   30  C21 UNL     1       1.068   0.256  13.536  1.00  0.00     0.007 C 
HETATM   31  C25 UNL     1       1.995   0.440  11.217  1.00  0.00    -0.006 C 
HETATM   32  C22 UNL     1      -0.300   0.444  12.915  1.00  0.00     0.000 C 
HETATM   33  C23 UNL     1      -0.144   1.575  11.894  1.00  0.00     0.000 C 
HETATM   34  C24 UNL     1       0.713   1.027  10.787  1.00  0.00     0.005 C 
HETATM   35  C26 UNL     1       3.074   1.501  11.409  1.00  0.00     0.050 C 
HETATM   36  C27 UNL     1       4.359   0.668  11.558  1.00  0.00     0.314 C 
BRANCH  36  37
HETATM   37  C28 UNL     1       5.458   1.552  11.232  1.00  0.00     0.252 C 
HETATM   38  O4  UNL     1       6.315   1.311  10.355  1.00  0.00    -0.271 OA
HETATM   39  N3  UNL     1       5.617   2.796  11.934  1.00  0.00    -0.351 N 
ATOM     40  H3  UNL     1       4.944   3.041  12.661  1.00  0.00     0.163 HD
BRANCH  39  41
HETATM   41  C29 UNL     1       6.696   3.711  11.648  1.00  0.00     0.022 C 
HETATM   42  C30 UNL     1       6.463   4.983  12.436  1.00  0.00     0.037 C 
HETATM   43  C31 UNL     1       8.040   3.162  12.083  1.00  0.00     0.037 C 
HETATM   44  C32 UNL     1       6.769   4.095  10.188  1.00  0.00     0.037 C 
ENDBRANCH  39  41
ENDBRANCH  36  37
ENDBRANCH  26  27
ENDBRANCH  23  26
ENDBRANCH   1  23
TORSDOF 12
ENDMDL
