MODEL 16
REMARK VINA RESULT: -9.761301488      1.423      1.850
REMARK  12 active torsions:
REMARK  status: ('A' for Active; 'I' for Inactive)
REMARK    1  A    between atoms: C3_3  and  O1_4 
REMARK    2  A    between atoms: C7_9  and  C8_10 
REMARK       I    between atoms: C8_10  and  N1_12 
REMARK    3  A    between atoms: N1_12  and  C9_14 
REMARK    4  A    between atoms: C9_14  and  C10_15 
REMARK    5  A    between atoms: C9_14  and  C17_23 
REMARK    6  A    between atoms: C10_15  and  S1_16 
REMARK    7  A    between atoms: S1_16  and  C11_17 
REMARK    8  A    between atoms: C17_23  and  O3_24 
REMARK    9  A    between atoms: C17_23  and  C18_26 
REMARK   10  A    between atoms: C18_26  and  N2_27 
REMARK   11  A    between atoms: C27_36  and  C28_37 
REMARK       I    between atoms: C28_37  and  N3_39 
REMARK   12  A    between atoms: N3_39  and  C29_41 
ROOT
HETATM    1  C9  UNL     1       6.299  -1.577  14.061  1.00  0.00     0.124 C 
ENDROOT
BRANCH   1   2
HETATM    2  N1  UNL     1       5.155  -0.811  13.687  1.00  0.00    -0.349 N 
HETATM    3  C8  UNL     1       4.150  -1.226  12.783  1.00  0.00     0.252 C 
HETATM    4  O2  UNL     1       4.257  -2.372  12.244  1.00  0.00    -0.268 OA
ATOM      5  H1  UNL     1       5.054   0.113  14.107  1.00  0.00     0.163 HD
BRANCH   3   6
HETATM    6  C7  UNL     1       3.005  -0.366  12.465  1.00  0.00     0.040 A 
HETATM    7  C2  UNL     1       1.870  -0.494  13.227  1.00  0.00    -0.013 A 
HETATM    8  C1  UNL     1       1.747  -1.437  14.354  1.00  0.00     0.052 C 
HETATM    9  C3  UNL     1       0.791   0.326  12.907  1.00  0.00     0.072 A 
HETATM   10  C4  UNL     1       0.829   1.241  11.871  1.00  0.00     0.037 A 
HETATM   11  C5  UNL     1       1.968   1.349  11.130  1.00  0.00     0.004 A 
HETATM   12  C6  UNL     1       3.064   0.537  11.431  1.00  0.00     0.018 A 
BRANCH   9  13
HETATM   13  O1  UNL     1      -0.375   0.249  13.626  1.00  0.00    -0.360 OA
ATOM     14  H1  UNL     1      -1.087   0.854  13.452  1.00  0.00     0.217 HD
ENDBRANCH   9  13
ENDBRANCH   3   6
ENDBRANCH   1   2
BRANCH   1  15
HETATM   15  C10 UNL     1       7.496  -1.187  13.183  1.00  0.00     0.107 C 
BRANCH  15  16
HETATM   16  S1  UNL     1       7.600   0.603  12.941  1.00  0.00    -0.128 SA
BRANCH  16  17
HETATM   17  C11 UNL     1       7.427   0.956  11.204  1.00  0.00     0.000 A 
HETATM   18  C12 UNL     1       6.403   1.781  10.738  1.00  0.00     0.018 A 
HETATM   19  C13 UNL     1       6.244   2.073   9.405  1.00  0.00     0.001 A 
HETATM   20  C14 UNL     1       7.112   1.548   8.472  1.00  0.00     0.000 A 
HETATM   21  C15 UNL     1       8.128   0.732   8.908  1.00  0.00     0.001 A 
HETATM   22  C16 UNL     1       8.282   0.440  10.270  1.00  0.00     0.018 A 
ENDBRANCH  16  17
ENDBRANCH  15  16
ENDBRANCH   1  15
BRANCH   1  23
HETATM   23  C17 UNL     1       6.652  -1.365  15.521  1.00  0.00     0.170 C 
BRANCH  23  24
HETATM   24  O3  UNL     1       8.001  -1.327  15.750  1.00  0.00    -0.392 OA
ATOM     25  H3  UNL     1       8.454  -2.106  15.447  1.00  0.00     0.210 HD
ENDBRANCH  23  24
BRANCH  23  26
HETATM   26  C18 UNL     1       5.873  -2.204  16.481  1.00  0.00     0.307 C 
BRANCH  26  27
HETATM   27  N2  UNL     1       5.309  -3.419  15.938  1.00  0.00     0.105 N 
HETATM   28  C19 UNL     1       3.877  -3.297  16.009  1.00  0.00     0.278 C 
HETATM   29  C20 UNL     1       3.074  -4.530  16.005  1.00  0.00     0.018 C 
HETATM   30  C21 UNL     1       2.611  -4.831  14.571  1.00  0.00     0.007 C 
HETATM   31  C25 UNL     1       3.706  -5.726  16.636  1.00  0.00    -0.006 C 
HETATM   32  C22 UNL     1       1.639  -5.987  14.684  1.00  0.00     0.000 C 
HETATM   33  C23 UNL     1       2.490  -7.216  15.017  1.00  0.00     0.000 C 
HETATM   34  C24 UNL     1       3.008  -7.005  16.413  1.00  0.00     0.005 C 
HETATM   35  C26 UNL     1       5.165  -5.788  16.199  1.00  0.00     0.050 C 
HETATM   36  C27 UNL     1       5.759  -4.494  16.780  1.00  0.00     0.314 C 
BRANCH  36  37
HETATM   37  C28 UNL     1       7.189  -4.704  16.869  1.00  0.00     0.252 C 
HETATM   38  O4  UNL     1       7.797  -4.941  17.934  1.00  0.00    -0.271 OA
HETATM   39  N3  UNL     1       8.002  -4.645  15.686  1.00  0.00    -0.351 N 
ATOM     40  H3  UNL     1       7.555  -4.453  14.789  1.00  0.00     0.163 HD
BRANCH  39  41
HETATM   41  C29 UNL     1       9.431  -4.846  15.721  1.00  0.00     0.022 C 
HETATM   42  C30 UNL     1       9.985  -4.561  14.341  1.00  0.00     0.037 C 
HETATM   43  C31 UNL     1      10.118  -3.892  16.678  1.00  0.00     0.037 C 
HETATM   44  C32 UNL     1       9.816  -6.264  16.075  1.00  0.00     0.037 C 
ENDBRANCH  39  41
ENDBRANCH  36  37
ENDBRANCH  26  27
ENDBRANCH  23  26
ENDBRANCH   1  23
TORSDOF 12
ENDMDL
