MODEL 4
REMARK VINA RESULT: -10.273004668      1.779      7.745
REMARK  12 active torsions:
REMARK  status: ('A' for Active; 'I' for Inactive)
REMARK    1  A    between atoms: C3_3  and  O1_4 
REMARK    2  A    between atoms: C7_9  and  C8_10 
REMARK       I    between atoms: C8_10  and  N1_12 
REMARK    3  A    between atoms: N1_12  and  C9_14 
REMARK    4  A    between atoms: C9_14  and  C10_15 
REMARK    5  A    between atoms: C9_14  and  C17_23 
REMARK    6  A    between atoms: C10_15  and  S1_16 
REMARK    7  A    between atoms: S1_16  and  C11_17 
REMARK    8  A    between atoms: C17_23  and  O3_24 
REMARK    9  A    between atoms: C17_23  and  C18_26 
REMARK   10  A    between atoms: C18_26  and  N2_27 
REMARK   11  A    between atoms: C27_36  and  C28_37 
REMARK       I    between atoms: C28_37  and  N3_39 
REMARK   12  A    between atoms: N3_39  and  C29_41 
ROOT
HETATM    1  C9  UNL     1       6.347  -1.722  16.044  1.00  0.00     0.124 C 
ENDROOT
BRANCH   1   2
HETATM    2  N1  UNL     1       5.614  -2.872  15.625  1.00  0.00    -0.349 N 
HETATM    3  C8  UNL     1       4.370  -3.288  16.155  1.00  0.00     0.252 C 
HETATM    4  O2  UNL     1       3.847  -2.596  17.085  1.00  0.00    -0.268 OA
ATOM      5  H1  UNL     1       6.020  -3.441  14.882  1.00  0.00     0.163 HD
BRANCH   3   6
HETATM    6  C7  UNL     1       3.689  -4.486  15.654  1.00  0.00     0.040 A 
HETATM    7  C2  UNL     1       4.268  -5.707  15.895  1.00  0.00    -0.013 A 
HETATM    8  C1  UNL     1       5.529  -5.877  16.644  1.00  0.00     0.052 C 
HETATM    9  C3  UNL     1       3.612  -6.833  15.407  1.00  0.00     0.072 A 
HETATM   10  C4  UNL     1       2.423  -6.758  14.704  1.00  0.00     0.037 A 
HETATM   11  C5  UNL     1       1.868  -5.535  14.478  1.00  0.00     0.004 A 
HETATM   12  C6  UNL     1       2.508  -4.390  14.958  1.00  0.00     0.018 A 
BRANCH   9  13
HETATM   13  O1  UNL     1       4.136  -8.085  15.610  1.00  0.00    -0.360 OA
ATOM     14  H1  UNL     1       3.780  -8.650  16.285  1.00  0.00     0.217 HD
ENDBRANCH   9  13
ENDBRANCH   3   6
ENDBRANCH   1   2
BRANCH   1  15
HETATM   15  C10 UNL     1       7.839  -1.916  15.738  1.00  0.00     0.107 C 
BRANCH  15  16
HETATM   16  S1  UNL     1       8.119  -3.286  14.589  1.00  0.00    -0.128 SA
BRANCH  16  17
HETATM   17  C11 UNL     1       8.997  -4.578  15.445  1.00  0.00     0.000 A 
HETATM   18  C12 UNL     1       9.788  -4.292  16.559  1.00  0.00     0.018 A 
HETATM   19  C13 UNL     1      10.475  -5.267  17.241  1.00  0.00     0.001 A 
HETATM   20  C14 UNL     1      10.400  -6.582  16.836  1.00  0.00     0.000 A 
HETATM   21  C15 UNL     1       9.627  -6.886  15.741  1.00  0.00     0.001 A 
HETATM   22  C16 UNL     1       8.929  -5.886  15.051  1.00  0.00     0.018 A 
ENDBRANCH  16  17
ENDBRANCH  15  16
ENDBRANCH   1  15
BRANCH   1  23
HETATM   23  C17 UNL     1       5.849  -0.467  15.351  1.00  0.00     0.170 C 
BRANCH  23  24
HETATM   24  O3  UNL     1       4.964   0.252  16.108  1.00  0.00    -0.392 OA
ATOM     25  H3  UNL     1       4.427  -0.290  16.673  1.00  0.00     0.210 HD
ENDBRANCH  23  24
BRANCH  23  26
HETATM   26  C18 UNL     1       5.448  -0.658  13.924  1.00  0.00     0.307 C 
BRANCH  26  27
HETATM   27  N2  UNL     1       4.243   0.028  13.514  1.00  0.00     0.105 N 
HETATM   28  C19 UNL     1       3.152  -0.901  13.651  1.00  0.00     0.278 C 
HETATM   29  C20 UNL     1       1.935  -0.665  12.859  1.00  0.00     0.018 C 
HETATM   30  C21 UNL     1       0.911   0.099  13.714  1.00  0.00     0.007 C 
HETATM   31  C25 UNL     1       2.133  -0.011  11.531  1.00  0.00    -0.006 C 
HETATM   32  C22 UNL     1      -0.367   0.126  12.902  1.00  0.00     0.000 C 
HETATM   33  C23 UNL     1      -0.110   1.102  11.751  1.00  0.00     0.000 C 
HETATM   34  C24 UNL     1       0.904   0.443  10.857  1.00  0.00     0.005 C 
HETATM   35  C26 UNL     1       3.144   1.119  11.696  1.00  0.00     0.050 C 
HETATM   36  C27 UNL     1       4.422   0.383  12.132  1.00  0.00     0.314 C 
BRANCH  36  37
HETATM   37  C28 UNL     1       5.528   1.264  11.819  1.00  0.00     0.252 C 
HETATM   38  O4  UNL     1       5.479   2.509  11.914  1.00  0.00    -0.271 OA
HETATM   39  N3  UNL     1       6.779   0.721  11.367  1.00  0.00    -0.351 N 
ATOM     40  H3  UNL     1       6.872  -0.291  11.273  1.00  0.00     0.163 HD
BRANCH  39  41
HETATM   41  C29 UNL     1       7.910   1.557  11.042  1.00  0.00     0.022 C 
HETATM   42  C30 UNL     1       9.078   0.660  10.690  1.00  0.00     0.037 C 
HETATM   43  C31 UNL     1       7.644   2.430   9.832  1.00  0.00     0.037 C 
HETATM   44  C32 UNL     1       8.346   2.430  12.195  1.00  0.00     0.037 C 
ENDBRANCH  39  41
ENDBRANCH  36  37
ENDBRANCH  26  27
ENDBRANCH  23  26
ENDBRANCH   1  23
TORSDOF 12
ENDMDL
