MODEL 15
REMARK VINA RESULT: -4.870868727      6.750      8.181
REMARK  4 active torsions:
REMARK  status: ('A' for Active; 'I' for Inactive)
REMARK    1  A    between atoms: O1_1  and  C1_3 
REMARK    2  A    between atoms: C1_3  and  C2_4 
REMARK    3  A    between atoms: C5_10  and  O2_11 
REMARK    4  A    between atoms: C6_13  and  O3_14 
ROOT
HETATM    1  C2  UNL     1      -2.943   6.227  14.781  1.00  0.00     0.066 C 
HETATM    2  C3  UNL     1      -2.174   6.552  13.552  1.00  0.00     0.241 C 
HETATM    3  N1  UNL     1      -2.013   7.957  13.298  1.00  0.00    -0.072 N 
ATOM      4  H11 UNL     1      -2.874   8.351  12.918  1.00  0.00     0.277 HD
ATOM      5  H12 UNL     1      -1.389   8.106  12.506  1.00  0.00     0.277 HD
HETATM    6  C4  UNL     1      -1.575   8.716  14.426  1.00  0.00     0.266 C 
HETATM    7  C5  UNL     1      -2.316   8.461  15.689  1.00  0.00     0.172 C 
HETATM    8  C6  UNL     1      -3.411   7.431  15.547  1.00  0.00     0.156 C 
ENDROOT
BRANCH   1   9
HETATM    9  C1  UNL     1      -4.184   5.383  14.461  1.00  0.00     0.173 C 
BRANCH   9  10
HETATM   10  O1  UNL     1      -4.214   4.324  15.372  1.00  0.00    -0.400 OA
ATOM     11  H1  UNL     1      -4.119   3.520  14.875  1.00  0.00     0.209 HD
ENDBRANCH   9  10
ENDBRANCH   1   9
BRANCH   8  12
HETATM   12  O3  UNL     1      -3.732   7.002  16.842  1.00  0.00    -0.392 OA
ATOM     13  H3  UNL     1      -2.992   6.503  17.165  1.00  0.00     0.210 HD
ENDBRANCH   8  12
BRANCH   7  14
HETATM   14  O2  UNL     1      -2.865   9.602  16.266  1.00  0.00    -0.391 OA
ATOM     15  H2  UNL     1      -3.704   9.857  15.897  1.00  0.00     0.210 HD
ENDBRANCH   7  14
TORSDOF 4
ENDMDL
