MODEL 13
REMARK VINA RESULT: -4.979000581      7.589      8.129
REMARK  4 active torsions:
REMARK  status: ('A' for Active; 'I' for Inactive)
REMARK    1  A    between atoms: O1_1  and  C1_3 
REMARK    2  A    between atoms: C1_3  and  C2_4 
REMARK    3  A    between atoms: C5_10  and  O2_11 
REMARK    4  A    between atoms: C6_13  and  O3_14 
ROOT
HETATM    1  C2  UNL     1      -1.811   6.953  14.712  1.00  0.00     0.066 C 
HETATM    2  C3  UNL     1      -2.244   5.840  13.830  1.00  0.00     0.241 C 
HETATM    3  N1  UNL     1      -3.330   5.052  14.346  1.00  0.00    -0.072 N 
ATOM      4  H11 UNL     1      -2.995   4.412  15.066  1.00  0.00     0.277 HD
ATOM      5  H12 UNL     1      -3.645   4.380  13.647  1.00  0.00     0.277 HD
HETATM    6  C4  UNL     1      -4.435   5.816  14.834  1.00  0.00     0.266 C 
HETATM    7  C5  UNL     1      -4.078   6.935  15.745  1.00  0.00     0.172 C 
HETATM    8  C6  UNL     1      -2.594   7.064  15.989  1.00  0.00     0.156 C 
ENDROOT
BRANCH   1   9
HETATM    9  C1  UNL     1      -0.332   6.822  15.098  1.00  0.00     0.173 C 
BRANCH   9  10
HETATM   10  O1  UNL     1      -0.284   6.358  16.415  1.00  0.00    -0.400 OA
ATOM     11  H1  UNL     1      -1.154   6.459  16.783  1.00  0.00     0.209 HD
ENDBRANCH   9  10
ENDBRANCH   1   9
BRANCH   8  12
HETATM   12  O3  UNL     1      -2.379   8.351  16.500  1.00  0.00    -0.392 OA
ATOM     13  H3  UNL     1      -1.827   8.260  17.268  1.00  0.00     0.210 HD
ENDBRANCH   8  12
BRANCH   7  14
HETATM   14  O2  UNL     1      -4.719   6.889  16.979  1.00  0.00    -0.391 OA
ATOM     15  H2  UNL     1      -4.546   7.641  17.534  1.00  0.00     0.210 HD
ENDBRANCH   7  14
TORSDOF 4
ENDMDL
