MODEL 4
REMARK VINA RESULT: -5.507402515      1.580      3.180
REMARK  4 active torsions:
REMARK  status: ('A' for Active; 'I' for Inactive)
REMARK    1  A    between atoms: O1_1  and  C1_3 
REMARK    2  A    between atoms: C1_3  and  C2_4 
REMARK    3  A    between atoms: C5_10  and  O2_11 
REMARK    4  A    between atoms: C6_13  and  O3_14 
ROOT
HETATM    1  C2  UNL     1      -1.875  10.424   8.889  1.00  0.00     0.066 C 
HETATM    2  C3  UNL     1      -1.478  10.599  10.310  1.00  0.00     0.241 C 
HETATM    3  N1  UNL     1      -0.103  10.966  10.509  1.00  0.00    -0.072 N 
ATOM      4  H11 UNL     1       0.503  10.153  10.392  1.00  0.00     0.277 HD
ATOM      5  H12 UNL     1       0.071  11.173  11.492  1.00  0.00     0.277 HD
HETATM    6  C4  UNL     1       0.347  12.043   9.686  1.00  0.00     0.266 C 
HETATM    7  C5  UNL     1       0.006  11.924   8.244  1.00  0.00     0.172 C 
HETATM    8  C6  UNL     1      -0.765  10.671   7.908  1.00  0.00     0.156 C 
ENDROOT
BRANCH   1   9
HETATM    9  C1  UNL     1      -2.408   9.010   8.624  1.00  0.00     0.173 C 
BRANCH   9  10
HETATM   10  O1  UNL     1      -1.471   8.109   9.135  1.00  0.00    -0.400 OA
ATOM     11  H1  UNL     1      -1.871   7.247   9.123  1.00  0.00     0.209 HD
ENDBRANCH   9  10
ENDBRANCH   1   9
BRANCH   8  12
HETATM   12  O3  UNL     1      -1.355  10.883   6.655  1.00  0.00    -0.392 OA
ATOM     13  H3  UNL     1      -2.224  10.502   6.685  1.00  0.00     0.210 HD
ENDBRANCH   8  12
BRANCH   7  14
HETATM   14  O2  UNL     1       1.105  12.000   7.393  1.00  0.00    -0.391 OA
ATOM     15  H2  UNL     1       1.300  12.879   7.090  1.00  0.00     0.210 HD
ENDBRANCH   7  14
TORSDOF 4
ENDMDL
