MODEL 14
REMARK VINA RESULT: -4.871230523      8.187      9.489
REMARK  4 active torsions:
REMARK  status: ('A' for Active; 'I' for Inactive)
REMARK    1  A    between atoms: O1_1  and  C1_3 
REMARK    2  A    between atoms: C1_3  and  C2_4 
REMARK    3  A    between atoms: C5_10  and  O2_11 
REMARK    4  A    between atoms: C6_13  and  O3_14 
ROOT
HETATM    1  C2  UNL     1      -3.158   5.847  16.069  1.00  0.00     0.066 C 
HETATM    2  C3  UNL     1      -2.872   6.930  15.093  1.00  0.00     0.241 C 
HETATM    3  N1  UNL     1      -1.590   7.561  15.254  1.00  0.00    -0.072 N 
ATOM      4  H11 UNL     1      -1.610   8.212  16.039  1.00  0.00     0.277 HD
ATOM      5  H12 UNL     1      -1.417   8.215  14.491  1.00  0.00     0.277 HD
HETATM    6  C4  UNL     1      -0.496   6.653  15.389  1.00  0.00     0.266 C 
HETATM    7  C5  UNL     1      -0.702   5.554  16.369  1.00  0.00     0.172 C 
HETATM    8  C6  UNL     1      -2.048   5.598  17.050  1.00  0.00     0.156 C 
ENDROOT
BRANCH   1   9
HETATM    9  C1  UNL     1      -4.424   6.144  16.883  1.00  0.00     0.173 C 
BRANCH   9  10
HETATM   10  O1  UNL     1      -4.737   7.492  16.691  1.00  0.00    -0.400 OA
ATOM     11  H1  UNL     1      -4.317   7.768  15.885  1.00  0.00     0.209 HD
ENDBRANCH   9  10
ENDBRANCH   1   9
BRANCH   8  12
HETATM   12  O3  UNL     1      -2.261   4.330  17.607  1.00  0.00    -0.392 OA
ATOM     13  H3  UNL     1      -1.666   3.729  17.175  1.00  0.00     0.210 HD
ENDBRANCH   8  12
BRANCH   7  14
HETATM   14  O2  UNL     1       0.280   5.478  17.352  1.00  0.00    -0.391 OA
ATOM     15  H2  UNL     1      -0.060   5.467  18.239  1.00  0.00     0.210 HD
ENDBRANCH   7  14
TORSDOF 4
ENDMDL
