MODEL 11
REMARK VINA RESULT: -5.795651260      3.393      5.570
REMARK  3 active torsions:
REMARK  status: ('A' for Active; 'I' for Inactive)
REMARK    1  A    between atoms: N1_2  and  C3_4 
REMARK    2  A    between atoms: C8_9  and  S1_10 
REMARK    3  A    between atoms: S1_10  and  N2_11 
ROOT
HETATM    1  C3  UNL     1      -5.636   2.126  16.270  1.00  0.00     0.040 A 
HETATM    2  C4  UNL     1      -4.971   1.103  15.608  1.00  0.00     0.030 A 
HETATM    3  C5  UNL     1      -4.283   1.330  14.443  1.00  0.00     0.003 A 
HETATM    4  C6  UNL     1      -4.228   2.583  13.890  1.00  0.00     0.014 A 
HETATM    5  C7  UNL     1      -4.883   3.611  14.536  1.00  0.00    -0.000 A 
HETATM    6  C8  UNL     1      -4.836   4.892  13.991  1.00  0.00     0.090 A 
HETATM    7  C9  UNL     1      -5.474   5.950  14.603  1.00  0.00     0.026 A 
HETATM    8  C10 UNL     1      -6.154   5.680  15.768  1.00  0.00     0.003 A 
HETATM    9  C11 UNL     1      -6.223   4.430  16.337  1.00  0.00     0.014 A 
HETATM   10  C12 UNL     1      -5.584   3.384  15.719  1.00  0.00     0.002 A 
ENDROOT
BRANCH   6  11
HETATM   11  S1  UNL     1      -3.958   5.156  12.518  1.00  0.00     0.257 S 
HETATM   12  O1  UNL     1      -4.044   6.604  12.128  1.00  0.00    -0.201 OA
HETATM   13  O2  UNL     1      -4.512   4.361  11.372  1.00  0.00    -0.201 OA
BRANCH  11  14
HETATM   14  N2  UNL     1      -2.293   4.801  12.793  1.00  0.00    -0.324 N 
ATOM     15  H22 UNL     1      -1.852   3.900  12.610  1.00  0.00     0.169 HD
ATOM     16  H21 UNL     1      -1.835   5.634  13.162  1.00  0.00     0.169 HD
ENDBRANCH  11  14
ENDBRANCH   6  11
BRANCH   1  17
HETATM   17  N1  UNL     1      -6.351   1.865  17.468  1.00  0.00    -0.389 N 
HETATM   18  C1  UNL     1      -7.575   1.097  17.374  1.00  0.00     0.149 C 
HETATM   19  C2  UNL     1      -5.890   2.338  18.742  1.00  0.00     0.149 C 
ENDBRANCH   1  17
TORSDOF 3
ENDMDL
