MODEL 8
REMARK VINA RESULT: -6.188006049      3.436      5.090
REMARK  3 active torsions:
REMARK  status: ('A' for Active; 'I' for Inactive)
REMARK    1  A    between atoms: N1_2  and  C3_4 
REMARK    2  A    between atoms: C8_9  and  S1_10 
REMARK    3  A    between atoms: S1_10  and  N2_11 
ROOT
HETATM    1  C3  UNL     1      -6.257   3.392  16.884  1.00  0.00     0.040 A 
HETATM    2  C4  UNL     1      -6.684   4.658  17.259  1.00  0.00     0.030 A 
HETATM    3  C5  UNL     1      -6.405   5.764  16.497  1.00  0.00     0.003 A 
HETATM    4  C6  UNL     1      -5.691   5.656  15.332  1.00  0.00     0.014 A 
HETATM    5  C7  UNL     1      -5.260   4.404  14.945  1.00  0.00    -0.000 A 
HETATM    6  C8  UNL     1      -4.536   4.274  13.763  1.00  0.00     0.090 A 
HETATM    7  C9  UNL     1      -4.086   3.042  13.335  1.00  0.00     0.026 A 
HETATM    8  C10 UNL     1      -4.386   1.958  14.128  1.00  0.00     0.003 A 
HETATM    9  C11 UNL     1      -5.098   2.046  15.300  1.00  0.00     0.014 A 
HETATM   10  C12 UNL     1      -5.540   3.277  15.716  1.00  0.00     0.002 A 
ENDROOT
BRANCH   6  11
HETATM   11  S1  UNL     1      -4.197   5.686  12.814  1.00  0.00     0.257 S 
HETATM   12  O1  UNL     1      -3.476   6.701  13.654  1.00  0.00    -0.201 OA
HETATM   13  O2  UNL     1      -5.445   6.346  12.305  1.00  0.00    -0.201 OA
BRANCH  11  14
HETATM   14  N2  UNL     1      -3.137   5.249  11.525  1.00  0.00    -0.324 N 
ATOM     15  H22 UNL     1      -2.235   4.789  11.644  1.00  0.00     0.169 HD
ATOM     16  H21 UNL     1      -3.563   5.525  10.641  1.00  0.00     0.169 HD
ENDBRANCH  11  14
ENDBRANCH   6  11
BRANCH   1  17
HETATM   17  N1  UNL     1      -6.547   2.263  17.694  1.00  0.00    -0.389 N 
HETATM   18  C1  UNL     1      -5.968   2.211  19.020  1.00  0.00     0.149 C 
HETATM   19  C2  UNL     1      -7.388   1.196  17.231  1.00  0.00     0.149 C 
ENDBRANCH   1  17
TORSDOF 3
ENDMDL
