MODEL 9
REMARK VINA RESULT: -6.085178165      1.081      1.540
REMARK  3 active torsions:
REMARK  status: ('A' for Active; 'I' for Inactive)
REMARK    1  A    between atoms: N1_2  and  C3_4 
REMARK    2  A    between atoms: C8_9  and  S1_10 
REMARK    3  A    between atoms: S1_10  and  N2_11 
ROOT
HETATM    1  C3  UNL     1      -4.616   5.245  14.301  1.00  0.00     0.040 A 
HETATM    2  C4  UNL     1      -5.302   6.121  15.132  1.00  0.00     0.030 A 
HETATM    3  C5  UNL     1      -6.010   5.672  16.218  1.00  0.00     0.003 A 
HETATM    4  C6  UNL     1      -6.065   4.337  16.521  1.00  0.00     0.014 A 
HETATM    5  C7  UNL     1      -5.388   3.454  15.705  1.00  0.00    -0.000 A 
HETATM    6  C8  UNL     1      -5.430   2.093  15.999  1.00  0.00     0.090 A 
HETATM    7  C9  UNL     1      -4.767   1.175  15.213  1.00  0.00     0.026 A 
HETATM    8  C10 UNL     1      -4.069   1.664  14.133  1.00  0.00     0.003 A 
HETATM    9  C11 UNL     1      -4.004   2.999  13.811  1.00  0.00     0.014 A 
HETATM   10  C12 UNL     1      -4.667   3.905  14.601  1.00  0.00     0.002 A 
ENDROOT
BRANCH   6  11
HETATM   11  S1  UNL     1      -6.330   1.550  17.378  1.00  0.00     0.257 S 
HETATM   12  O1  UNL     1      -7.793   1.502  17.044  1.00  0.00    -0.201 OA
HETATM   13  O2  UNL     1      -6.181   2.468  18.557  1.00  0.00    -0.201 OA
BRANCH  11  14
HETATM   14  N2  UNL     1      -5.844  -0.061  17.761  1.00  0.00    -0.324 N 
ATOM     15  H22 UNL     1      -5.069  -0.304  18.378  1.00  0.00     0.169 HD
ATOM     16  H21 UNL     1      -6.454  -0.714  17.270  1.00  0.00     0.169 HD
ENDBRANCH  11  14
ENDBRANCH   6  11
BRANCH   1  17
HETATM   17  N1  UNL     1      -3.898   5.731  13.176  1.00  0.00    -0.389 N 
HETATM   18  C1  UNL     1      -2.507   6.087  13.361  1.00  0.00     0.149 C 
HETATM   19  C2  UNL     1      -4.516   5.872  11.888  1.00  0.00     0.149 C 
ENDBRANCH   1  17
TORSDOF 3
ENDMDL
