MODEL 1
REMARK VINA RESULT: -7.060135338      0.000      0.000
REMARK  3 active torsions:
REMARK  status: ('A' for Active; 'I' for Inactive)
REMARK    1  A    between atoms: N1_2  and  C3_4 
REMARK    2  A    between atoms: C8_9  and  S1_10 
REMARK    3  A    between atoms: S1_10  and  N2_11 
ROOT
HETATM    1  C3  UNL     1      -5.046   5.466  15.034  1.00  0.00     0.040 A 
HETATM    2  C4  UNL     1      -5.855   6.078  15.982  1.00  0.00     0.030 A 
HETATM    3  C5  UNL     1      -6.538   5.347  16.921  1.00  0.00     0.003 A 
HETATM    4  C6  UNL     1      -6.444   3.980  16.957  1.00  0.00     0.014 A 
HETATM    5  C7  UNL     1      -5.643   3.357  16.022  1.00  0.00    -0.000 A 
HETATM    6  C8  UNL     1      -5.533   1.969  16.044  1.00  0.00     0.090 A 
HETATM    7  C9  UNL     1      -4.743   1.303  15.131  1.00  0.00     0.026 A 
HETATM    8  C10 UNL     1      -4.075   2.071  14.205  1.00  0.00     0.003 A 
HETATM    9  C11 UNL     1      -4.159   3.442  14.151  1.00  0.00     0.014 A 
HETATM   10  C12 UNL     1      -4.948   4.095  15.065  1.00  0.00     0.002 A 
ENDROOT
BRANCH   6  11
HETATM   11  S1  UNL     1      -6.404   1.067  17.242  1.00  0.00     0.257 S 
HETATM   12  O1  UNL     1      -5.913  -0.352  17.267  1.00  0.00    -0.201 OA
HETATM   13  O2  UNL     1      -7.878   1.015  16.959  1.00  0.00    -0.201 OA
BRANCH  11  14
HETATM   14  N2  UNL     1      -6.079   1.745  18.794  1.00  0.00    -0.324 N 
ATOM     15  H22 UNL     1      -5.427   2.509  18.971  1.00  0.00     0.169 HD
ATOM     16  H21 UNL     1      -6.641   1.257  19.491  1.00  0.00     0.169 HD
ENDBRANCH  11  14
ENDBRANCH   6  11
BRANCH   1  17
HETATM   17  N1  UNL     1      -4.357   6.241  14.065  1.00  0.00    -0.389 N 
HETATM   18  C1  UNL     1      -5.049   6.558  12.832  1.00  0.00     0.149 C 
HETATM   19  C2  UNL     1      -3.017   6.706  14.281  1.00  0.00     0.149 C 
ENDBRANCH   1  17
TORSDOF 3
ENDMDL
