MODEL 13
REMARK VINA RESULT: -5.695132366      4.154      5.143
REMARK  3 active torsions:
REMARK  status: ('A' for Active; 'I' for Inactive)
REMARK    1  A    between atoms: N1_2  and  C3_4 
REMARK    2  A    between atoms: C8_9  and  S1_10 
REMARK    3  A    between atoms: S1_10  and  N2_11 
ROOT
HETATM    1  C3  UNL     1      -3.461   5.091  12.086  1.00  0.00     0.040 A 
HETATM    2  C4  UNL     1      -2.768   5.202  10.888  1.00  0.00     0.030 A 
HETATM    3  C5  UNL     1      -2.394   4.094  10.171  1.00  0.00     0.003 A 
HETATM    4  C6  UNL     1      -2.693   2.833  10.615  1.00  0.00     0.014 A 
HETATM    5  C7  UNL     1      -3.383   2.706  11.803  1.00  0.00    -0.000 A 
HETATM    6  C8  UNL     1      -3.698   1.431  12.268  1.00  0.00     0.090 A 
HETATM    7  C9  UNL     1      -4.387   1.256  13.449  1.00  0.00     0.026 A 
HETATM    8  C10 UNL     1      -4.744   2.391  14.140  1.00  0.00     0.003 A 
HETATM    9  C11 UNL     1      -4.451   3.665  13.713  1.00  0.00     0.014 A 
HETATM   10  C12 UNL     1      -3.765   3.828  12.536  1.00  0.00     0.002 A 
ENDROOT
BRANCH   6  11
HETATM   11  S1  UNL     1      -3.216   0.045  11.343  1.00  0.00     0.257 S 
HETATM   12  O1  UNL     1      -1.727  -0.124  11.420  1.00  0.00    -0.201 OA
HETATM   13  O2  UNL     1      -3.567   0.178   9.890  1.00  0.00    -0.201 OA
BRANCH  11  14
HETATM   14  N2  UNL     1      -3.925  -1.364  12.042  1.00  0.00    -0.324 N 
ATOM     15  H22 UNL     1      -4.049  -1.518  13.043  1.00  0.00     0.169 HD
ATOM     16  H21 UNL     1      -4.193  -2.003  11.295  1.00  0.00     0.169 HD
ENDBRANCH  11  14
ENDBRANCH   6  11
BRANCH   1  17
HETATM   17  N1  UNL     1      -3.829   6.251  12.817  1.00  0.00    -0.389 N 
HETATM   18  C1  UNL     1      -5.076   6.903  12.475  1.00  0.00     0.149 C 
HETATM   19  C2  UNL     1      -3.004   6.776  13.867  1.00  0.00     0.149 C 
ENDBRANCH   1  17
TORSDOF 3
ENDMDL
