MODEL 4
REMARK VINA RESULT: -6.755453567      0.870      1.324
REMARK  3 active torsions:
REMARK  status: ('A' for Active; 'I' for Inactive)
REMARK    1  A    between atoms: N1_2  and  C3_4 
REMARK    2  A    between atoms: C8_9  and  S1_10 
REMARK    3  A    between atoms: S1_10  and  N2_11 
ROOT
HETATM    1  C3  UNL     1      -5.099   5.492  14.976  1.00  0.00     0.040 A 
HETATM    2  C4  UNL     1      -5.860   6.044  15.998  1.00  0.00     0.030 A 
HETATM    3  C5  UNL     1      -6.444   5.260  16.961  1.00  0.00     0.003 A 
HETATM    4  C6  UNL     1      -6.294   3.897  16.947  1.00  0.00     0.014 A 
HETATM    5  C7  UNL     1      -5.540   3.335  15.938  1.00  0.00    -0.000 A 
HETATM    6  C8  UNL     1      -5.374   1.952  15.909  1.00  0.00     0.090 A 
HETATM    7  C9  UNL     1      -4.628   1.345  14.921  1.00  0.00     0.026 A 
HETATM    8  C10 UNL     1      -4.060   2.166  13.974  1.00  0.00     0.003 A 
HETATM    9  C11 UNL     1      -4.200   3.533  13.969  1.00  0.00     0.014 A 
HETATM   10  C12 UNL     1      -4.946   4.126  14.957  1.00  0.00     0.002 A 
ENDROOT
BRANCH   6  11
HETATM   11  S1  UNL     1      -6.119   0.981  17.138  1.00  0.00     0.257 S 
HETATM   12  O1  UNL     1      -5.576   1.361  18.485  1.00  0.00    -0.201 OA
HETATM   13  O2  UNL     1      -5.846  -0.484  16.953  1.00  0.00    -0.201 OA
BRANCH  11  14
HETATM   14  N2  UNL     1      -7.812   1.315  17.160  1.00  0.00    -0.324 N 
ATOM     15  H22 UNL     1      -8.413   1.327  16.336  1.00  0.00     0.169 HD
ATOM     16  H21 UNL     1      -8.099   1.494  18.121  1.00  0.00     0.169 HD
ENDBRANCH  11  14
ENDBRANCH   6  11
BRANCH   1  17
HETATM   17  N1  UNL     1      -4.514   6.322  13.984  1.00  0.00    -0.389 N 
HETATM   18  C1  UNL     1      -3.179   6.829  14.224  1.00  0.00     0.149 C 
HETATM   19  C2  UNL     1      -5.208   6.659  12.773  1.00  0.00     0.149 C 
ENDBRANCH   1  17
TORSDOF 3
ENDMDL
