MODEL 3
REMARK VINA RESULT: -11.003374133      1.379      1.931
REMARK  2 active torsions:
REMARK  status: ('A' for Active; 'I' for Inactive)
REMARK    1  A    between atoms: C1_2  and  C2_4 
REMARK    2  A    between atoms: C2_4  and  C3_5 
ROOT
HETATM    1  C3  UNL     1      24.322   4.773  18.436  1.00  0.00     0.009 A 
HETATM    2  C4  UNL     1      23.663   5.233  19.575  1.00  0.00     0.002 A 
HETATM    3  C5  UNL     1      23.576   4.686  20.835  1.00  0.00     0.014 A 
HETATM    4  C6  UNL     1      22.875   5.288  21.866  1.00  0.00     0.001 A 
HETATM    5  C7  UNL     1      22.256   6.467  21.584  1.00  0.00     0.002 A 
HETATM    6  C8  UNL     1      22.319   7.053  20.317  1.00  0.00     0.031 A 
HETATM    7  C9  UNL     1      23.026   6.434  19.302  1.00  0.00     0.052 A 
HETATM    8  N1  UNL     1      23.285   6.723  18.003  1.00  0.00    -0.295 N 
HETATM    9  C10 UNL     1      24.063   5.724  17.482  1.00  0.00     0.123 A 
HETATM   10  N2  UNL     1      24.426   5.812  16.183  1.00  0.00    -0.308 N 
ATOM     11  H2  UNL     1      25.007   5.067  15.798  1.00  0.00     0.170 HD
HETATM   12  C11 UNL     1      24.079   6.798  15.384  1.00  0.00     0.259 A 
HETATM   13  O3  UNL     1      24.419   6.879  14.187  1.00  0.00    -0.267 OA
HETATM   14  C12 UNL     1      23.298   7.810  15.882  1.00  0.00     0.059 A 
HETATM   15  C13 UNL     1      22.923   8.851  15.051  1.00  0.00     0.019 A 
HETATM   16  C14 UNL     1      22.136   9.876  15.529  1.00  0.00     0.001 A 
HETATM   17  C15 UNL     1      21.755   9.824  16.824  1.00  0.00     0.002 A 
HETATM   18  C16 UNL     1      22.132   8.772  17.667  1.00  0.00     0.031 A 
HETATM   19  C17 UNL     1      22.907   7.751  17.214  1.00  0.00     0.057 A 
ENDROOT
BRANCH   1  20
HETATM   20  C2  UNL     1      25.101   3.533  18.408  1.00  0.00     0.156 C 
BRANCH  20  21
HETATM   21  C1  UNL     1      26.436   3.654  17.845  1.00  0.00     0.177 C 
HETATM   22  O1  UNL     1      27.434   3.272  18.549  1.00  0.00    -0.648 OA
HETATM   23  O2  UNL     1      26.759   4.158  16.594  1.00  0.00    -0.648 OA
ENDBRANCH  20  21
ENDBRANCH   1  20
TORSDOF 2
ENDMDL
