MODEL 5
REMARK VINA RESULT: -10.741277883      2.547      4.659
REMARK  2 active torsions:
REMARK  status: ('A' for Active; 'I' for Inactive)
REMARK    1  A    between atoms: C1_2  and  C2_4 
REMARK    2  A    between atoms: C2_4  and  C3_5 
ROOT
HETATM    1  C3  UNL     1      21.288   8.236  19.570  1.00  0.00     0.009 A 
HETATM    2  C4  UNL     1      21.371   9.019  18.419  1.00  0.00     0.002 A 
HETATM    3  C5  UNL     1      20.707  10.177  18.081  1.00  0.00     0.014 A 
HETATM    4  C6  UNL     1      20.918  10.837  16.882  1.00  0.00     0.001 A 
HETATM    5  C7  UNL     1      21.824  10.288  16.027  1.00  0.00     0.002 A 
HETATM    6  C8  UNL     1      22.516   9.114  16.335  1.00  0.00     0.031 A 
HETATM    7  C9  UNL     1      22.290   8.472  17.538  1.00  0.00     0.052 A 
HETATM    8  N1  UNL     1      22.779   7.355  18.132  1.00  0.00    -0.295 N 
HETATM    9  C10 UNL     1      22.176   7.213  19.353  1.00  0.00     0.123 A 
HETATM   10  N2  UNL     1      22.514   6.146  20.110  1.00  0.00    -0.308 N 
ATOM     11  H2  UNL     1      22.064   6.043  21.020  1.00  0.00     0.170 HD
HETATM   12  C11 UNL     1      23.387   5.230  19.748  1.00  0.00     0.259 A 
HETATM   13  O3  UNL     1      23.701   4.249  20.450  1.00  0.00    -0.267 OA
HETATM   14  C12 UNL     1      24.004   5.349  18.528  1.00  0.00     0.059 A 
HETATM   15  C13 UNL     1      24.922   4.393  18.135  1.00  0.00     0.019 A 
HETATM   16  C14 UNL     1      25.551   4.489  16.912  1.00  0.00     0.001 A 
HETATM   17  C15 UNL     1      25.240   5.545  16.129  1.00  0.00     0.002 A 
HETATM   18  C16 UNL     1      24.311   6.515  16.524  1.00  0.00     0.031 A 
HETATM   19  C17 UNL     1      23.680   6.436  17.725  1.00  0.00     0.057 A 
ENDROOT
BRANCH   1  20
HETATM   20  C2  UNL     1      20.412   8.562  20.698  1.00  0.00     0.156 C 
BRANCH  20  21
HETATM   21  C1  UNL     1      20.992   8.346  22.014  1.00  0.00     0.177 C 
HETATM   22  O1  UNL     1      21.169   9.358  22.778  1.00  0.00    -0.648 OA
HETATM   23  O2  UNL     1      21.395   7.131  22.547  1.00  0.00    -0.648 OA
ENDBRANCH  20  21
ENDBRANCH   1  20
TORSDOF 2
ENDMDL
