MODEL 1
REMARK VINA RESULT: -11.308856890      0.000      0.000
REMARK  2 active torsions:
REMARK  status: ('A' for Active; 'I' for Inactive)
REMARK    1  A    between atoms: C1_2  and  C2_4 
REMARK    2  A    between atoms: C2_4  and  C3_5 
ROOT
HETATM    1  C3  UNL     1      23.494   5.802  19.764  1.00  0.00     0.009 A 
HETATM    2  C4  UNL     1      22.592   6.702  20.331  1.00  0.00     0.002 A 
HETATM    3  C5  UNL     1      22.091   6.772  21.612  1.00  0.00     0.014 A 
HETATM    4  C6  UNL     1      21.196   7.749  22.013  1.00  0.00     0.001 A 
HETATM    5  C7  UNL     1      20.815   8.659  21.074  1.00  0.00     0.002 A 
HETATM    6  C8  UNL     1      21.301   8.619  19.765  1.00  0.00     0.031 A 
HETATM    7  C9  UNL     1      22.194   7.635  19.386  1.00  0.00     0.052 A 
HETATM    8  N1  UNL     1      22.842   7.321  18.236  1.00  0.00    -0.295 N 
HETATM    9  C10 UNL     1      23.622   6.220  18.463  1.00  0.00     0.123 A 
HETATM   10  N2  UNL     1      24.347   5.730  17.433  1.00  0.00    -0.308 N 
ATOM     11  H2  UNL     1      24.928   4.909  17.605  1.00  0.00     0.170 HD
HETATM   12  C11 UNL     1      24.351   6.245  16.222  1.00  0.00     0.259 A 
HETATM   13  O3  UNL     1      25.024   5.794  15.275  1.00  0.00    -0.267 OA
HETATM   14  C12 UNL     1      23.576   7.348  15.969  1.00  0.00     0.059 A 
HETATM   15  C13 UNL     1      23.570   7.897  14.700  1.00  0.00     0.019 A 
HETATM   16  C14 UNL     1      22.796   9.003  14.422  1.00  0.00     0.001 A 
HETATM   17  C15 UNL     1      22.060   9.523  15.428  1.00  0.00     0.002 A 
HETATM   18  C16 UNL     1      22.064   8.969  16.713  1.00  0.00     0.031 A 
HETATM   19  C17 UNL     1      22.819   7.878  17.007  1.00  0.00     0.057 A 
ENDROOT
BRANCH   1  20
HETATM   20  C2  UNL     1      24.108   4.704  20.514  1.00  0.00     0.156 C 
BRANCH  20  21
HETATM   21  C1  UNL     1      24.725   3.669  19.701  1.00  0.00     0.177 C 
HETATM   22  O1  UNL     1      25.993   3.507  19.775  1.00  0.00    -0.648 OA
HETATM   23  O2  UNL     1      24.075   2.816  18.821  1.00  0.00    -0.648 OA
ENDBRANCH  20  21
ENDBRANCH   1  20
TORSDOF 2
ENDMDL
