MODEL 2
REMARK VINA RESULT: -11.115983221      1.349      4.759
REMARK  2 active torsions:
REMARK  status: ('A' for Active; 'I' for Inactive)
REMARK    1  A    between atoms: C1_2  and  C2_4 
REMARK    2  A    between atoms: C2_4  and  C3_5 
ROOT
HETATM    1  C3  UNL     1      23.639   7.023  17.086  1.00  0.00     0.009 A 
HETATM    2  C4  UNL     1      22.875   8.166  16.853  1.00  0.00     0.002 A 
HETATM    3  C5  UNL     1      22.765   8.948  15.724  1.00  0.00     0.014 A 
HETATM    4  C6  UNL     1      21.943  10.059  15.662  1.00  0.00     0.001 A 
HETATM    5  C7  UNL     1      21.229  10.362  16.781  1.00  0.00     0.002 A 
HETATM    6  C8  UNL     1      21.315   9.594  17.945  1.00  0.00     0.031 A 
HETATM    7  C9  UNL     1      22.143   8.487  17.985  1.00  0.00     0.052 A 
HETATM    8  N1  UNL     1      22.447   7.553  18.920  1.00  0.00    -0.295 N 
HETATM    9  C10 UNL     1      23.347   6.674  18.381  1.00  0.00     0.123 A 
HETATM   10  N2  UNL     1      23.795   5.664  19.159  1.00  0.00    -0.308 N 
ATOM     11  H2  UNL     1      24.465   5.010  18.753  1.00  0.00     0.170 HD
HETATM   12  C11 UNL     1      23.422   5.471  20.405  1.00  0.00     0.259 A 
HETATM   13  O3  UNL     1      23.834   4.535  21.120  1.00  0.00    -0.267 OA
HETATM   14  C12 UNL     1      22.523   6.339  20.970  1.00  0.00     0.059 A 
HETATM   15  C13 UNL     1      22.125   6.149  22.281  1.00  0.00     0.019 A 
HETATM   16  C14 UNL     1      21.225   7.011  22.869  1.00  0.00     0.001 A 
HETATM   17  C15 UNL     1      20.753   8.032  22.122  1.00  0.00     0.002 A 
HETATM   18  C16 UNL     1      21.154   8.228  20.795  1.00  0.00     0.031 A 
HETATM   19  C17 UNL     1      22.041   7.389  20.197  1.00  0.00     0.057 A 
ENDROOT
BRANCH   1  20
HETATM   20  C2  UNL     1      24.511   6.422  16.074  1.00  0.00     0.156 C 
BRANCH  20  21
HETATM   21  C1  UNL     1      25.047   5.115  16.417  1.00  0.00     0.177 C 
HETATM   22  O1  UNL     1      26.318   4.964  16.444  1.00  0.00    -0.648 OA
HETATM   23  O2  UNL     1      24.314   3.978  16.721  1.00  0.00    -0.648 OA
ENDBRANCH  20  21
ENDBRANCH   1  20
TORSDOF 2
ENDMDL
