MODEL 6
REMARK VINA RESULT: -6.779657928      3.187      6.768
REMARK  16 active torsions:
REMARK  status: ('A' for Active; 'I' for Inactive)
REMARK    1  A    between atoms: C2_2  and  C3_3 
REMARK    2  A    between atoms: C3_3  and  C4_4 
REMARK    3  A    between atoms: C4_4  and  C5_5 
REMARK    4  A    between atoms: C5_5  and  N1_6 
REMARK       I    between atoms: N1_6  and  C6_8 
REMARK    5  A    between atoms: C6_8  and  C7_10 
REMARK    6  A    between atoms: C7_10  and  C8_11 
REMARK    7  A    between atoms: C7_10  and  N4_38 
REMARK    8  A    between atoms: C8_11  and  C9_12 
REMARK    9  A    between atoms: C12_15  and  N2_16 
REMARK       I    between atoms: N2_16  and  C13_17 
REMARK   10  A    between atoms: N2_16  and  C15_22 
REMARK   11  A    between atoms: C13_17  and  C14_19 
REMARK   12  A    between atoms: C20_27  and  C21_28 
REMARK   13  A    between atoms: C22_31  and  C23_32 
REMARK   14  A    between atoms: C23_32  and  C24_33 
REMARK   15  A    between atoms: C24_33  and  C25_34 
REMARK   16  A    between atoms: N4_38  and  S1_40 
ROOT
HETATM    1  C9  UNL     1      31.759  26.186  18.753  1.00  0.00    -0.055 A 
HETATM    2  C10 UNL     1      32.027  26.198  20.102  1.00  0.00     0.009 A 
HETATM    3  C11 UNL     1      33.277  25.860  20.529  1.00  0.00     0.031 A 
HETATM    4  C12 UNL     1      34.343  25.492  19.675  1.00  0.00     0.049 A 
HETATM    5  C22 UNL     1      34.055  25.484  18.354  1.00  0.00    -0.030 A 
HETATM    6  C26 UNL     1      32.761  25.834  17.898  1.00  0.00     0.016 A 
ENDROOT
BRANCH   1   7
HETATM    7  C8  UNL     1      30.404  26.555  18.296  1.00  0.00     0.074 C 
BRANCH   7   8
HETATM    8  C7  UNL     1      30.080  27.962  18.683  1.00  0.00     0.188 C 
BRANCH   8   9
HETATM    9  C6  UNL     1      31.169  28.894  18.249  1.00  0.00     0.241 C 
HETATM   10  N1  UNL     1      31.855  29.730  19.159  1.00  0.00    -0.359 N 
ATOM     11  H1  UNL     1      31.606  29.699  20.147  1.00  0.00     0.162 HD
HETATM   12  O1  UNL     1      31.459  28.912  17.029  1.00  0.00    -0.271 OA
BRANCH  10  13
HETATM   13  C5  UNL     1      32.909  30.635  18.723  1.00  0.00     0.122 C 
BRANCH  13  14
HETATM   14  C4  UNL     1      34.183  30.403  19.495  1.00  0.00     0.020 C 
BRANCH  14  15
HETATM   15  C3  UNL     1      34.805  29.112  19.080  1.00  0.00     0.001 C 
BRANCH  15  16
HETATM   16  C2  UNL     1      35.148  29.034  17.625  1.00  0.00    -0.004 C 
HETATM   17  C1  UNL     1      36.510  29.637  17.311  1.00  0.00     0.005 C 
ENDBRANCH  15  16
ENDBRANCH  14  15
ENDBRANCH  13  14
ENDBRANCH  10  13
ENDBRANCH   8   9
BRANCH   8  18
HETATM   18  N4  UNL     1      28.794  28.438  18.309  1.00  0.00    -0.306 N 
ATOM     19  H4  UNL     1      28.169  27.879  17.727  1.00  0.00     0.173 HD
BRANCH  18  20
HETATM   20  S1  UNL     1      28.342  29.966  18.866  1.00  0.00     0.223 S 
HETATM   21  C27 UNL     1      26.604  30.274  18.875  1.00  0.00     0.185 C 
HETATM   22  O8  UNL     1      28.945  30.153  20.251  1.00  0.00    -0.206 OA
HETATM   23  O9  UNL     1      29.063  30.998  18.007  1.00  0.00    -0.206 OA
ENDBRANCH  18  20
ENDBRANCH   8  18
ENDBRANCH   7   8
ENDBRANCH   1   7
BRANCH   5  24
HETATM   24  C23 UNL     1      35.016  25.050  17.317  1.00  0.00     0.049 C 
BRANCH  24  25
HETATM   25  C24 UNL     1      34.837  23.567  16.969  1.00  0.00     0.104 C 
BRANCH  25  26
HETATM   26  C25 UNL     1      36.100  22.862  17.286  1.00  0.00     0.231 C 
HETATM   27  N3  UNL     1      36.097  21.442  17.312  1.00  0.00    -0.062 NA
HETATM   28  O7  UNL     1      37.176  23.498  17.534  1.00  0.00    -0.277 OA
ENDBRANCH  25  26
ENDBRANCH  24  25
ENDBRANCH   5  24
BRANCH   4  29
HETATM   29  N2  UNL     1      35.573  25.242  20.335  1.00  0.00    -0.272 N 
HETATM   30  C13 UNL     1      35.828  23.961  20.838  1.00  0.00     0.329 C 
HETATM   31  O2  UNL     1      34.995  23.035  20.528  1.00  0.00    -0.260 OA
BRANCH  30  32
HETATM   32  C14 UNL     1      36.958  23.589  21.695  1.00  0.00     0.270 C 
HETATM   33  O3  UNL     1      36.820  23.459  22.908  1.00  0.00    -0.640 OA
HETATM   34  O4  UNL     1      38.205  23.381  21.119  1.00  0.00    -0.640 OA
ENDBRANCH  30  32
BRANCH  29  35
HETATM   35  C15 UNL     1      36.486  26.298  20.531  1.00  0.00     0.060 A 
HETATM   36  C16 UNL     1      37.468  26.448  19.529  1.00  0.00     0.031 A 
HETATM   37  C17 UNL     1      38.377  27.451  19.642  1.00  0.00     0.002 A 
HETATM   38  C18 UNL     1      38.391  28.343  20.698  1.00  0.00     0.001 A 
HETATM   39  C19 UNL     1      37.430  28.190  21.671  1.00  0.00     0.021 A 
HETATM   40  C20 UNL     1      36.480  27.176  21.594  1.00  0.00     0.068 A 
BRANCH  40  41
HETATM   41  C21 UNL     1      35.520  27.086  22.677  1.00  0.00     0.211 C 
HETATM   42  O5  UNL     1      35.441  26.192  23.538  1.00  0.00    -0.644 OA
HETATM   43  O6  UNL     1      34.562  28.104  22.795  1.00  0.00    -0.644 OA
ENDBRANCH  40  41
ENDBRANCH  29  35
ENDBRANCH   4  29
TORSDOF 16
ENDMDL
