MODEL 1
REMARK VINA RESULT: -7.208720606      0.000      0.000
REMARK  16 active torsions:
REMARK  status: ('A' for Active; 'I' for Inactive)
REMARK    1  A    between atoms: C2_2  and  C3_3 
REMARK    2  A    between atoms: C3_3  and  C4_4 
REMARK    3  A    between atoms: C4_4  and  C5_5 
REMARK    4  A    between atoms: C5_5  and  N1_6 
REMARK       I    between atoms: N1_6  and  C6_8 
REMARK    5  A    between atoms: C6_8  and  C7_10 
REMARK    6  A    between atoms: C7_10  and  C8_11 
REMARK    7  A    between atoms: C7_10  and  N4_38 
REMARK    8  A    between atoms: C8_11  and  C9_12 
REMARK    9  A    between atoms: C12_15  and  N2_16 
REMARK       I    between atoms: N2_16  and  C13_17 
REMARK   10  A    between atoms: N2_16  and  C15_22 
REMARK   11  A    between atoms: C13_17  and  C14_19 
REMARK   12  A    between atoms: C20_27  and  C21_28 
REMARK   13  A    between atoms: C22_31  and  C23_32 
REMARK   14  A    between atoms: C23_32  and  C24_33 
REMARK   15  A    between atoms: C24_33  and  C25_34 
REMARK   16  A    between atoms: N4_38  and  S1_40 
ROOT
HETATM    1  C9  UNL     1      33.185  24.369  18.154  1.00  0.00    -0.055 A 
HETATM    2  C10 UNL     1      32.414  24.680  19.249  1.00  0.00     0.009 A 
HETATM    3  C11 UNL     1      32.728  25.785  19.983  1.00  0.00     0.031 A 
HETATM    4  C12 UNL     1      33.807  26.656  19.700  1.00  0.00     0.049 A 
HETATM    5  C22 UNL     1      34.552  26.327  18.621  1.00  0.00    -0.030 A 
HETATM    6  C26 UNL     1      34.236  25.183  17.850  1.00  0.00     0.016 A 
ENDROOT
BRANCH   1   7
HETATM    7  C8  UNL     1      32.839  23.173  17.360  1.00  0.00     0.074 C 
BRANCH   7   8
HETATM    8  C7  UNL     1      34.072  22.506  16.841  1.00  0.00     0.188 C 
BRANCH   8   9
HETATM    9  C6  UNL     1      34.474  21.372  17.732  1.00  0.00     0.241 C 
HETATM   10  N1  UNL     1      33.651  20.907  18.783  1.00  0.00    -0.359 N 
ATOM     11  H1  UNL     1      32.749  21.356  18.942  1.00  0.00     0.162 HD
HETATM   12  O1  UNL     1      35.586  20.835  17.513  1.00  0.00    -0.271 OA
BRANCH  10  13
HETATM   13  C5  UNL     1      34.056  19.806  19.644  1.00  0.00     0.122 C 
BRANCH  13  14
HETATM   14  C4  UNL     1      34.369  20.288  21.038  1.00  0.00     0.020 C 
BRANCH  14  15
HETATM   15  C3  UNL     1      34.298  21.777  21.092  1.00  0.00     0.001 C 
BRANCH  15  16
HETATM   16  C2  UNL     1      35.596  22.443  21.430  1.00  0.00    -0.004 C 
HETATM   17  C1  UNL     1      36.233  23.127  20.228  1.00  0.00     0.005 C 
ENDBRANCH  15  16
ENDBRANCH  14  15
ENDBRANCH  13  14
ENDBRANCH  10  13
ENDBRANCH   8   9
BRANCH   8  18
HETATM   18  N4  UNL     1      34.054  22.125  15.472  1.00  0.00    -0.306 N 
ATOM     19  H4  UNL     1      33.533  21.307  15.156  1.00  0.00     0.173 HD
BRANCH  18  20
HETATM   20  S1  UNL     1      34.929  23.082  14.390  1.00  0.00     0.223 S 
HETATM   21  C27 UNL     1      35.336  22.299  12.862  1.00  0.00     0.185 C 
HETATM   22  O8  UNL     1      34.143  24.365  14.164  1.00  0.00    -0.206 OA
HETATM   23  O9  UNL     1      36.192  23.543  15.107  1.00  0.00    -0.206 OA
ENDBRANCH  18  20
ENDBRANCH   8  18
ENDBRANCH   7   8
ENDBRANCH   1   7
BRANCH   5  24
HETATM   24  C23 UNL     1      35.765  27.071  18.217  1.00  0.00     0.049 C 
BRANCH  24  25
HETATM   25  C24 UNL     1      37.040  26.385  18.722  1.00  0.00     0.104 C 
BRANCH  25  26
HETATM   26  C25 UNL     1      38.138  27.378  18.703  1.00  0.00     0.231 C 
HETATM   27  N3  UNL     1      38.646  27.853  19.940  1.00  0.00    -0.062 NA
HETATM   28  O7  UNL     1      38.629  27.811  17.608  1.00  0.00    -0.277 OA
ENDBRANCH  25  26
ENDBRANCH  24  25
ENDBRANCH   5  24
BRANCH   4  29
HETATM   29  N2  UNL     1      33.907  27.777  20.562  1.00  0.00    -0.272 N 
HETATM   30  C13 UNL     1      34.742  27.702  21.683  1.00  0.00     0.329 C 
HETATM   31  O2  UNL     1      35.501  26.672  21.778  1.00  0.00    -0.260 OA
BRANCH  30  32
HETATM   32  C14 UNL     1      34.817  28.694  22.760  1.00  0.00     0.270 C 
HETATM   33  O3  UNL     1      33.963  28.742  23.640  1.00  0.00    -0.640 OA
HETATM   34  O4  UNL     1      35.876  29.593  22.781  1.00  0.00    -0.640 OA
ENDBRANCH  30  32
BRANCH  29  35
HETATM   35  C15 UNL     1      33.117  28.919  20.315  1.00  0.00     0.060 A 
HETATM   36  C16 UNL     1      31.811  28.882  20.847  1.00  0.00     0.031 A 
HETATM   37  C17 UNL     1      30.993  29.951  20.660  1.00  0.00     0.002 A 
HETATM   38  C18 UNL     1      31.377  31.084  19.968  1.00  0.00     0.001 A 
HETATM   39  C19 UNL     1      32.652  31.111  19.452  1.00  0.00     0.021 A 
HETATM   40  C20 UNL     1      33.522  30.038  19.620  1.00  0.00     0.068 A 
BRANCH  40  41
HETATM   41  C21 UNL     1      34.838  30.155  19.023  1.00  0.00     0.211 C 
HETATM   42  O5  UNL     1      35.936  30.104  19.607  1.00  0.00    -0.644 OA
HETATM   43  O6  UNL     1      34.918  30.348  17.636  1.00  0.00    -0.644 OA
ENDBRANCH  40  41
ENDBRANCH  29  35
ENDBRANCH   4  29
TORSDOF 16
ENDMDL
