MODEL 7
REMARK VINA RESULT: -6.771324289      2.871      7.219
REMARK  16 active torsions:
REMARK  status: ('A' for Active; 'I' for Inactive)
REMARK    1  A    between atoms: C2_2  and  C3_3 
REMARK    2  A    between atoms: C3_3  and  C4_4 
REMARK    3  A    between atoms: C4_4  and  C5_5 
REMARK    4  A    between atoms: C5_5  and  N1_6 
REMARK       I    between atoms: N1_6  and  C6_8 
REMARK    5  A    between atoms: C6_8  and  C7_10 
REMARK    6  A    between atoms: C7_10  and  C8_11 
REMARK    7  A    between atoms: C7_10  and  N4_38 
REMARK    8  A    between atoms: C8_11  and  C9_12 
REMARK    9  A    between atoms: C12_15  and  N2_16 
REMARK       I    between atoms: N2_16  and  C13_17 
REMARK   10  A    between atoms: N2_16  and  C15_22 
REMARK   11  A    between atoms: C13_17  and  C14_19 
REMARK   12  A    between atoms: C20_27  and  C21_28 
REMARK   13  A    between atoms: C22_31  and  C23_32 
REMARK   14  A    between atoms: C23_32  and  C24_33 
REMARK   15  A    between atoms: C24_33  and  C25_34 
REMARK   16  A    between atoms: N4_38  and  S1_40 
ROOT
HETATM    1  C9  UNL     1      35.732  28.973  18.220  1.00  0.00    -0.055 A 
HETATM    2  C10 UNL     1      36.576  27.978  17.785  1.00  0.00     0.009 A 
HETATM    3  C11 UNL     1      36.554  26.772  18.420  1.00  0.00     0.031 A 
HETATM    4  C12 UNL     1      35.714  26.456  19.513  1.00  0.00     0.049 A 
HETATM    5  C22 UNL     1      34.896  27.451  19.925  1.00  0.00    -0.030 A 
HETATM    6  C26 UNL     1      34.907  28.707  19.274  1.00  0.00     0.016 A 
ENDROOT
BRANCH   1   7
HETATM    7  C8  UNL     1      35.757  30.277  17.528  1.00  0.00     0.074 C 
BRANCH   7   8
HETATM    8  C7  UNL     1      35.164  30.162  16.161  1.00  0.00     0.188 C 
BRANCH   8   9
HETATM    9  C6  UNL     1      33.870  30.911  16.081  1.00  0.00     0.241 C 
HETATM   10  N1  UNL     1      32.917  30.888  17.126  1.00  0.00    -0.359 N 
ATOM     11  H1  UNL     1      33.115  30.345  17.966  1.00  0.00     0.162 HD
HETATM   12  O1  UNL     1      33.651  31.574  15.040  1.00  0.00    -0.271 OA
BRANCH  10  13
HETATM   13  C5  UNL     1      31.661  31.617  17.034  1.00  0.00     0.122 C 
BRANCH  13  14
HETATM   14  C4  UNL     1      31.169  32.033  18.398  1.00  0.00     0.020 C 
BRANCH  14  15
HETATM   15  C3  UNL     1      31.947  31.329  19.458  1.00  0.00     0.001 C 
BRANCH  15  16
HETATM   16  C2  UNL     1      31.114  30.495  20.381  1.00  0.00    -0.004 C 
HETATM   17  C1  UNL     1      30.900  29.081  19.860  1.00  0.00     0.005 C 
ENDBRANCH  15  16
ENDBRANCH  14  15
ENDBRANCH  13  14
ENDBRANCH  10  13
ENDBRANCH   8   9
BRANCH   8  18
HETATM   18  N4  UNL     1      36.024  30.473  15.073  1.00  0.00    -0.306 N 
ATOM     19  H4  UNL     1      36.257  31.438  14.839  1.00  0.00     0.173 HD
BRANCH  18  20
HETATM   20  S1  UNL     1      36.643  29.179  14.182  1.00  0.00     0.223 S 
HETATM   21  C27 UNL     1      36.844  29.488  12.456  1.00  0.00     0.185 C 
HETATM   22  O8  UNL     1      37.956  28.757  14.826  1.00  0.00    -0.206 OA
HETATM   23  O9  UNL     1      35.722  27.986  14.407  1.00  0.00    -0.206 OA
ENDBRANCH  18  20
ENDBRANCH   8  18
ENDBRANCH   7   8
ENDBRANCH   1   7
BRANCH   5  24
HETATM   24  C23 UNL     1      34.006  27.333  21.100  1.00  0.00     0.049 C 
BRANCH  24  25
HETATM   25  C24 UNL     1      33.907  28.659  21.866  1.00  0.00     0.104 C 
BRANCH  25  26
HETATM   26  C25 UNL     1      34.959  28.669  22.908  1.00  0.00     0.231 C 
HETATM   27  N3  UNL     1      34.909  27.689  23.933  1.00  0.00    -0.062 NA
HETATM   28  O7  UNL     1      35.897  29.533  22.902  1.00  0.00    -0.277 OA
ENDBRANCH  25  26
ENDBRANCH  24  25
ENDBRANCH   5  24
BRANCH   4  29
HETATM   29  N2  UNL     1      35.817  25.119  19.974  1.00  0.00    -0.272 N 
HETATM   30  C13 UNL     1      36.499  24.862  21.170  1.00  0.00     0.329 C 
HETATM   31  O2  UNL     1      36.855  25.878  21.869  1.00  0.00    -0.260 OA
BRANCH  30  32
HETATM   32  C14 UNL     1      36.849  23.535  21.685  1.00  0.00     0.270 C 
HETATM   33  O3  UNL     1      38.013  23.147  21.703  1.00  0.00    -0.640 OA
HETATM   34  O4  UNL     1      35.841  22.705  22.160  1.00  0.00    -0.640 OA
ENDBRANCH  30  32
BRANCH  29  35
HETATM   35  C15 UNL     1      35.292  24.070  19.193  1.00  0.00     0.060 A 
HETATM   36  C16 UNL     1      36.219  23.410  18.358  1.00  0.00     0.031 A 
HETATM   37  C17 UNL     1      35.791  22.379  17.583  1.00  0.00     0.002 A 
HETATM   38  C18 UNL     1      34.481  21.939  17.568  1.00  0.00     0.001 A 
HETATM   39  C19 UNL     1      33.583  22.588  18.384  1.00  0.00     0.021 A 
HETATM   40  C20 UNL     1      33.980  23.648  19.195  1.00  0.00     0.068 A 
BRANCH  40  41
HETATM   41  C21 UNL     1      32.956  24.279  20.005  1.00  0.00     0.211 C 
HETATM   42  O5  UNL     1      32.042  25.026  19.613  1.00  0.00    -0.644 OA
HETATM   43  O6  UNL     1      32.971  24.042  21.388  1.00  0.00    -0.644 OA
ENDBRANCH  40  41
ENDBRANCH  29  35
ENDBRANCH   4  29
TORSDOF 16
ENDMDL
