MODEL 3
REMARK VINA RESULT: -7.985310058      1.213      2.173
REMARK  5 active torsions:
REMARK  status: ('A' for Active; 'I' for Inactive)
REMARK    1  A    between atoms: C1_2  and  C2_4 
REMARK       I    between atoms: C2_4  and  N1_6 
REMARK    2  A    between atoms: N1_6  and  C3_7 
REMARK    3  A    between atoms: N1_6  and  C10_16 
REMARK    4  A    between atoms: C8_12  and  C9_13 
REMARK    5  A    between atoms: C17_23  and  O6_24 
ROOT
HETATM    1  C2  UNL     1      36.071  27.022  22.484  1.00  0.00     0.329 C 
HETATM    2  O3  UNL     1      35.988  26.092  23.369  1.00  0.00    -0.260 OA
HETATM    3  N1  UNL     1      35.576  26.835  21.173  1.00  0.00    -0.272 N 
ENDROOT
BRANCH   3   4
HETATM    4  C3  UNL     1      35.840  27.864  20.234  1.00  0.00     0.060 A 
HETATM    5  C4  UNL     1      37.135  27.787  19.658  1.00  0.00     0.031 A 
HETATM    6  C5  UNL     1      37.577  28.687  18.720  1.00  0.00     0.002 A 
HETATM    7  C6  UNL     1      36.743  29.703  18.316  1.00  0.00     0.001 A 
HETATM    8  C7  UNL     1      35.504  29.766  18.877  1.00  0.00     0.021 A 
HETATM    9  C8  UNL     1      35.023  28.856  19.844  1.00  0.00     0.068 A 
BRANCH   9  10
HETATM   10  C9  UNL     1      33.663  29.057  20.358  1.00  0.00     0.211 C 
HETATM   11  O4  UNL     1      33.388  29.120  21.531  1.00  0.00    -0.644 OA
HETATM   12  O5  UNL     1      32.633  29.182  19.429  1.00  0.00    -0.644 OA
ENDBRANCH   9  10
ENDBRANCH   3   4
BRANCH   3  13
HETATM   13  C10 UNL     1      34.933  25.654  20.727  1.00  0.00     0.054 A 
HETATM   14  C11 UNL     1      33.537  25.704  20.495  1.00  0.00     0.031 A 
HETATM   15  C12 UNL     1      32.820  24.656  20.032  1.00  0.00     0.003 A 
HETATM   16  C13 UNL     1      33.496  23.485  19.780  1.00  0.00     0.012 A 
HETATM   17  C14 UNL     1      34.851  23.364  19.984  1.00  0.00    -0.024 A 
HETATM   18  C15 UNL     1      35.501  22.170  19.725  1.00  0.00     0.015 A 
HETATM   19  C19 UNL     1      35.575  24.470  20.466  1.00  0.00     0.004 A 
HETATM   20  C16 UNL     1      36.855  22.050  19.933  1.00  0.00     0.037 A 
HETATM   21  C17 UNL     1      37.597  23.126  20.409  1.00  0.00     0.066 A 
HETATM   22  C18 UNL     1      36.932  24.305  20.661  1.00  0.00     0.051 A 
BRANCH  21  23
HETATM   23  O6  UNL     1      38.951  22.928  20.595  1.00  0.00    -0.361 OA
ATOM     24  H6  UNL     1      39.385  23.470  21.243  1.00  0.00     0.217 HD
ENDBRANCH  21  23
ENDBRANCH   3  13
BRANCH   1  25
HETATM   25  C1  UNL     1      36.687  28.281  22.862  1.00  0.00     0.270 C 
HETATM   26  O1  UNL     1      37.960  28.344  22.991  1.00  0.00    -0.640 OA
HETATM   27  O2  UNL     1      36.022  29.447  23.103  1.00  0.00    -0.640 OA
ENDBRANCH   1  25
TORSDOF 5
ENDMDL
