MODEL 4
REMARK VINA RESULT: -7.831618928      2.293      5.536
REMARK  5 active torsions:
REMARK  status: ('A' for Active; 'I' for Inactive)
REMARK    1  A    between atoms: C1_2  and  C2_4 
REMARK       I    between atoms: C2_4  and  N1_6 
REMARK    2  A    between atoms: N1_6  and  C3_7 
REMARK    3  A    between atoms: N1_6  and  C10_16 
REMARK    4  A    between atoms: C8_12  and  C9_13 
REMARK    5  A    between atoms: C17_23  and  O6_24 
ROOT
HETATM    1  C2  UNL     1      36.674  23.071  20.567  1.00  0.00     0.329 C 
HETATM    2  O3  UNL     1      37.804  22.988  21.175  1.00  0.00    -0.260 OA
HETATM    3  N1  UNL     1      36.265  24.268  19.937  1.00  0.00    -0.272 N 
ENDROOT
BRANCH   3   4
HETATM    4  C3  UNL     1      34.945  24.302  19.417  1.00  0.00     0.060 A 
HETATM    5  C4  UNL     1      33.961  24.617  20.390  1.00  0.00     0.031 A 
HETATM    6  C5  UNL     1      32.627  24.709  20.082  1.00  0.00     0.002 A 
HETATM    7  C6  UNL     1      32.217  24.489  18.788  1.00  0.00     0.001 A 
HETATM    8  C7  UNL     1      33.171  24.187  17.865  1.00  0.00     0.021 A 
HETATM    9  C8  UNL     1      34.550  24.086  18.152  1.00  0.00     0.068 A 
BRANCH   9  10
HETATM   10  C9  UNL     1      35.457  23.749  17.049  1.00  0.00     0.211 C 
HETATM   11  O4  UNL     1      36.281  22.869  17.098  1.00  0.00    -0.644 OA
HETATM   12  O5  UNL     1      35.354  24.495  15.877  1.00  0.00    -0.644 OA
ENDBRANCH   9  10
ENDBRANCH   3   4
BRANCH   3  13
HETATM   13  C10 UNL     1      37.048  25.448  19.887  1.00  0.00     0.054 A 
HETATM   14  C11 UNL     1      37.865  25.656  18.750  1.00  0.00     0.031 A 
HETATM   15  C12 UNL     1      38.625  26.758  18.569  1.00  0.00     0.003 A 
HETATM   16  C13 UNL     1      38.594  27.720  19.552  1.00  0.00     0.012 A 
HETATM   17  C14 UNL     1      37.825  27.584  20.684  1.00  0.00    -0.024 A 
HETATM   18  C15 UNL     1      37.818  28.568  21.657  1.00  0.00     0.015 A 
HETATM   19  C19 UNL     1      37.041  26.427  20.847  1.00  0.00     0.004 A 
HETATM   20  C16 UNL     1      37.051  28.430  22.790  1.00  0.00     0.037 A 
HETATM   21  C17 UNL     1      36.267  27.296  22.979  1.00  0.00     0.066 A 
HETATM   22  C18 UNL     1      36.287  26.328  22.000  1.00  0.00     0.051 A 
BRANCH  21  23
HETATM   23  O6  UNL     1      35.525  27.227  24.142  1.00  0.00    -0.361 OA
ATOM     24  H6  UNL     1      35.563  26.416  24.635  1.00  0.00     0.217 HD
ENDBRANCH  21  23
ENDBRANCH   3  13
BRANCH   1  25
HETATM   25  C1  UNL     1      35.818  21.899  20.539  1.00  0.00     0.270 C 
HETATM   26  O1  UNL     1      35.120  21.605  21.573  1.00  0.00    -0.640 OA
HETATM   27  O2  UNL     1      35.676  21.047  19.484  1.00  0.00    -0.640 OA
ENDBRANCH   1  25
TORSDOF 5
ENDMDL
