MODEL 1
REMARK VINA RESULT: -8.409379469      0.000      0.000
REMARK  5 active torsions:
REMARK  status: ('A' for Active; 'I' for Inactive)
REMARK    1  A    between atoms: C1_2  and  C2_4 
REMARK       I    between atoms: C2_4  and  N1_6 
REMARK    2  A    between atoms: N1_6  and  C3_7 
REMARK    3  A    between atoms: N1_6  and  C10_16 
REMARK    4  A    between atoms: C8_12  and  C9_13 
REMARK    5  A    between atoms: C17_23  and  O6_24 
ROOT
HETATM    1  C2  UNL     1      36.096  27.140  22.369  1.00  0.00     0.329 C 
HETATM    2  O3  UNL     1      36.051  26.204  23.250  1.00  0.00    -0.260 OA
HETATM    3  N1  UNL     1      35.562  26.954  21.073  1.00  0.00    -0.272 N 
ENDROOT
BRANCH   3   4
HETATM    4  C3  UNL     1      35.787  27.991  20.132  1.00  0.00     0.060 A 
HETATM    5  C4  UNL     1      34.755  28.965  20.105  1.00  0.00     0.031 A 
HETATM    6  C5  UNL     1      34.794  30.053  19.268  1.00  0.00     0.002 A 
HETATM    7  C6  UNL     1      35.865  30.214  18.422  1.00  0.00     0.001 A 
HETATM    8  C7  UNL     1      36.847  29.272  18.457  1.00  0.00     0.021 A 
HETATM    9  C8  UNL     1      36.835  28.143  19.306  1.00  0.00     0.068 A 
BRANCH   9  10
HETATM   10  C9  UNL     1      37.967  27.213  19.227  1.00  0.00     0.211 C 
HETATM   11  O4  UNL     1      38.864  27.171  20.033  1.00  0.00    -0.644 OA
HETATM   12  O5  UNL     1      38.002  26.328  18.151  1.00  0.00    -0.644 OA
ENDBRANCH   9  10
ENDBRANCH   3   4
BRANCH   3  13
HETATM   13  C10 UNL     1      34.917  25.769  20.642  1.00  0.00     0.054 A 
HETATM   14  C11 UNL     1      33.529  25.830  20.368  1.00  0.00     0.031 A 
HETATM   15  C12 UNL     1      32.811  24.779  19.914  1.00  0.00     0.003 A 
HETATM   16  C13 UNL     1      33.479  23.593  19.713  1.00  0.00     0.012 A 
HETATM   17  C14 UNL     1      34.826  23.461  19.959  1.00  0.00    -0.024 A 
HETATM   18  C15 UNL     1      35.467  22.253  19.750  1.00  0.00     0.015 A 
HETATM   19  C19 UNL     1      35.550  24.571  20.431  1.00  0.00     0.004 A 
HETATM   20  C16 UNL     1      36.813  22.121  20.000  1.00  0.00     0.037 A 
HETATM   21  C17 UNL     1      37.555  23.200  20.468  1.00  0.00     0.066 A 
HETATM   22  C18 UNL     1      36.899  24.394  20.669  1.00  0.00     0.051 A 
BRANCH  21  23
HETATM   23  O6  UNL     1      38.901  22.992  20.698  1.00  0.00    -0.361 OA
ATOM     24  H6  UNL     1      39.514  23.542  20.224  1.00  0.00     0.217 HD
ENDBRANCH  21  23
ENDBRANCH   3  13
BRANCH   1  25
HETATM   25  C1  UNL     1      36.712  28.402  22.734  1.00  0.00     0.270 C 
HETATM   26  O1  UNL     1      37.990  28.489  22.779  1.00  0.00    -0.640 OA
HETATM   27  O2  UNL     1      36.043  29.549  23.046  1.00  0.00    -0.640 OA
ENDBRANCH   1  25
TORSDOF 5
ENDMDL
