MODEL 14
REMARK VINA RESULT: -7.974014734      3.853      8.633
REMARK  5 active torsions:
REMARK  status: ('A' for Active; 'I' for Inactive)
REMARK    1  A    between atoms: C3_3  and  C4_4 
REMARK    2  A    between atoms: C5_5  and  C6_6 
REMARK    3  A    between atoms: C8_8  and  C9_9 
REMARK    4  A    between atoms: C10_10  and  C11_11 
REMARK    5  A    between atoms: C13_13  and  C14_14 
ROOT
HETATM    1  C4  UNL     1     -12.237  54.420  37.756  1.00  0.00     0.009 C 
HETATM    2  C5  UNL     1     -11.054  54.981  37.691  1.00  0.00     0.007 C 
ENDROOT
BRANCH   2   3
HETATM    3  C6  UNL     1     -10.747  55.995  36.672  1.00  0.00    -0.062 C 
HETATM    4  C7  UNL     1      -9.870  55.780  35.508  1.00  0.00     0.048 C 
HETATM    5  C8  UNL     1     -11.306  57.184  36.821  1.00  0.00     0.007 C 
BRANCH   5   6
HETATM    6  C9  UNL     1     -11.048  58.239  35.852  1.00  0.00     0.001 C 
HETATM    7  C10 UNL     1     -12.018  58.986  35.381  1.00  0.00     0.007 C 
BRANCH   7   8
HETATM    8  C11 UNL     1     -11.819  60.040  34.424  1.00  0.00    -0.059 C 
HETATM    9  C12 UNL     1     -10.514  60.340  33.839  1.00  0.00     0.048 C 
HETATM   10  C13 UNL     1     -12.880  60.758  34.076  1.00  0.00     0.048 C 
BRANCH  10  11
HETATM   11  C14 UNL     1     -12.852  61.857  33.122  1.00  0.00     0.259 C 
HETATM   12  O1  UNL     1     -13.265  61.644  31.956  1.00  0.00    -0.302 OA
ENDBRANCH  10  11
ENDBRANCH   7   8
ENDBRANCH   5   6
ENDBRANCH   2   3
BRANCH   1  13
HETATM   13  C3  UNL     1     -12.563  53.400  38.769  1.00  0.00    -0.048 C 
HETATM   14  C2  UNL     1     -12.369  52.140  38.374  1.00  0.00    -0.077 C 
HETATM   15  C1  UNL     1     -11.858  51.819  37.005  1.00  0.00     0.044 C 
HETATM   16  C20 UNL     1     -12.675  50.992  39.256  1.00  0.00     0.034 C 
HETATM   17  C19 UNL     1     -13.725  51.413  40.284  1.00  0.00     0.005 C 
HETATM   18  C18 UNL     1     -13.250  52.625  41.014  1.00  0.00     0.014 C 
HETATM   19  C15 UNL     1     -13.036  53.815  40.083  1.00  0.00    -0.020 C 
HETATM   20  C16 UNL     1     -11.992  54.695  40.773  1.00  0.00     0.020 C 
HETATM   21  C17 UNL     1     -14.341  54.585  40.057  1.00  0.00     0.020 C 
ENDBRANCH   1  13
TORSDOF 5
ENDMDL
