MODEL 2
REMARK VINA RESULT: -8.509208840      1.252      1.677
REMARK  5 active torsions:
REMARK  status: ('A' for Active; 'I' for Inactive)
REMARK    1  A    between atoms: C3_3  and  C4_4 
REMARK    2  A    between atoms: C5_5  and  C6_6 
REMARK    3  A    between atoms: C8_8  and  C9_9 
REMARK    4  A    between atoms: C10_10  and  C11_11 
REMARK    5  A    between atoms: C13_13  and  C14_14 
ROOT
HETATM    1  C4  UNL     1     -12.751  58.567  36.690  1.00  0.00     0.009 C 
HETATM    2  C5  UNL     1     -12.438  58.846  37.931  1.00  0.00     0.007 C 
ENDROOT
BRANCH   2   3
HETATM    3  C6  UNL     1     -12.214  57.780  38.919  1.00  0.00    -0.062 C 
HETATM    4  C7  UNL     1     -11.107  57.752  39.890  1.00  0.00     0.048 C 
HETATM    5  C8  UNL     1     -13.078  56.779  38.928  1.00  0.00     0.007 C 
BRANCH   5   6
HETATM    6  C9  UNL     1     -12.921  55.687  39.878  1.00  0.00     0.001 C 
HETATM    7  C10 UNL     1     -13.619  54.582  39.771  1.00  0.00     0.007 C 
BRANCH   7   8
HETATM    8  C11 UNL     1     -13.503  53.475  40.680  1.00  0.00    -0.059 C 
HETATM    9  C12 UNL     1     -12.326  53.261  41.518  1.00  0.00     0.048 C 
HETATM   10  C13 UNL     1     -14.520  52.624  40.740  1.00  0.00     0.048 C 
BRANCH  10  11
HETATM   11  C14 UNL     1     -14.564  51.455  41.605  1.00  0.00     0.259 C 
HETATM   12  O1  UNL     1     -15.685  51.040  41.988  1.00  0.00    -0.302 OA
ENDBRANCH  10  11
ENDBRANCH   7   8
ENDBRANCH   5   6
ENDBRANCH   2   3
BRANCH   1  13
HETATM   13  C3  UNL     1     -12.981  59.621  35.685  1.00  0.00    -0.048 C 
HETATM   14  C2  UNL     1     -11.944  59.859  34.879  1.00  0.00    -0.077 C 
HETATM   15  C1  UNL     1     -10.662  59.098  35.007  1.00  0.00     0.044 C 
HETATM   16  C20 UNL     1     -11.995  60.906  33.835  1.00  0.00     0.034 C 
HETATM   17  C19 UNL     1     -13.031  61.958  34.226  1.00  0.00     0.005 C 
HETATM   18  C18 UNL     1     -14.344  61.295  34.480  1.00  0.00     0.014 C 
HETATM   19  C15 UNL     1     -14.273  60.290  35.628  1.00  0.00    -0.020 C 
HETATM   20  C16 UNL     1     -15.388  59.278  35.357  1.00  0.00     0.020 C 
HETATM   21  C17 UNL     1     -14.636  61.048  36.889  1.00  0.00     0.020 C 
ENDBRANCH   1  13
TORSDOF 5
ENDMDL
