MODEL 1
REMARK VINA RESULT: -8.743072527      0.000      0.000
REMARK  5 active torsions:
REMARK  status: ('A' for Active; 'I' for Inactive)
REMARK    1  A    between atoms: C3_3  and  C4_4 
REMARK    2  A    between atoms: C5_5  and  C6_6 
REMARK    3  A    between atoms: C8_8  and  C9_9 
REMARK    4  A    between atoms: C10_10  and  C11_11 
REMARK    5  A    between atoms: C13_13  and  C14_14 
ROOT
HETATM    1  C4  UNL     1     -11.984  57.550  37.535  1.00  0.00     0.009 C 
HETATM    2  C5  UNL     1     -11.536  57.777  38.745  1.00  0.00     0.007 C 
ENDROOT
BRANCH   2   3
HETATM    3  C6  UNL     1     -11.681  56.777  39.812  1.00  0.00    -0.062 C 
HETATM    4  C7  UNL     1     -11.534  57.054  41.252  1.00  0.00     0.048 C 
HETATM    5  C8  UNL     1     -11.967  55.540  39.441  1.00  0.00     0.007 C 
BRANCH   5   6
HETATM    6  C9  UNL     1     -12.126  54.495  40.442  1.00  0.00     0.001 C 
HETATM    7  C10 UNL     1     -13.228  53.788  40.523  1.00  0.00     0.007 C 
BRANCH   7   8
HETATM    8  C11 UNL     1     -13.437  52.746  41.491  1.00  0.00    -0.059 C 
HETATM    9  C12 UNL     1     -12.455  52.418  42.523  1.00  0.00     0.048 C 
HETATM   10  C13 UNL     1     -14.575  52.067  41.422  1.00  0.00     0.048 C 
BRANCH  10  11
HETATM   11  C14 UNL     1     -14.943  50.985  42.323  1.00  0.00     0.259 C 
HETATM   12  O1  UNL     1     -15.693  51.248  43.294  1.00  0.00    -0.302 OA
ENDBRANCH  10  11
ENDBRANCH   7   8
ENDBRANCH   5   6
ENDBRANCH   2   3
BRANCH   1  13
HETATM   13  C3  UNL     1     -11.850  58.541  36.452  1.00  0.00    -0.048 C 
HETATM   14  C2  UNL     1     -10.813  58.339  35.636  1.00  0.00    -0.077 C 
HETATM   15  C1  UNL     1      -9.879  57.186  35.829  1.00  0.00     0.044 C 
HETATM   16  C20 UNL     1     -10.515  59.257  34.515  1.00  0.00     0.034 C 
HETATM   17  C19 UNL     1     -11.105  60.633  34.820  1.00  0.00     0.005 C 
HETATM   18  C18 UNL     1     -12.562  60.496  35.116  1.00  0.00     0.014 C 
HETATM   19  C15 UNL     1     -12.824  59.618  36.337  1.00  0.00    -0.020 C 
HETATM   20  C16 UNL     1     -14.230  59.047  36.138  1.00  0.00     0.020 C 
HETATM   21  C17 UNL     1     -12.870  60.545  37.535  1.00  0.00     0.020 C 
ENDBRANCH   1  13
TORSDOF 5
ENDMDL
