MODEL 4
REMARK VINA RESULT: -8.462940505      1.462      2.107
REMARK  5 active torsions:
REMARK  status: ('A' for Active; 'I' for Inactive)
REMARK    1  A    between atoms: C3_3  and  C4_4 
REMARK    2  A    between atoms: C5_5  and  C6_6 
REMARK    3  A    between atoms: C8_8  and  C9_9 
REMARK    4  A    between atoms: C10_10  and  C11_11 
REMARK    5  A    between atoms: C13_13  and  C14_14 
ROOT
HETATM    1  C4  UNL     1     -12.770  58.567  36.431  1.00  0.00     0.009 C 
HETATM    2  C5  UNL     1     -12.386  58.852  37.651  1.00  0.00     0.007 C 
ENDROOT
BRANCH   2   3
HETATM    3  C6  UNL     1     -12.239  57.802  38.669  1.00  0.00    -0.062 C 
HETATM    4  C7  UNL     1     -11.188  57.773  39.701  1.00  0.00     0.048 C 
HETATM    5  C8  UNL     1     -13.121  56.817  38.648  1.00  0.00     0.007 C 
BRANCH   5   6
HETATM    6  C9  UNL     1     -13.038  55.742  39.625  1.00  0.00     0.001 C 
HETATM    7  C10 UNL     1     -13.425  54.522  39.334  1.00  0.00     0.007 C 
BRANCH   7   8
HETATM    8  C11 UNL     1     -13.364  53.425  40.260  1.00  0.00    -0.059 C 
HETATM    9  C12 UNL     1     -14.155  52.207  40.095  1.00  0.00     0.048 C 
HETATM   10  C13 UNL     1     -12.549  53.547  41.300  1.00  0.00     0.048 C 
BRANCH  10  11
HETATM   11  C14 UNL     1     -12.369  52.532  42.327  1.00  0.00     0.259 C 
HETATM   12  O1  UNL     1     -12.999  52.658  43.405  1.00  0.00    -0.302 OA
ENDBRANCH  10  11
ENDBRANCH   7   8
ENDBRANCH   5   6
ENDBRANCH   2   3
BRANCH   1  13
HETATM   13  C3  UNL     1     -12.925  59.605  35.397  1.00  0.00    -0.048 C 
HETATM   14  C2  UNL     1     -11.855  59.782  34.618  1.00  0.00    -0.077 C 
HETATM   15  C1  UNL     1     -10.611  58.973  34.803  1.00  0.00     0.044 C 
HETATM   16  C20 UNL     1     -11.832  60.805  33.550  1.00  0.00     0.034 C 
HETATM   17  C19 UNL     1     -12.835  61.908  33.885  1.00  0.00     0.005 C 
HETATM   18  C18 UNL     1     -14.181  61.305  34.113  1.00  0.00     0.014 C 
HETATM   19  C15 UNL     1     -14.187  60.325  35.284  1.00  0.00    -0.020 C 
HETATM   20  C16 UNL     1     -15.333  59.353  35.001  1.00  0.00     0.020 C 
HETATM   21  C17 UNL     1     -14.556  61.126  36.516  1.00  0.00     0.020 C 
ENDBRANCH   1  13
TORSDOF 5
ENDMDL
