MODEL 12
REMARK VINA RESULT: -8.032921734      3.814      8.457
REMARK  5 active torsions:
REMARK  status: ('A' for Active; 'I' for Inactive)
REMARK    1  A    between atoms: C3_3  and  C4_4 
REMARK    2  A    between atoms: C5_5  and  C6_6 
REMARK    3  A    between atoms: C8_8  and  C9_9 
REMARK    4  A    between atoms: C10_10  and  C11_11 
REMARK    5  A    between atoms: C13_13  and  C14_14 
ROOT
HETATM    1  C4  UNL     1     -11.937  54.508  38.406  1.00  0.00     0.009 C 
HETATM    2  C5  UNL     1     -12.756  55.300  37.758  1.00  0.00     0.007 C 
ENDROOT
BRANCH   2   3
HETATM    3  C6  UNL     1     -12.307  56.598  37.235  1.00  0.00    -0.062 C 
HETATM    4  C7  UNL     1     -10.942  56.889  36.764  1.00  0.00     0.048 C 
HETATM    5  C8  UNL     1     -13.204  57.569  37.187  1.00  0.00     0.007 C 
BRANCH   5   6
HETATM    6  C9  UNL     1     -12.832  58.882  36.681  1.00  0.00     0.001 C 
HETATM    7  C10 UNL     1     -13.152  59.979  37.327  1.00  0.00     0.007 C 
BRANCH   7   8
HETATM    8  C11 UNL     1     -12.810  61.299  36.873  1.00  0.00    -0.059 C 
HETATM    9  C12 UNL     1     -11.902  61.538  35.753  1.00  0.00     0.048 C 
HETATM   10  C13 UNL     1     -13.353  62.325  37.515  1.00  0.00     0.048 C 
BRANCH  10  11
HETATM   11  C14 UNL     1     -13.113  63.722  37.184  1.00  0.00     0.259 C 
HETATM   12  O1  UNL     1     -13.797  64.243  36.270  1.00  0.00    -0.302 OA
ENDBRANCH  10  11
ENDBRANCH   7   8
ENDBRANCH   5   6
ENDBRANCH   2   3
BRANCH   1  13
HETATM   13  C3  UNL     1     -12.368  53.204  38.939  1.00  0.00    -0.048 C 
HETATM   14  C2  UNL     1     -12.036  52.154  38.184  1.00  0.00    -0.077 C 
HETATM   15  C1  UNL     1     -11.282  52.320  36.902  1.00  0.00     0.044 C 
HETATM   16  C20 UNL     1     -12.418  50.775  38.558  1.00  0.00     0.034 C 
HETATM   17  C19 UNL     1     -13.649  50.820  39.462  1.00  0.00     0.005 C 
HETATM   18  C18 UNL     1     -13.377  51.708  40.631  1.00  0.00     0.014 C 
HETATM   19  C15 UNL     1     -13.080  53.145  40.209  1.00  0.00    -0.020 C 
HETATM   20  C16 UNL     1     -12.221  53.733  41.330  1.00  0.00     0.020 C 
HETATM   21  C17 UNL     1     -14.406  53.880  40.212  1.00  0.00     0.020 C 
ENDBRANCH   1  13
TORSDOF 5
ENDMDL
