MODEL 8
REMARK VINA RESULT: -8.190350079      3.739      8.309
REMARK  5 active torsions:
REMARK  status: ('A' for Active; 'I' for Inactive)
REMARK    1  A    between atoms: C3_3  and  C4_4 
REMARK    2  A    between atoms: C5_5  and  C6_6 
REMARK    3  A    between atoms: C8_8  and  C9_9 
REMARK    4  A    between atoms: C10_10  and  C11_11 
REMARK    5  A    between atoms: C13_13  and  C14_14 
ROOT
HETATM    1  C4  UNL     1     -12.251  55.104  39.103  1.00  0.00     0.009 C 
HETATM    2  C5  UNL     1     -13.077  55.849  38.409  1.00  0.00     0.007 C 
ENDROOT
BRANCH   2   3
HETATM    3  C6  UNL     1     -12.927  57.310  38.359  1.00  0.00    -0.062 C 
HETATM    4  C7  UNL     1     -11.779  58.057  38.903  1.00  0.00     0.048 C 
HETATM    5  C8  UNL     1     -13.899  57.994  37.779  1.00  0.00     0.007 C 
BRANCH   5   6
HETATM    6  C9  UNL     1     -13.819  59.445  37.692  1.00  0.00     0.001 C 
HETATM    7  C10 UNL     1     -13.871  60.064  36.537  1.00  0.00     0.007 C 
BRANCH   7   8
HETATM    8  C11 UNL     1     -13.798  61.493  36.395  1.00  0.00    -0.059 C 
HETATM    9  C12 UNL     1     -14.315  62.197  35.224  1.00  0.00     0.048 C 
HETATM   10  C13 UNL     1     -13.230  62.176  37.381  1.00  0.00     0.048 C 
BRANCH  10  11
HETATM   11  C14 UNL     1     -13.077  63.624  37.395  1.00  0.00     0.259 C 
HETATM   12  O1  UNL     1     -12.963  64.199  38.505  1.00  0.00    -0.302 OA
ENDBRANCH  10  11
ENDBRANCH   7   8
ENDBRANCH   5   6
ENDBRANCH   2   3
BRANCH   1  13
HETATM   13  C3  UNL     1     -12.387  53.638  39.168  1.00  0.00    -0.048 C 
HETATM   14  C2  UNL     1     -11.726  52.974  38.216  1.00  0.00    -0.077 C 
HETATM   15  C1  UNL     1     -10.917  53.690  37.180  1.00  0.00     0.044 C 
HETATM   16  C20 UNL     1     -11.778  51.499  38.117  1.00  0.00     0.034 C 
HETATM   17  C19 UNL     1     -13.063  50.995  38.774  1.00  0.00     0.005 C 
HETATM   18  C18 UNL     1     -13.142  51.509  40.173  1.00  0.00     0.014 C 
HETATM   19  C15 UNL     1     -13.181  53.034  40.229  1.00  0.00    -0.020 C 
HETATM   20  C16 UNL     1     -12.615  53.410  41.600  1.00  0.00     0.020 C 
HETATM   21  C17 UNL     1     -14.644  53.430  40.211  1.00  0.00     0.020 C 
ENDBRANCH   1  13
TORSDOF 5
ENDMDL
