MODEL 1
REMARK VINA RESULT: -8.258486661      0.000      0.000
REMARK  5 active torsions:
REMARK  status: ('A' for Active; 'I' for Inactive)
REMARK    1  A    between atoms: C5_5  and  C6_6 
REMARK    2  A    between atoms: C8_8  and  C9_9 
REMARK    3  A    between atoms: N2_15  and  C10_16 
REMARK    4  A    between atoms: C13_19  and  S1_20 
REMARK    5  A    between atoms: S1_20  and  N3_21 
ROOT
HETATM    1  C6  UNL     1      16.950   3.691  13.399  1.00  0.00     0.069 A 
HETATM    2  C7  UNL     1      16.842   2.495  12.680  1.00  0.00     0.068 A 
HETATM    3  C8  UNL     1      17.558   2.674  11.526  1.00  0.00     0.135 A 
HETATM    4  N1  UNL     1      18.046   3.884  11.571  1.00  0.00    -0.289 N 
ATOM      5  H1  UNL     1      18.626   4.294  10.839  1.00  0.00     0.187 HD
HETATM    6  N2  UNL     1      17.690   4.532  12.708  1.00  0.00    -0.255 N 
ENDROOT
BRANCH   6   7
HETATM    7  C10 UNL     1      18.101   5.862  12.987  1.00  0.00     0.057 A 
HETATM    8  C11 UNL     1      17.825   6.895  12.095  1.00  0.00     0.033 A 
HETATM    9  C12 UNL     1      18.244   8.188  12.325  1.00  0.00     0.027 A 
HETATM   10  C13 UNL     1      18.958   8.524  13.453  1.00  0.00     0.079 A 
HETATM   11  C14 UNL     1      19.237   7.509  14.344  1.00  0.00     0.027 A 
HETATM   12  C15 UNL     1      18.820   6.216  14.116  1.00  0.00     0.033 A 
BRANCH  10  13
HETATM   13  S1  UNL     1      19.500  10.155  13.770  1.00  0.00     0.256 S 
HETATM   14  O1  UNL     1      20.986  10.285  13.631  1.00  0.00    -0.201 OA
HETATM   15  O2  UNL     1      18.868  11.065  12.762  1.00  0.00    -0.201 OA
BRANCH  13  16
HETATM   16  N3  UNL     1      18.979  10.563  15.366  1.00  0.00    -0.324 N 
ATOM     17  H32 UNL     1      18.526   9.928  16.024  1.00  0.00     0.169 HD
ATOM     18  H31 UNL     1      19.209  11.545  15.514  1.00  0.00     0.169 HD
ENDBRANCH  13  16
ENDBRANCH  10  13
ENDBRANCH   6   7
BRANCH   1  19
HETATM   19  C5  UNL     1      16.308   3.854  14.687  1.00  0.00    -0.007 A 
HETATM   20  C4  UNL     1      15.397   4.812  14.928  1.00  0.00     0.014 A 
HETATM   21  C3  UNL     1      14.807   4.947  16.165  1.00  0.00     0.007 A 
HETATM   22  C2  UNL     1      15.125   4.114  17.184  1.00  0.00    -0.062 A 
HETATM   23  C1  UNL     1      14.455   4.297  18.520  1.00  0.00     0.048 C 
HETATM   24  C17 UNL     1      16.051   3.120  16.979  1.00  0.00     0.007 A 
HETATM   25  C16 UNL     1      16.628   3.010  15.724  1.00  0.00     0.014 A 
ENDBRANCH   1  19
BRANCH   3  26
HETATM   26  C9  UNL     1      17.705   1.624  10.462  1.00  0.00     0.434 C 
HETATM   27  F1  UNL     1      17.643   0.364  11.012  1.00  0.00    -0.165 F 
HETATM   28  F2  UNL     1      18.937   1.852   9.870  1.00  0.00    -0.165 F 
HETATM   29  F3  UNL     1      16.683   1.713   9.535  1.00  0.00    -0.165 F 
ENDBRANCH   3  26
TORSDOF 5
ENDMDL
