MODEL 4
REMARK VINA RESULT: -7.850356837      4.646      6.832
REMARK  5 active torsions:
REMARK  status: ('A' for Active; 'I' for Inactive)
REMARK    1  A    between atoms: C5_5  and  C6_6 
REMARK    2  A    between atoms: C8_8  and  C9_9 
REMARK    3  A    between atoms: N2_15  and  C10_16 
REMARK    4  A    between atoms: C13_19  and  S1_20 
REMARK    5  A    between atoms: S1_20  and  N3_21 
ROOT
HETATM    1  C6  UNL     1      18.342   6.310   9.835  1.00  0.00     0.069 A 
HETATM    2  C7  UNL     1      17.930   6.808   8.593  1.00  0.00     0.068 A 
HETATM    3  C8  UNL     1      16.598   6.508   8.481  1.00  0.00     0.135 A 
HETATM    4  N1  UNL     1      16.261   5.883   9.577  1.00  0.00    -0.289 N 
ATOM      5  H1  UNL     1      15.321   5.538   9.772  1.00  0.00     0.187 HD
HETATM    6  N2  UNL     1      17.310   5.747  10.426  1.00  0.00    -0.255 N 
ENDROOT
BRANCH   6   7
HETATM    7  C10 UNL     1      17.191   5.103  11.686  1.00  0.00     0.057 A 
HETATM    8  C11 UNL     1      17.050   3.720  11.768  1.00  0.00     0.033 A 
HETATM    9  C12 UNL     1      16.898   3.073  12.976  1.00  0.00     0.027 A 
HETATM   10  C13 UNL     1      16.878   3.766  14.166  1.00  0.00     0.079 A 
HETATM   11  C14 UNL     1      17.016   5.136  14.097  1.00  0.00     0.027 A 
HETATM   12  C15 UNL     1      17.168   5.784  12.890  1.00  0.00     0.033 A 
BRANCH  10  13
HETATM   13  S1  UNL     1      16.688   2.971  15.711  1.00  0.00     0.256 S 
HETATM   14  O1  UNL     1      16.484   1.495  15.556  1.00  0.00    -0.201 OA
HETATM   15  O2  UNL     1      17.943   3.176  16.502  1.00  0.00    -0.201 OA
BRANCH  13  16
HETATM   16  N3  UNL     1      15.344   3.713  16.502  1.00  0.00    -0.324 N 
ATOM     17  H32 UNL     1      15.227   4.714  16.663  1.00  0.00     0.169 HD
ATOM     18  H31 UNL     1      14.705   2.966  16.772  1.00  0.00     0.169 HD
ENDBRANCH  13  16
ENDBRANCH  10  13
ENDBRANCH   6   7
BRANCH   1  19
HETATM   19  C5  UNL     1      19.710   6.457  10.286  1.00  0.00    -0.007 A 
HETATM   20  C4  UNL     1      20.085   7.391  11.176  1.00  0.00     0.014 A 
HETATM   21  C3  UNL     1      21.395   7.512  11.583  1.00  0.00     0.007 A 
HETATM   22  C2  UNL     1      22.354   6.688  11.099  1.00  0.00    -0.062 A 
HETATM   23  C1  UNL     1      23.774   6.854  11.572  1.00  0.00     0.048 C 
HETATM   24  C17 UNL     1      22.013   5.718  10.187  1.00  0.00     0.007 A 
HETATM   25  C16 UNL     1      20.686   5.622   9.798  1.00  0.00     0.014 A 
ENDBRANCH   1  19
BRANCH   3  26
HETATM   26  C9  UNL     1      15.757   6.867   7.289  1.00  0.00     0.434 C 
HETATM   27  F1  UNL     1      15.923   5.943   6.283  1.00  0.00    -0.165 F 
HETATM   28  F2  UNL     1      16.182   8.125   6.890  1.00  0.00    -0.165 F 
HETATM   29  F3  UNL     1      14.414   6.876   7.617  1.00  0.00    -0.165 F 
ENDBRANCH   3  26
TORSDOF 5
ENDMDL
