MODEL 2
REMARK VINA RESULT: -8.221354853      5.486      7.721
REMARK  5 active torsions:
REMARK  status: ('A' for Active; 'I' for Inactive)
REMARK    1  A    between atoms: C5_5  and  C6_6 
REMARK    2  A    between atoms: C8_8  and  C9_9 
REMARK    3  A    between atoms: N2_15  and  C10_16 
REMARK    4  A    between atoms: C13_19  and  S1_20 
REMARK    5  A    between atoms: S1_20  and  N3_21 
ROOT
HETATM    1  C6  UNL     1      17.746   8.575  12.994  1.00  0.00     0.069 A 
HETATM    2  C7  UNL     1      18.484   9.765  12.981  1.00  0.00     0.068 A 
HETATM    3  C8  UNL     1      19.014   9.902  14.237  1.00  0.00     0.135 A 
HETATM    4  N1  UNL     1      18.613   8.869  14.928  1.00  0.00    -0.289 N 
ATOM      5  H1  UNL     1      18.857   8.706  15.905  1.00  0.00     0.187 HD
HETATM    6  N2  UNL     1      17.834   8.038  14.192  1.00  0.00    -0.255 N 
ENDROOT
BRANCH   6   7
HETATM    7  C10 UNL     1      17.280   6.843  14.724  1.00  0.00     0.057 A 
HETATM    8  C11 UNL     1      15.911   6.735  14.954  1.00  0.00     0.033 A 
HETATM    9  C12 UNL     1      15.352   5.600  15.501  1.00  0.00     0.027 A 
HETATM   10  C13 UNL     1      16.123   4.514  15.850  1.00  0.00     0.079 A 
HETATM   11  C14 UNL     1      17.480   4.610  15.626  1.00  0.00     0.027 A 
HETATM   12  C15 UNL     1      18.041   5.744  15.079  1.00  0.00     0.033 A 
BRANCH  10  13
HETATM   13  S1  UNL     1      15.440   3.063  16.545  1.00  0.00     0.256 S 
HETATM   14  O1  UNL     1      15.910   1.830  15.833  1.00  0.00    -0.201 OA
HETATM   15  O2  UNL     1      15.894   2.965  17.969  1.00  0.00    -0.201 OA
BRANCH  13  16
HETATM   16  N3  UNL     1      13.722   3.220  16.465  1.00  0.00    -0.324 N 
ATOM     17  H32 UNL     1      13.089   3.245  17.265  1.00  0.00     0.169 HD
ATOM     18  H31 UNL     1      13.473   3.282  15.478  1.00  0.00     0.169 HD
ENDBRANCH  13  16
ENDBRANCH  10  13
ENDBRANCH   6   7
BRANCH   1  19
HETATM   19  C5  UNL     1      17.045   8.114  11.814  1.00  0.00    -0.007 A 
HETATM   20  C4  UNL     1      17.391   6.996  11.154  1.00  0.00     0.014 A 
HETATM   21  C3  UNL     1      16.709   6.584  10.030  1.00  0.00     0.007 A 
HETATM   22  C2  UNL     1      15.661   7.295   9.551  1.00  0.00    -0.062 A 
HETATM   23  C1  UNL     1      14.943   6.808   8.320  1.00  0.00     0.048 C 
HETATM   24  C17 UNL     1      15.274   8.445  10.196  1.00  0.00     0.007 A 
HETATM   25  C16 UNL     1      15.980   8.832  11.324  1.00  0.00     0.014 A 
ENDBRANCH   1  19
BRANCH   3  26
HETATM   26  C9  UNL     1      19.882  11.054  14.657  1.00  0.00     0.434 C 
HETATM   27  F1  UNL     1      21.080  11.029  13.980  1.00  0.00    -0.165 F 
HETATM   28  F2  UNL     1      20.075  10.906  16.021  1.00  0.00    -0.165 F 
HETATM   29  F3  UNL     1      19.275  12.261  14.366  1.00  0.00    -0.165 F 
ENDBRANCH   3  26
TORSDOF 5
ENDMDL
