MODEL 3
REMARK VINA RESULT: -8.204716174      5.298      6.640
REMARK  5 active torsions:
REMARK  status: ('A' for Active; 'I' for Inactive)
REMARK    1  A    between atoms: C5_5  and  C6_6 
REMARK    2  A    between atoms: C8_8  and  C9_9 
REMARK    3  A    between atoms: N2_15  and  C10_16 
REMARK    4  A    between atoms: C13_19  and  S1_20 
REMARK    5  A    between atoms: S1_20  and  N3_21 
ROOT
HETATM    1  C6  UNL     1      17.805   8.179  14.281  1.00  0.00     0.069 A 
HETATM    2  C7  UNL     1      18.546   8.967  15.171  1.00  0.00     0.068 A 
HETATM    3  C8  UNL     1      19.122   9.957  14.418  1.00  0.00     0.135 A 
HETATM    4  N1  UNL     1      18.744   9.758  13.184  1.00  0.00    -0.289 N 
ATOM      5  H1  UNL     1      19.023  10.347  12.400  1.00  0.00     0.187 HD
HETATM    6  N2  UNL     1      17.935   8.676  13.070  1.00  0.00    -0.255 N 
ENDROOT
BRANCH   6   7
HETATM    7  C10 UNL     1      17.393   8.258  11.825  1.00  0.00     0.057 A 
HETATM    8  C11 UNL     1      18.111   7.414  10.983  1.00  0.00     0.033 A 
HETATM    9  C12 UNL     1      17.623   7.022   9.755  1.00  0.00     0.027 A 
HETATM   10  C13 UNL     1      16.396   7.448   9.299  1.00  0.00     0.079 A 
HETATM   11  C14 UNL     1      15.676   8.285  10.124  1.00  0.00     0.027 A 
HETATM   12  C15 UNL     1      16.162   8.678  11.353  1.00  0.00     0.033 A 
BRANCH  10  13
HETATM   13  S1  UNL     1      15.752   6.966   7.747  1.00  0.00     0.256 S 
HETATM   14  O1  UNL     1      16.373   5.693   7.258  1.00  0.00    -0.201 OA
HETATM   15  O2  UNL     1      14.282   6.724   7.902  1.00  0.00    -0.201 OA
BRANCH  13  16
HETATM   16  N3  UNL     1      16.040   8.269   6.650  1.00  0.00    -0.324 N 
ATOM     17  H32 UNL     1      16.856   8.882   6.656  1.00  0.00     0.169 HD
ATOM     18  H31 UNL     1      15.247   8.302   6.010  1.00  0.00     0.169 HD
ENDBRANCH  13  16
ENDBRANCH  10  13
ENDBRANCH   6   7
BRANCH   1  19
HETATM   19  C5  UNL     1      17.054   7.031  14.743  1.00  0.00    -0.007 A 
HETATM   20  C4  UNL     1      15.725   7.063  14.941  1.00  0.00     0.014 A 
HETATM   21  C3  UNL     1      15.037   5.957  15.387  1.00  0.00     0.007 A 
HETATM   22  C2  UNL     1      15.679   4.792  15.641  1.00  0.00    -0.062 A 
HETATM   23  C1  UNL     1      14.888   3.606  16.126  1.00  0.00     0.048 C 
HETATM   24  C17 UNL     1      17.038   4.716  15.452  1.00  0.00     0.007 A 
HETATM   25  C16 UNL     1      17.702   5.847  15.002  1.00  0.00     0.014 A 
ENDBRANCH   1  19
BRANCH   3  26
HETATM   26  C9  UNL     1      20.008  11.029  14.985  1.00  0.00     0.434 C 
HETATM   27  F1  UNL     1      21.262  10.970  14.421  1.00  0.00    -0.165 F 
HETATM   28  F2  UNL     1      20.063  10.794  16.350  1.00  0.00    -0.165 F 
HETATM   29  F3  UNL     1      19.499  12.285  14.715  1.00  0.00    -0.165 F 
ENDBRANCH   3  26
TORSDOF 5
ENDMDL
