MODEL 7
REMARK VINA RESULT: -7.569412140      2.970     10.198
REMARK  9 active torsions:
REMARK  status: ('A' for Active; 'I' for Inactive)
REMARK    1  A    between atoms: N1_2  and  C3_4 
REMARK    2  A    between atoms: C3_4  and  C4_5 
REMARK       I    between atoms: C4_5  and  N2_7 
REMARK    3  A    between atoms: N2_7  and  C5_9 
REMARK    4  A    between atoms: C10_14  and  O2_15 
REMARK    5  A    between atoms: C13_20  and  O4_21 
REMARK    6  A    between atoms: C14_23  and  O5_24 
REMARK    7  A    between atoms: C16_28  and  C17_29 
REMARK    8  A    between atoms: C18_32  and  O8_33 
REMARK    9  A    between atoms: C19_35  and  N4_36 
ROOT
HETATM    1  C5  UNL     1      19.112  34.251  33.984  1.00  0.00     0.069 A 
HETATM    2  C6  UNL     1      19.047  34.601  35.297  1.00  0.00     0.033 A 
HETATM    3  C7  UNL     1      19.639  35.779  35.777  1.00  0.00     0.010 A 
HETATM    4  C8  UNL     1      20.317  36.637  34.937  1.00  0.00    -0.040 A 
HETATM    5  C9  UNL     1      20.390  36.301  33.626  1.00  0.00     0.056 A 
HETATM    6  C10 UNL     1      19.807  35.131  33.123  1.00  0.00     0.107 A 
HETATM    7  C11 UNL     1      21.100  37.198  32.735  1.00  0.00     0.194 C 
HETATM    8  O3  UNL     1      21.213  36.959  31.509  1.00  0.00    -0.287 OA
HETATM    9  C12 UNL     1      21.687  38.406  33.325  1.00  0.00     0.030 C 
HETATM   10  C13 UNL     1      22.417  39.173  32.537  1.00  0.00     0.096 C 
HETATM   11  C14 UNL     1      23.002  40.390  33.138  1.00  0.00     0.177 C 
HETATM   12  C15 UNL     1      23.956  41.003  32.188  1.00  0.00     0.208 C 
HETATM   13  O6  UNL     1      23.710  40.999  30.979  1.00  0.00    -0.288 OA
HETATM   14  C16 UNL     1      25.176  41.606  32.703  1.00  0.00     0.109 C 
HETATM   15  C18 UNL     1      25.726  41.067  33.780  1.00  0.00     0.096 C 
HETATM   16  C19 UNL     1      25.075  39.906  34.380  1.00  0.00     0.286 C 
HETATM   17  C22 UNL     1      23.600  40.170  34.509  1.00  0.00     0.075 C 
HETATM   18  C23 UNL     1      22.960  39.031  35.241  1.00  0.00     0.021 C 
HETATM   19  C24 UNL     1      21.530  38.825  34.717  1.00  0.00     0.030 C 
HETATM   20  C25 UNL     1      20.884  37.832  35.598  1.00  0.00     0.049 C 
ENDROOT
BRANCH   1  21
HETATM   21  N2  UNL     1      18.537  33.079  33.435  1.00  0.00    -0.323 N 
HETATM   22  C4  UNL     1      17.183  32.820  33.206  1.00  0.00     0.250 C 
HETATM   23  O1  UNL     1      16.329  33.653  33.485  1.00  0.00    -0.271 OA
ATOM     24  H2  UNL     1      19.188  32.337  33.176  1.00  0.00     0.169 HD
BRANCH  22  25
HETATM   25  C3  UNL     1      16.749  31.510  32.611  1.00  0.00     0.373 C 
BRANCH  25  26
HETATM   26  N1  UNL     1      15.326  31.500  32.470  1.00  0.00     0.088 N 
HETATM   27  C1  UNL     1      14.983  31.058  31.136  1.00  0.00     0.310 C 
HETATM   28  C2  UNL     1      14.705  30.709  33.499  1.00  0.00     0.310 C 
ENDBRANCH  25  26
ENDBRANCH  22  25
ENDBRANCH   1  21
BRANCH   6  29
HETATM   29  O2  UNL     1      19.856  34.756  31.826  1.00  0.00    -0.357 OA
ATOM     30  H2  UNL     1      20.242  35.391  31.232  1.00  0.00     0.217 HD
ENDBRANCH   6  29
BRANCH  10  31
HETATM   31  O4  UNL     1      22.645  38.888  31.207  1.00  0.00    -0.361 OA
ATOM     32  H4  UNL     1      23.047  39.503  30.605  1.00  0.00     0.217 HD
ENDBRANCH  10  31
BRANCH  11  33
HETATM   33  O5  UNL     1      21.925  41.314  33.217  1.00  0.00    -0.374 OA
ATOM     34  H5  UNL     1      22.011  41.718  34.072  1.00  0.00     0.211 HD
ENDBRANCH  11  33
BRANCH  16  35
HETATM   35  N4  UNL     1      25.679  39.469  35.612  1.00  0.00     0.091 N 
HETATM   36  C20 UNL     1      24.685  39.346  36.626  1.00  0.00     0.310 C 
HETATM   37  C21 UNL     1      26.417  38.245  35.490  1.00  0.00     0.310 C 
ENDBRANCH  16  35
BRANCH  14  38
HETATM   38  C17 UNL     1      25.796  42.759  32.069  1.00  0.00     0.271 C 
HETATM   39  N3  UNL     1      25.405  44.053  32.457  1.00  0.00    -0.057 NA
HETATM   40  O7  UNL     1      26.665  42.598  31.191  1.00  0.00    -0.271 OA
ENDBRANCH  14  38
BRANCH  15  41
HETATM   41  O8  UNL     1      26.894  41.659  34.259  1.00  0.00    -0.362 OA
ATOM     42  H8  UNL     1      27.700  41.167  34.158  1.00  0.00     0.217 HD
ENDBRANCH  15  41
TORSDOF 9
ENDMDL
