MODEL 8
REMARK VINA RESULT: -7.430431436      2.421     10.089
REMARK  9 active torsions:
REMARK  status: ('A' for Active; 'I' for Inactive)
REMARK    1  A    between atoms: N1_2  and  C3_4 
REMARK    2  A    between atoms: C3_4  and  C4_5 
REMARK       I    between atoms: C4_5  and  N2_7 
REMARK    3  A    between atoms: N2_7  and  C5_9 
REMARK    4  A    between atoms: C10_14  and  O2_15 
REMARK    5  A    between atoms: C13_20  and  O4_21 
REMARK    6  A    between atoms: C14_23  and  O5_24 
REMARK    7  A    between atoms: C16_28  and  C17_29 
REMARK    8  A    between atoms: C18_32  and  O8_33 
REMARK    9  A    between atoms: C19_35  and  N4_36 
ROOT
HETATM    1  C5  UNL     1      22.805  37.412  34.463  1.00  0.00     0.069 A 
HETATM    2  C6  UNL     1      21.826  37.781  33.593  1.00  0.00     0.033 A 
HETATM    3  C7  UNL     1      22.000  38.845  32.695  1.00  0.00     0.010 A 
HETATM    4  C8  UNL     1      23.173  39.568  32.655  1.00  0.00    -0.040 A 
HETATM    5  C9  UNL     1      24.157  39.211  33.516  1.00  0.00     0.056 A 
HETATM    6  C10 UNL     1      24.008  38.153  34.421  1.00  0.00     0.107 A 
HETATM    7  C11 UNL     1      25.396  39.964  33.480  1.00  0.00     0.194 C 
HETATM    8  O3  UNL     1      26.354  39.698  34.244  1.00  0.00    -0.287 OA
HETATM    9  C12 UNL     1      25.488  41.059  32.509  1.00  0.00     0.030 C 
HETATM   10  C13 UNL     1      26.574  41.809  32.540  1.00  0.00     0.096 C 
HETATM   11  C14 UNL     1      26.661  42.909  31.556  1.00  0.00     0.177 C 
HETATM   12  C15 UNL     1      27.821  43.769  31.875  1.00  0.00     0.208 C 
HETATM   13  O6  UNL     1      28.867  43.265  32.293  1.00  0.00    -0.288 OA
HETATM   14  C16 UNL     1      27.707  45.207  31.687  1.00  0.00     0.109 C 
HETATM   15  C18 UNL     1      26.523  45.766  31.887  1.00  0.00     0.096 C 
HETATM   16  C19 UNL     1      25.413  44.905  32.285  1.00  0.00     0.286 C 
HETATM   17  C22 UNL     1      25.378  43.691  31.397  1.00  0.00     0.075 C 
HETATM   18  C23 UNL     1      24.162  42.879  31.724  1.00  0.00     0.021 C 
HETATM   19  C24 UNL     1      24.471  41.389  31.511  1.00  0.00     0.030 C 
HETATM   20  C25 UNL     1      23.197  40.657  31.655  1.00  0.00     0.049 C 
ENDROOT
BRANCH   1  21
HETATM   21  N2  UNL     1      22.694  36.350  35.393  1.00  0.00    -0.323 N 
HETATM   22  C4  UNL     1      21.651  36.106  36.289  1.00  0.00     0.250 C 
HETATM   23  O1  UNL     1      20.680  36.851  36.340  1.00  0.00    -0.271 OA
ATOM     24  H2  UNL     1      23.467  35.684  35.410  1.00  0.00     0.169 HD
BRANCH  22  25
HETATM   25  C3  UNL     1      21.701  34.920  37.211  1.00  0.00     0.373 C 
BRANCH  25  26
HETATM   26  N1  UNL     1      21.735  33.718  36.437  1.00  0.00     0.088 N 
HETATM   27  C1  UNL     1      22.907  32.951  36.799  1.00  0.00     0.310 C 
HETATM   28  C2  UNL     1      20.513  32.971  36.577  1.00  0.00     0.310 C 
ENDBRANCH  25  26
ENDBRANCH  22  25
ENDBRANCH   1  21
BRANCH   6  29
HETATM   29  O2  UNL     1      24.960  37.764  35.297  1.00  0.00    -0.357 OA
ATOM     30  H2  UNL     1      25.150  38.381  35.994  1.00  0.00     0.217 HD
ENDBRANCH   6  29
BRANCH  10  31
HETATM   31  O4  UNL     1      27.605  41.606  33.434  1.00  0.00    -0.361 OA
ATOM     32  H4  UNL     1      28.444  41.238  33.185  1.00  0.00     0.217 HD
ENDBRANCH  10  31
BRANCH  11  33
HETATM   33  O5  UNL     1      27.005  42.277  30.330  1.00  0.00    -0.374 OA
ATOM     34  H5  UNL     1      26.745  42.894  29.656  1.00  0.00     0.211 HD
ENDBRANCH  11  33
BRANCH  16  35
HETATM   35  N4  UNL     1      24.145  45.584  32.360  1.00  0.00     0.091 N 
HETATM   36  C20 UNL     1      23.252  44.860  33.202  1.00  0.00     0.310 C 
HETATM   37  C21 UNL     1      24.246  46.946  32.799  1.00  0.00     0.310 C 
ENDBRANCH  16  35
BRANCH  14  38
HETATM   38  C17 UNL     1      28.842  46.029  31.298  1.00  0.00     0.271 C 
HETATM   39  N3  UNL     1      29.703  46.530  32.292  1.00  0.00    -0.057 NA
HETATM   40  O7  UNL     1      29.047  46.285  30.097  1.00  0.00    -0.271 OA
ENDBRANCH  14  38
BRANCH  15  41
HETATM   41  O8  UNL     1      26.433  47.144  31.701  1.00  0.00    -0.362 OA
ATOM     42  H8  UNL     1      27.178  47.667  31.974  1.00  0.00     0.217 HD
ENDBRANCH  15  41
TORSDOF 9
ENDMDL
