MODEL 4
REMARK VINA RESULT: -7.980559594      2.563      4.937
REMARK  9 active torsions:
REMARK  status: ('A' for Active; 'I' for Inactive)
REMARK    1  A    between atoms: N1_2  and  C3_4 
REMARK    2  A    between atoms: C3_4  and  C4_5 
REMARK       I    between atoms: C4_5  and  N2_7 
REMARK    3  A    between atoms: N2_7  and  C5_9 
REMARK    4  A    between atoms: C10_14  and  O2_15 
REMARK    5  A    between atoms: C13_20  and  O4_21 
REMARK    6  A    between atoms: C14_23  and  O5_24 
REMARK    7  A    between atoms: C16_28  and  C17_29 
REMARK    8  A    between atoms: C18_32  and  O8_33 
REMARK    9  A    between atoms: C19_35  and  N4_36 
ROOT
HETATM    1  C5  UNL     1      27.172  45.868  31.915  1.00  0.00     0.069 A 
HETATM    2  C6  UNL     1      28.044  45.462  32.876  1.00  0.00     0.033 A 
HETATM    3  C7  UNL     1      27.953  44.192  33.466  1.00  0.00     0.010 A 
HETATM    4  C8  UNL     1      26.971  43.297  33.098  1.00  0.00    -0.040 A 
HETATM    5  C9  UNL     1      26.094  43.689  32.141  1.00  0.00     0.056 A 
HETATM    6  C10 UNL     1      26.166  44.950  31.537  1.00  0.00     0.107 A 
HETATM    7  C11 UNL     1      25.059  42.754  31.745  1.00  0.00     0.194 C 
HETATM    8  O3  UNL     1      24.210  43.039  30.868  1.00  0.00    -0.287 OA
HETATM    9  C12 UNL     1      25.041  41.449  32.416  1.00  0.00     0.030 C 
HETATM   10  C13 UNL     1      24.043  40.634  32.130  1.00  0.00     0.096 C 
HETATM   11  C14 UNL     1      24.032  39.320  32.808  1.00  0.00     0.177 C 
HETATM   12  C15 UNL     1      22.747  38.637  32.546  1.00  0.00     0.208 C 
HETATM   13  O6  UNL     1      22.210  38.737  31.440  1.00  0.00    -0.288 OA
HETATM   14  C16 UNL     1      22.136  37.851  33.607  1.00  0.00     0.109 C 
HETATM   15  C18 UNL     1      22.312  38.255  34.856  1.00  0.00     0.096 C 
HETATM   16  C19 UNL     1      23.104  39.459  35.087  1.00  0.00     0.286 C 
HETATM   17  C22 UNL     1      24.372  39.387  34.279  1.00  0.00     0.075 C 
HETATM   18  C23 UNL     1      25.238  40.561  34.619  1.00  0.00     0.021 C 
HETATM   19  C24 UNL     1      26.038  40.982  33.378  1.00  0.00     0.030 C 
HETATM   20  C25 UNL     1      27.010  42.004  33.814  1.00  0.00     0.049 C 
ENDROOT
BRANCH   1  21
HETATM   21  N2  UNL     1      27.209  47.134  31.280  1.00  0.00    -0.323 N 
HETATM   22  C4  UNL     1      28.127  47.583  30.327  1.00  0.00     0.250 C 
HETATM   23  O1  UNL     1      29.036  46.859  29.941  1.00  0.00    -0.271 OA
ATOM     24  H2  UNL     1      26.480  47.794  31.549  1.00  0.00     0.169 HD
BRANCH  22  25
HETATM   25  C3  UNL     1      28.013  48.968  29.755  1.00  0.00     0.373 C 
BRANCH  25  26
HETATM   26  N1  UNL     1      29.214  49.696  30.028  1.00  0.00     0.088 N 
HETATM   27  C1  UNL     1      29.506  50.568  28.911  1.00  0.00     0.310 C 
HETATM   28  C2  UNL     1      29.126  50.400  31.280  1.00  0.00     0.310 C 
ENDBRANCH  25  26
ENDBRANCH  22  25
ENDBRANCH   1  21
BRANCH   6  29
HETATM   29  O2  UNL     1      25.314  45.383  30.581  1.00  0.00    -0.357 OA
ATOM     30  H2  UNL     1      24.474  44.939  30.552  1.00  0.00     0.217 HD
ENDBRANCH   6  29
BRANCH  10  31
HETATM   31  O4  UNL     1      23.036  40.956  31.244  1.00  0.00    -0.361 OA
ATOM     32  H4  UNL     1      23.034  40.677  30.336  1.00  0.00     0.217 HD
ENDBRANCH  10  31
BRANCH  11  33
HETATM   33  O5  UNL     1      25.003  38.544  32.117  1.00  0.00    -0.374 OA
ATOM     34  H5  UNL     1      24.812  37.645  32.355  1.00  0.00     0.211 HD
ENDBRANCH  11  33
BRANCH  16  35
HETATM   35  N4  UNL     1      23.339  39.746  36.478  1.00  0.00     0.091 N 
HETATM   36  C20 UNL     1      22.155  40.268  37.076  1.00  0.00     0.310 C 
HETATM   37  C21 UNL     1      23.817  38.620  37.227  1.00  0.00     0.310 C 
ENDBRANCH  16  35
BRANCH  14  38
HETATM   38  C17 UNL     1      21.346  36.661  33.331  1.00  0.00     0.271 C 
HETATM   39  N3  UNL     1      21.982  35.513  32.825  1.00  0.00    -0.057 NA
HETATM   40  O7  UNL     1      20.119  36.662  33.543  1.00  0.00    -0.271 OA
ENDBRANCH  14  38
BRANCH  15  41
HETATM   41  O8  UNL     1      21.719  37.489  35.859  1.00  0.00    -0.362 OA
ATOM     42  H8  UNL     1      22.223  37.352  36.652  1.00  0.00     0.217 HD
ENDBRANCH  15  41
TORSDOF 9
ENDMDL
