MODEL 2
REMARK VINA RESULT: -9.576505601      0.888      1.083
REMARK  9 active torsions:
REMARK  status: ('A' for Active; 'I' for Inactive)
REMARK    1  A    between atoms: C4_4  and  S1_5 
REMARK    2  A    between atoms: S1_5  and  C5_6 
REMARK    3  A    between atoms: C6_7  and  O1_8 
REMARK    4  A    between atoms: C8_11  and  C9_12 
REMARK    5  A    between atoms: C8_11  and  C17_22 
REMARK    6  A    between atoms: C9_12  and  C10_13 
REMARK    7  A    between atoms: C10_13  and  C11_14 
REMARK    8  A    between atoms: C14_17  and  O2_18 
REMARK    9  A    between atoms: C23_30  and  C24_31 
ROOT
HETATM    1  C5  UNL     1      42.076  12.922  51.797  1.00  0.00     0.110 C 
HETATM    2  C6  UNL     1      42.374  14.012  52.437  1.00  0.00     0.069 C 
HETATM    3  C7  UNL     1      41.674  14.592  53.601  1.00  0.00     0.105 C 
HETATM    4  C8  UNL     1      40.343  13.906  53.908  1.00  0.00     0.081 C 
HETATM    5  O3  UNL     1      40.219  12.643  53.339  1.00  0.00    -0.305 OA
HETATM    6  C22 UNL     1      40.917  12.152  52.254  1.00  0.00     0.303 C 
HETATM    7  O4  UNL     1      40.542  11.082  51.703  1.00  0.00    -0.259 OA
ENDROOT
BRANCH   4   8
HETATM    8  C9  UNL     1      40.309  13.793  55.400  1.00  0.00     0.044 C 
BRANCH   8   9
HETATM    9  C10 UNL     1      41.338  14.513  56.183  1.00  0.00     0.041 C 
BRANCH   9  10
HETATM   10  C11 UNL     1      41.306  13.929  57.574  1.00  0.00    -0.058 A 
HETATM   11  C12 UNL     1      42.274  14.319  58.471  1.00  0.00     0.010 A 
HETATM   12  C13 UNL     1      42.288  13.819  59.752  1.00  0.00     0.037 A 
HETATM   13  C14 UNL     1      41.339  12.912  60.179  1.00  0.00     0.065 A 
HETATM   14  C15 UNL     1      40.375  12.528  59.273  1.00  0.00     0.037 A 
HETATM   15  C16 UNL     1      40.360  13.030  57.992  1.00  0.00     0.010 A 
BRANCH  13  16
HETATM   16  O2  UNL     1      41.357  12.405  61.488  1.00  0.00    -0.361 OA
ATOM     17  H2  UNL     1      41.105  11.507  61.669  1.00  0.00     0.217 HD
ENDBRANCH  13  16
ENDBRANCH   9  10
ENDBRANCH   8   9
ENDBRANCH   4   8
BRANCH   4  18
HETATM   18  C17 UNL     1      39.201  14.767  53.415  1.00  0.00     0.021 C 
HETATM   19  C18 UNL     1      38.071  14.767  54.430  1.00  0.00     0.007 C 
HETATM   20  C19 UNL     1      37.263  15.972  53.991  1.00  0.00     0.000 C 
HETATM   21  C20 UNL     1      38.413  17.007  53.967  1.00  0.00     0.000 C 
HETATM   22  C21 UNL     1      39.530  16.220  53.267  1.00  0.00     0.007 C 
ENDBRANCH   4  18
BRANCH   2  23
HETATM   23  O1  UNL     1      43.484  14.736  51.985  1.00  0.00    -0.363 OA
ATOM     24  H1  UNL     1      43.858  15.375  52.580  1.00  0.00     0.217 HD
ENDBRANCH   2  23
BRANCH   1  25
HETATM   25  S1  UNL     1      43.002  12.317  50.393  1.00  0.00    -0.081 SA
BRANCH  25  26
HETATM   26  C4  UNL     1      43.192  13.549  49.142  1.00  0.00     0.013 A 
HETATM   27  C3  UNL     1      42.175  14.445  48.835  1.00  0.00     0.028 A 
HETATM   28  C2  UNL     1      42.306  15.423  47.884  1.00  0.00    -0.036 A 
HETATM   29  C1  UNL     1      41.188  16.377  47.578  1.00  0.00     0.050 C 
HETATM   30  C29 UNL     1      43.512  15.493  47.220  1.00  0.00     0.052 A 
HETATM   31  C28 UNL     1      44.542  14.602  47.516  1.00  0.00     0.036 A 
HETATM   32  N1  UNL     1      43.659  16.498  46.238  1.00  0.00    -0.102 NA
HETATM   33  C23 UNL     1      44.401  13.624  48.472  1.00  0.00    -0.032 A 
BRANCH  33  34
HETATM   34  C24 UNL     1      45.525  12.721  48.756  1.00  0.00    -0.023 C 
HETATM   35  C25 UNL     1      46.072  12.896  50.161  1.00  0.00     0.019 C 
HETATM   36  C26 UNL     1      46.690  13.155  47.845  1.00  0.00     0.019 C 
HETATM   37  C27 UNL     1      45.245  11.287  48.452  1.00  0.00     0.019 C 
ENDBRANCH  33  34
ENDBRANCH  25  26
ENDBRANCH   1  25
TORSDOF 9
ENDMDL
