MODEL 3
REMARK VINA RESULT: -9.273929606      3.421      4.783
REMARK  9 active torsions:
REMARK  status: ('A' for Active; 'I' for Inactive)
REMARK    1  A    between atoms: C4_4  and  S1_5 
REMARK    2  A    between atoms: S1_5  and  C5_6 
REMARK    3  A    between atoms: C6_7  and  O1_8 
REMARK    4  A    between atoms: C8_11  and  C9_12 
REMARK    5  A    between atoms: C8_11  and  C17_22 
REMARK    6  A    between atoms: C9_12  and  C10_13 
REMARK    7  A    between atoms: C10_13  and  C11_14 
REMARK    8  A    between atoms: C14_17  and  O2_18 
REMARK    9  A    between atoms: C23_30  and  C24_31 
ROOT
HETATM    1  C5  UNL     1      41.061  12.092  51.187  1.00  0.00     0.110 C 
HETATM    2  C6  UNL     1      41.710  13.121  51.639  1.00  0.00     0.069 C 
HETATM    3  C7  UNL     1      41.408  13.917  52.846  1.00  0.00     0.105 C 
HETATM    4  C8  UNL     1      40.054  13.576  53.469  1.00  0.00     0.081 C 
HETATM    5  O3  UNL     1      39.549  12.342  53.072  1.00  0.00    -0.305 OA
HETATM    6  C22 UNL     1      39.885  11.639  51.933  1.00  0.00     0.303 C 
HETATM    7  O4  UNL     1      39.185  10.652  51.580  1.00  0.00    -0.259 OA
ENDROOT
BRANCH   4   8
HETATM    8  C9  UNL     1      40.306  13.566  54.944  1.00  0.00     0.044 C 
BRANCH   8   9
HETATM    9  C10 UNL     1      41.500  14.277  55.458  1.00  0.00     0.041 C 
BRANCH   9  10
HETATM   10  C11 UNL     1      41.545  14.021  56.945  1.00  0.00    -0.058 A 
HETATM   11  C12 UNL     1      40.559  13.244  57.507  1.00  0.00     0.010 A 
HETATM   12  C13 UNL     1      40.556  12.979  58.857  1.00  0.00     0.037 A 
HETATM   13  C14 UNL     1      41.536  13.480  59.689  1.00  0.00     0.065 A 
HETATM   14  C15 UNL     1      42.519  14.257  59.116  1.00  0.00     0.037 A 
HETATM   15  C16 UNL     1      42.523  14.522  57.766  1.00  0.00     0.010 A 
BRANCH  13  16
HETATM   16  O2  UNL     1      41.529  13.206  61.065  1.00  0.00    -0.361 OA
ATOM     17  H2  UNL     1      40.720  13.011  61.522  1.00  0.00     0.217 HD
ENDBRANCH  13  16
ENDBRANCH   9  10
ENDBRANCH   8   9
ENDBRANCH   4   8
BRANCH   4  18
HETATM   18  C17 UNL     1      39.045  14.644  53.112  1.00  0.00     0.021 C 
HETATM   19  C18 UNL     1      38.017  14.786  54.221  1.00  0.00     0.007 C 
HETATM   20  C19 UNL     1      37.401  16.132  53.901  1.00  0.00     0.000 C 
HETATM   21  C20 UNL     1      38.708  16.954  53.815  1.00  0.00     0.000 C 
HETATM   22  C21 UNL     1      39.611  16.025  52.990  1.00  0.00     0.007 C 
ENDBRANCH   4  18
BRANCH   2  23
HETATM   23  O1  UNL     1      42.831  13.541  50.912  1.00  0.00    -0.363 OA
ATOM     24  H1  UNL     1      42.714  14.275  50.320  1.00  0.00     0.217 HD
ENDBRANCH   2  23
BRANCH   1  25
HETATM   25  S1  UNL     1      41.525  11.205  49.706  1.00  0.00    -0.081 SA
BRANCH  25  26
HETATM   26  C4  UNL     1      42.171   9.600  50.068  1.00  0.00     0.013 A 
HETATM   27  C3  UNL     1      42.961   9.363  51.185  1.00  0.00     0.028 A 
HETATM   28  C2  UNL     1      43.455   8.124  51.498  1.00  0.00    -0.036 A 
HETATM   29  C1  UNL     1      44.305   7.900  52.716  1.00  0.00     0.050 C 
HETATM   30  C29 UNL     1      43.136   7.089  50.645  1.00  0.00     0.052 A 
HETATM   31  C28 UNL     1      42.344   7.310  49.519  1.00  0.00     0.036 A 
HETATM   32  N1  UNL     1      43.639   5.807  50.958  1.00  0.00    -0.102 NA
HETATM   33  C23 UNL     1      41.853   8.557  49.214  1.00  0.00    -0.032 A 
BRANCH  33  34
HETATM   34  C24 UNL     1      41.009   8.732  48.024  1.00  0.00    -0.023 C 
HETATM   35  C25 UNL     1      39.565   9.039  48.374  1.00  0.00     0.019 C 
HETATM   36  C26 UNL     1      40.940   7.364  47.318  1.00  0.00     0.019 C 
HETATM   37  C27 UNL     1      41.550   9.708  47.032  1.00  0.00     0.019 C 
ENDBRANCH  33  34
ENDBRANCH  25  26
ENDBRANCH   1  25
TORSDOF 9
ENDMDL
