MODEL 5
REMARK VINA RESULT: -8.957122610      2.881      4.509
REMARK  9 active torsions:
REMARK  status: ('A' for Active; 'I' for Inactive)
REMARK    1  A    between atoms: C4_4  and  S1_5 
REMARK    2  A    between atoms: S1_5  and  C5_6 
REMARK    3  A    between atoms: C6_7  and  O1_8 
REMARK    4  A    between atoms: C8_11  and  C9_12 
REMARK    5  A    between atoms: C8_11  and  C17_22 
REMARK    6  A    between atoms: C9_12  and  C10_13 
REMARK    7  A    between atoms: C10_13  and  C11_14 
REMARK    8  A    between atoms: C14_17  and  O2_18 
REMARK    9  A    between atoms: C23_30  and  C24_31 
ROOT
HETATM    1  C5  UNL     1      40.984  11.979  50.847  1.00  0.00     0.110 C 
HETATM    2  C6  UNL     1      41.087  13.169  50.337  1.00  0.00     0.069 C 
HETATM    3  C7  UNL     1      41.083  14.459  51.055  1.00  0.00     0.105 C 
HETATM    4  C8  UNL     1      40.703  14.327  52.530  1.00  0.00     0.081 C 
HETATM    5  O3  UNL     1      40.835  13.036  53.030  1.00  0.00    -0.305 OA
HETATM    6  C22 UNL     1      40.846  11.865  52.300  1.00  0.00     0.303 C 
HETATM    7  O4  UNL     1      40.738  10.758  52.895  1.00  0.00    -0.259 OA
ENDROOT
BRANCH   4   8
HETATM    8  C9  UNL     1      41.643  15.244  53.248  1.00  0.00     0.044 C 
BRANCH   8   9
HETATM    9  C10 UNL     1      42.957  14.710  53.674  1.00  0.00     0.041 C 
BRANCH   9  10
HETATM   10  C11 UNL     1      42.861  14.467  55.160  1.00  0.00    -0.058 A 
HETATM   11  C12 UNL     1      43.831  13.701  55.763  1.00  0.00     0.010 A 
HETATM   12  C13 UNL     1      43.791  13.453  57.116  1.00  0.00     0.037 A 
HETATM   13  C14 UNL     1      42.782  13.959  57.909  1.00  0.00     0.065 A 
HETATM   14  C15 UNL     1      41.814  14.724  57.295  1.00  0.00     0.037 A 
HETATM   15  C16 UNL     1      41.855  14.974  55.943  1.00  0.00     0.010 A 
BRANCH  13  16
HETATM   16  O2  UNL     1      42.746  13.702  59.289  1.00  0.00    -0.361 OA
ATOM     17  H2  UNL     1      42.382  12.893  59.628  1.00  0.00     0.217 HD
ENDBRANCH  13  16
ENDBRANCH   9  10
ENDBRANCH   8   9
ENDBRANCH   4   8
BRANCH   4  18
HETATM   18  C17 UNL     1      39.272  14.774  52.729  1.00  0.00     0.021 C 
HETATM   19  C18 UNL     1      38.787  14.379  54.113  1.00  0.00     0.007 C 
HETATM   20  C19 UNL     1      37.565  15.259  54.275  1.00  0.00     0.000 C 
HETATM   21  C20 UNL     1      38.229  16.616  53.939  1.00  0.00     0.000 C 
HETATM   22  C21 UNL     1      39.069  16.257  52.705  1.00  0.00     0.007 C 
ENDBRANCH   4  18
BRANCH   2  23
HETATM   23  O1  UNL     1      41.216  13.259  48.945  1.00  0.00    -0.363 OA
ATOM     24  H1  UNL     1      41.175  14.127  48.561  1.00  0.00     0.217 HD
ENDBRANCH   2  23
BRANCH   1  25
HETATM   25  S1  UNL     1      41.001  10.482  49.870  1.00  0.00    -0.081 SA
BRANCH  25  26
HETATM   26  C4  UNL     1      42.641   9.995  49.430  1.00  0.00     0.013 A 
HETATM   27  C3  UNL     1      43.759  10.566  50.023  1.00  0.00     0.028 A 
HETATM   28  C2  UNL     1      45.041  10.190  49.713  1.00  0.00    -0.036 A 
HETATM   29  C1  UNL     1      46.229  10.827  50.374  1.00  0.00     0.050 C 
HETATM   30  C29 UNL     1      45.190   9.199  48.767  1.00  0.00     0.052 A 
HETATM   31  C28 UNL     1      44.078   8.615  48.163  1.00  0.00     0.036 A 
HETATM   32  N1  UNL     1      46.506   8.802  48.441  1.00  0.00    -0.102 NA
HETATM   33  C23 UNL     1      42.797   8.998  48.481  1.00  0.00    -0.032 A 
BRANCH  33  34
HETATM   34  C24 UNL     1      41.659   8.338  47.826  1.00  0.00    -0.023 C 
HETATM   35  C25 UNL     1      40.897   7.423  48.766  1.00  0.00     0.019 C 
HETATM   36  C26 UNL     1      42.244   7.384  46.767  1.00  0.00     0.019 C 
HETATM   37  C27 UNL     1      40.742   9.274  47.111  1.00  0.00     0.019 C 
ENDBRANCH  33  34
ENDBRANCH  25  26
ENDBRANCH   1  25
TORSDOF 9
ENDMDL
