MODEL 4
REMARK VINA RESULT: -8.958803201      3.659      8.868
REMARK  9 active torsions:
REMARK  status: ('A' for Active; 'I' for Inactive)
REMARK    1  A    between atoms: C4_4  and  S1_5 
REMARK    2  A    between atoms: S1_5  and  C5_6 
REMARK    3  A    between atoms: C6_7  and  O1_8 
REMARK    4  A    between atoms: C8_11  and  C9_12 
REMARK    5  A    between atoms: C8_11  and  C17_22 
REMARK    6  A    between atoms: C9_12  and  C10_13 
REMARK    7  A    between atoms: C10_13  and  C11_14 
REMARK    8  A    between atoms: C14_17  and  O2_18 
REMARK    9  A    between atoms: C23_30  and  C24_31 
ROOT
HETATM    1  C5  UNL     1      43.032  13.465  53.898  1.00  0.00     0.110 C 
HETATM    2  C6  UNL     1      41.987  12.936  53.339  1.00  0.00     0.069 C 
HETATM    3  C7  UNL     1      41.011  13.598  52.449  1.00  0.00     0.105 C 
HETATM    4  C8  UNL     1      41.184  15.115  52.387  1.00  0.00     0.081 C 
HETATM    5  O3  UNL     1      42.431  15.556  52.816  1.00  0.00    -0.305 OA
HETATM    6  C22 UNL     1      43.308  14.880  53.641  1.00  0.00     0.303 C 
HETATM    7  O4  UNL     1      44.295  15.489  54.136  1.00  0.00    -0.259 OA
ENDROOT
BRANCH   4   8
HETATM    8  C9  UNL     1      40.998  15.460  50.942  1.00  0.00     0.044 C 
BRANCH   8   9
HETATM    9  C10 UNL     1      41.566  14.549  49.923  1.00  0.00     0.041 C 
BRANCH   9  10
HETATM   10  C11 UNL     1      41.670  15.344  48.645  1.00  0.00    -0.058 A 
HETATM   11  C12 UNL     1      40.645  16.203  48.322  1.00  0.00     0.010 A 
HETATM   12  C13 UNL     1      40.693  16.953  47.170  1.00  0.00     0.037 A 
HETATM   13  C14 UNL     1      41.763  16.870  46.303  1.00  0.00     0.065 A 
HETATM   14  C15 UNL     1      42.784  16.006  46.635  1.00  0.00     0.037 A 
HETATM   15  C16 UNL     1      42.737  15.258  47.788  1.00  0.00     0.010 A 
BRANCH  13  16
HETATM   16  O2  UNL     1      41.807  17.638  45.129  1.00  0.00    -0.361 OA
ATOM     17  H2  UNL     1      42.538  18.218  44.950  1.00  0.00     0.217 HD
ENDBRANCH  13  16
ENDBRANCH   9  10
ENDBRANCH   8   9
ENDBRANCH   4   8
BRANCH   4  18
HETATM   18  C17 UNL     1      40.123  15.783  53.232  1.00  0.00     0.021 C 
HETATM   19  C18 UNL     1      38.932  16.169  52.370  1.00  0.00     0.007 C 
HETATM   20  C19 UNL     1      37.858  16.397  53.414  1.00  0.00     0.000 C 
HETATM   21  C20 UNL     1      37.991  15.049  54.161  1.00  0.00     0.000 C 
HETATM   22  C21 UNL     1      39.516  14.908  54.284  1.00  0.00     0.007 C 
ENDBRANCH   4  18
BRANCH   2  23
HETATM   23  O1  UNL     1      41.738  11.583  53.598  1.00  0.00    -0.363 OA
ATOM     24  H1  UNL     1      42.022  10.956  52.942  1.00  0.00     0.217 HD
ENDBRANCH   2  23
BRANCH   1  25
HETATM   25  S1  UNL     1      44.146  12.559  54.963  1.00  0.00    -0.081 SA
BRANCH  25  26
HETATM   26  C4  UNL     1      43.593  12.541  56.641  1.00  0.00     0.013 A 
HETATM   27  C3  UNL     1      42.276  12.822  56.981  1.00  0.00     0.028 A 
HETATM   28  C2  UNL     1      41.817  12.793  58.273  1.00  0.00    -0.036 A 
HETATM   29  C1  UNL     1      40.386  13.100  58.607  1.00  0.00     0.050 C 
HETATM   30  C29 UNL     1      42.731  12.469  59.253  1.00  0.00     0.052 A 
HETATM   31  C28 UNL     1      44.056  12.184  58.928  1.00  0.00     0.036 A 
HETATM   32  N1  UNL     1      42.270  12.434  60.588  1.00  0.00    -0.102 NA
HETATM   33  C23 UNL     1      44.505  12.215  57.630  1.00  0.00    -0.032 A 
BRANCH  33  34
HETATM   34  C24 UNL     1      45.909  11.890  57.341  1.00  0.00    -0.023 C 
HETATM   35  C25 UNL     1      46.072  10.518  56.715  1.00  0.00     0.019 C 
HETATM   36  C26 UNL     1      46.630  11.770  58.698  1.00  0.00     0.019 C 
HETATM   37  C27 UNL     1      46.627  12.938  56.557  1.00  0.00     0.019 C 
ENDBRANCH  33  34
ENDBRANCH  25  26
ENDBRANCH   1  25
TORSDOF 9
ENDMDL
