MODEL 7
REMARK VINA RESULT: -8.849025349      1.629      2.245
REMARK  9 active torsions:
REMARK  status: ('A' for Active; 'I' for Inactive)
REMARK    1  A    between atoms: C4_4  and  S1_5 
REMARK    2  A    between atoms: S1_5  and  C5_6 
REMARK    3  A    between atoms: C6_7  and  O1_8 
REMARK    4  A    between atoms: C8_11  and  C9_12 
REMARK    5  A    between atoms: C8_11  and  C17_22 
REMARK    6  A    between atoms: C9_12  and  C10_13 
REMARK    7  A    between atoms: C10_13  and  C11_14 
REMARK    8  A    between atoms: C14_17  and  O2_18 
REMARK    9  A    between atoms: C23_30  and  C24_31 
ROOT
HETATM    1  C5  UNL     1      43.588  13.586  54.021  1.00  0.00     0.110 C 
HETATM    2  C6  UNL     1      43.655  14.643  54.772  1.00  0.00     0.069 C 
HETATM    3  C7  UNL     1      42.680  15.089  55.786  1.00  0.00     0.105 C 
HETATM    4  C8  UNL     1      41.372  14.299  55.755  1.00  0.00     0.081 C 
HETATM    5  O3  UNL     1      41.472  13.075  55.101  1.00  0.00    -0.305 OA
HETATM    6  C22 UNL     1      42.422  12.712  54.168  1.00  0.00     0.303 C 
HETATM    7  O4  UNL     1      42.260  11.664  53.486  1.00  0.00    -0.259 OA
ENDROOT
BRANCH   4   8
HETATM    8  C9  UNL     1      41.028  14.074  57.194  1.00  0.00     0.044 C 
BRANCH   8   9
HETATM    9  C10 UNL     1      42.096  14.242  58.206  1.00  0.00     0.041 C 
BRANCH   9  10
HETATM   10  C11 UNL     1      41.641  13.501  59.439  1.00  0.00    -0.058 A 
HETATM   11  C12 UNL     1      41.007  12.290  59.279  1.00  0.00     0.010 A 
HETATM   12  C13 UNL     1      40.575  11.573  60.371  1.00  0.00     0.037 A 
HETATM   13  C14 UNL     1      40.760  12.041  61.655  1.00  0.00     0.065 A 
HETATM   14  C15 UNL     1      41.394  13.255  61.805  1.00  0.00     0.037 A 
HETATM   15  C16 UNL     1      41.828  13.971  60.713  1.00  0.00     0.010 A 
BRANCH  13  16
HETATM   16  O2  UNL     1      40.317  11.305  62.766  1.00  0.00    -0.361 OA
ATOM     17  H2  UNL     1      39.408  11.042  62.849  1.00  0.00     0.217 HD
ENDBRANCH  13  16
ENDBRANCH   9  10
ENDBRANCH   8   9
ENDBRANCH   4   8
BRANCH   4  18
HETATM   18  C17 UNL     1      40.298  15.119  55.075  1.00  0.00     0.021 C 
HETATM   19  C18 UNL     1      40.082  14.625  53.655  1.00  0.00     0.007 C 
HETATM   20  C19 UNL     1      38.738  15.236  53.317  1.00  0.00     0.000 C 
HETATM   21  C20 UNL     1      37.951  14.723  54.546  1.00  0.00     0.000 C 
HETATM   22  C21 UNL     1      38.937  15.001  55.689  1.00  0.00     0.007 C 
ENDBRANCH   4  18
BRANCH   2  23
HETATM   23  O1  UNL     1      44.776  15.468  54.616  1.00  0.00    -0.363 OA
ATOM     24  H1  UNL     1      45.188  15.795  55.408  1.00  0.00     0.217 HD
ENDBRANCH   2  23
BRANCH   1  25
HETATM   25  S1  UNL     1      44.838  13.147  52.820  1.00  0.00    -0.081 SA
BRANCH  25  26
HETATM   26  C4  UNL     1      44.304  13.454  51.164  1.00  0.00     0.013 A 
HETATM   27  C3  UNL     1      42.998  13.826  50.872  1.00  0.00     0.028 A 
HETATM   28  C2  UNL     1      42.566  14.091  49.598  1.00  0.00    -0.036 A 
HETATM   29  C1  UNL     1      41.148  14.493  49.316  1.00  0.00     0.050 C 
HETATM   30  C29 UNL     1      43.494  13.972  48.585  1.00  0.00     0.052 A 
HETATM   31  C28 UNL     1      44.809  13.599  48.862  1.00  0.00     0.036 A 
HETATM   32  N1  UNL     1      43.061  14.243  47.269  1.00  0.00    -0.102 NA
HETATM   33  C23 UNL     1      45.232  13.337  50.143  1.00  0.00    -0.032 A 
BRANCH  33  34
HETATM   34  C24 UNL     1      46.634  12.964  50.381  1.00  0.00    -0.023 C 
HETATM   35  C25 UNL     1      47.377  13.993  51.213  1.00  0.00     0.019 C 
HETATM   36  C26 UNL     1      47.346  13.003  49.015  1.00  0.00     0.019 C 
HETATM   37  C27 UNL     1      46.813  11.587  50.928  1.00  0.00     0.019 C 
ENDBRANCH  33  34
ENDBRANCH  25  26
ENDBRANCH   1  25
TORSDOF 9
ENDMDL
