MODEL 8
REMARK VINA RESULT: -5.095933216      2.453      3.693
REMARK  1 active torsions:
REMARK  status: ('A' for Active; 'I' for Inactive)
REMARK    1  A    between atoms: C1_2  and  C2_6 
ROOT
HETATM    1  C2  UNL     1      44.389 -23.068  62.332  1.00  0.00     0.004 A 
HETATM    2  C3  UNL     1      43.226 -23.257  61.642  1.00  0.00     0.015 A 
HETATM    3  C4  UNL     1      41.985 -22.796  62.102  1.00  0.00     0.001 A 
HETATM    4  C5  UNL     1      41.957 -22.135  63.291  1.00  0.00     0.000 A 
HETATM    5  C6  UNL     1      43.089 -21.907  64.044  1.00  0.00     0.001 A 
HETATM    6  C7  UNL     1      44.284 -22.378  63.551  1.00  0.00     0.015 A 
ENDROOT
BRANCH   1   7
HETATM    7  C1  UNL     1      45.663 -23.541  61.858  1.00  0.00     0.120 C 
HETATM    8  N1  UNL     1      46.845 -23.003  62.440  1.00  0.00    -0.082 NA
HETATM    9  N2  UNL     1      45.759 -24.410  60.951  1.00  0.00    -0.387 N 
ATOM     10  H22 UNL     1      46.663 -24.745  60.615  1.00  0.00     0.157 HD
ATOM     11  H21 UNL     1      44.912 -24.795  60.534  1.00  0.00     0.157 HD
ENDBRANCH   1   7
TORSDOF 1
ENDMDL
