MODEL 20
REMARK VINA RESULT: -4.072515600      2.432      3.571
REMARK  1 active torsions:
REMARK  status: ('A' for Active; 'I' for Inactive)
REMARK    1  A    between atoms: C1_2  and  C2_6 
ROOT
HETATM    1  C2  UNL     1      41.932 -20.879  62.448  1.00  0.00     0.004 A 
HETATM    2  C3  UNL     1      43.169 -20.953  63.023  1.00  0.00     0.015 A 
HETATM    3  C4  UNL     1      43.952 -22.116  62.995  1.00  0.00     0.001 A 
HETATM    4  C5  UNL     1      43.441 -23.208  62.364  1.00  0.00     0.000 A 
HETATM    5  C6  UNL     1      42.201 -23.208  61.761  1.00  0.00     0.001 A 
HETATM    6  C7  UNL     1      41.469 -22.044  61.814  1.00  0.00     0.015 A 
ENDROOT
BRANCH   1   7
HETATM    7  C1  UNL     1      41.129 -19.685  62.477  1.00  0.00     0.120 C 
HETATM    8  N1  UNL     1      40.133 -19.561  63.486  1.00  0.00    -0.082 NA
HETATM    9  N2  UNL     1      41.282 -18.755  61.641  1.00  0.00    -0.387 N 
ATOM     10  H22 UNL     1      40.712 -17.909  61.661  1.00  0.00     0.157 HD
ATOM     11  H21 UNL     1      41.996 -18.844  60.917  1.00  0.00     0.157 HD
ENDBRANCH   1   7
TORSDOF 1
ENDMDL
