MODEL 9
REMARK VINA RESULT: -4.914360039      2.539      3.544
REMARK  1 active torsions:
REMARK  status: ('A' for Active; 'I' for Inactive)
REMARK    1  A    between atoms: C1_2  and  C2_6 
ROOT
HETATM    1  C2  UNL     1      44.757 -22.954  62.417  1.00  0.00     0.004 A 
HETATM    2  C3  UNL     1      43.721 -23.298  61.596  1.00  0.00     0.015 A 
HETATM    3  C4  UNL     1      42.385 -22.993  61.890  1.00  0.00     0.001 A 
HETATM    4  C5  UNL     1      42.128 -22.326  63.048  1.00  0.00     0.000 A 
HETATM    5  C6  UNL     1      43.121 -21.946  63.926  1.00  0.00     0.001 A 
HETATM    6  C7  UNL     1      44.418 -22.267  63.595  1.00  0.00     0.015 A 
ENDROOT
BRANCH   1   7
HETATM    7  C1  UNL     1      46.129 -23.267  62.114  1.00  0.00     0.120 C 
HETATM    8  N1  UNL     1      46.485 -23.514  60.758  1.00  0.00    -0.082 NA
HETATM    9  N2  UNL     1      47.015 -23.326  63.008  1.00  0.00    -0.387 N 
ATOM     10  H22 UNL     1      47.987 -23.548  62.793  1.00  0.00     0.157 HD
ATOM     11  H21 UNL     1      46.759 -23.149  63.979  1.00  0.00     0.157 HD
ENDBRANCH   1   7
TORSDOF 1
ENDMDL
