MODEL 16
REMARK VINA RESULT: -4.355044290      2.327      3.884
REMARK  1 active torsions:
REMARK  status: ('A' for Active; 'I' for Inactive)
REMARK    1  A    between atoms: C1_2  and  C2_6 
ROOT
HETATM    1  C2  UNL     1      43.476 -22.720  62.158  1.00  0.00     0.004 A 
HETATM    2  C3  UNL     1      42.434 -23.450  61.662  1.00  0.00     0.015 A 
HETATM    3  C4  UNL     1      41.104 -23.010  61.713  1.00  0.00     0.001 A 
HETATM    4  C5  UNL     1      40.860 -21.800  62.285  1.00  0.00     0.000 A 
HETATM    5  C6  UNL     1      41.860 -21.007  62.807  1.00  0.00     0.001 A 
HETATM    6  C7  UNL     1      43.149 -21.481  62.735  1.00  0.00     0.015 A 
ENDROOT
BRANCH   1   7
HETATM    7  C1  UNL     1      44.841 -23.173  62.105  1.00  0.00     0.120 C 
HETATM    8  N1  UNL     1      45.804 -22.521  62.925  1.00  0.00    -0.082 NA
HETATM    9  N2  UNL     1      45.203 -24.122  61.360  1.00  0.00    -0.387 N 
ATOM     10  H22 UNL     1      46.171 -24.442  61.322  1.00  0.00     0.157 HD
ATOM     11  H21 UNL     1      44.513 -24.589  60.771  1.00  0.00     0.157 HD
ENDBRANCH   1   7
TORSDOF 1
ENDMDL
