MODEL 7
REMARK VINA RESULT: -5.097170749      2.490      3.985
REMARK  1 active torsions:
REMARK  status: ('A' for Active; 'I' for Inactive)
REMARK    1  A    between atoms: C1_2  and  C2_6 
ROOT
HETATM    1  C2  UNL     1      44.727 -22.763  62.640  1.00  0.00     0.004 A 
HETATM    2  C3  UNL     1      44.121 -21.972  63.575  1.00  0.00     0.015 A 
HETATM    3  C4  UNL     1      42.732 -21.799  63.639  1.00  0.00     0.001 A 
HETATM    4  C5  UNL     1      41.969 -22.456  62.723  1.00  0.00     0.000 A 
HETATM    5  C6  UNL     1      42.509 -23.271  61.751  1.00  0.00     0.001 A 
HETATM    6  C7  UNL     1      43.878 -23.409  61.727  1.00  0.00     0.015 A 
ENDROOT
BRANCH   1   7
HETATM    7  C1  UNL     1      46.154 -22.940  62.575  1.00  0.00     0.120 C 
HETATM    8  N1  UNL     1      46.969 -22.226  63.497  1.00  0.00    -0.082 NA
HETATM    9  N2  UNL     1      46.695 -23.704  61.731  1.00  0.00    -0.387 N 
ATOM     10  H22 UNL     1      47.707 -23.829  61.685  1.00  0.00     0.157 HD
ATOM     11  H21 UNL     1      46.110 -24.215  61.070  1.00  0.00     0.157 HD
ENDBRANCH   1   7
TORSDOF 1
ENDMDL
