MODEL 3
REMARK VINA RESULT: -10.741873925      1.721      1.963
REMARK  10 active torsions:
REMARK  status: ('A' for Active; 'I' for Inactive)
REMARK    1  A    between atoms: N4_17  and  C9_18 
REMARK    2  A    between atoms: C9_18  and  C10_19 
REMARK    3  A    between atoms: C10_19  and  O3_20 
REMARK    4  A    between atoms: C10_19  and  C11_22 
REMARK    5  A    between atoms: C11_22  and  O4_23 
REMARK    6  A    between atoms: C11_22  and  C12_25 
REMARK    7  A    between atoms: C12_25  and  O5_26 
REMARK    8  A    between atoms: C12_25  and  C13_28 
REMARK    9  A    between atoms: C13_28  and  O6_29 
REMARK   10  A    between atoms: O6_29  and  P1_30 
ROOT
HETATM    1  C1  UNL     1      19.115  16.056  20.904  1.00  0.00     0.049 C 
HETATM    2  C2  UNL     1      18.424  15.696  19.643  1.00  0.00    -0.054 A 
HETATM    3  C3  UNL     1      17.361  16.441  19.180  1.00  0.00     0.039 A 
HETATM    4  C4  UNL     1      16.697  16.126  18.003  1.00  0.00     0.060 A 
HETATM    5  N1  UNL     1      15.670  16.894  17.598  1.00  0.00    -0.347 N 
ATOM      6  H1  UNL     1      15.387  17.696  18.161  1.00  0.00     0.166 HD
HETATM    7  C5  UNL     1      15.015  16.617  16.464  1.00  0.00     0.146 A 
HETATM    8  C6  UNL     1      13.940  17.384  15.998  1.00  0.00     0.280 A 
HETATM    9  O1  UNL     1      13.589  18.364  16.680  1.00  0.00    -0.265 OA
HETATM   10  N2  UNL     1      13.323  17.043  14.839  1.00  0.00    -0.273 N 
ATOM     11  H2  UNL     1      12.539  17.599  14.497  1.00  0.00     0.173 HD
HETATM   12  C7  UNL     1      13.743  15.973  14.142  1.00  0.00     0.328 A 
HETATM   13  O2  UNL     1      13.128  15.713  13.075  1.00  0.00    -0.247 OA
HETATM   14  N3  UNL     1      14.787  15.198  14.559  1.00  0.00    -0.292 N 
ATOM     15  H3  UNL     1      15.071  14.396  13.996  1.00  0.00     0.172 HD
HETATM   16  C8  UNL     1      15.449  15.470  15.694  1.00  0.00     0.145 A 
HETATM   17  N4  UNL     1      16.499  14.717  16.146  1.00  0.00    -0.327 N 
HETATM   18  C14 UNL     1      17.145  15.011  17.286  1.00  0.00     0.063 A 
HETATM   19  C15 UNL     1      18.210  14.258  17.743  1.00  0.00     0.039 A 
HETATM   20  C16 UNL     1      18.850  14.599  18.919  1.00  0.00    -0.054 A 
HETATM   21  C17 UNL     1      19.996  13.802  19.425  1.00  0.00     0.049 C 
ENDROOT
BRANCH  17  22
HETATM   22  C9  UNL     1      16.892  13.583  15.339  1.00  0.00     0.165 C 
BRANCH  22  23
HETATM   23  C10 UNL     1      17.849  14.092  14.252  1.00  0.00     0.167 C 
BRANCH  23  24
HETATM   24  O3  UNL     1      17.305  14.118  12.999  1.00  0.00    -0.391 OA
ATOM     25  H3  UNL     1      17.922  13.919  12.304  1.00  0.00     0.210 HD
ENDBRANCH  23  24
BRANCH  23  26
HETATM   26  C11 UNL     1      19.173  13.475  14.287  1.00  0.00     0.179 C 
BRANCH  26  27
HETATM   27  O4  UNL     1      19.468  12.884  13.056  1.00  0.00    -0.390 OA
ATOM     28  H4  UNL     1      20.070  13.429  12.562  1.00  0.00     0.210 HD
ENDBRANCH  26  27
BRANCH  26  29
HETATM   29  C12 UNL     1      19.618  12.612  15.383  1.00  0.00     0.173 C 
BRANCH  29  30
HETATM   30  O5  UNL     1      20.665  13.368  16.031  1.00  0.00    -0.391 OA
ATOM     31  H5  UNL     1      20.395  14.274  15.935  1.00  0.00     0.210 HD
ENDBRANCH  29  30
BRANCH  29  32
HETATM   32  C13 UNL     1      20.362  11.343  14.979  1.00  0.00     0.217 C 
BRANCH  32  33
HETATM   33  O6  UNL     1      21.754  11.642  14.888  1.00  0.00    -0.280 OA
BRANCH  33  34
HETATM   34  P1  UNL     1      22.410  10.911  13.523  1.00  0.00     0.422 P 
HETATM   35  O7  UNL     1      21.807   9.554  13.371  1.00  0.00    -0.617 OA
HETATM   36  O8  UNL     1      24.087  10.755  13.633  1.00  0.00    -0.617 OA
HETATM   37  O9  UNL     1      22.064  11.798  12.115  1.00  0.00    -0.617 OA
ENDBRANCH  33  34
ENDBRANCH  32  33
ENDBRANCH  29  32
ENDBRANCH  26  29
ENDBRANCH  23  26
ENDBRANCH  22  23
ENDBRANCH  17  22
TORSDOF 10
ENDMDL
