MODEL 4
REMARK VINA RESULT: -10.648045027      1.629      2.063
REMARK  10 active torsions:
REMARK  status: ('A' for Active; 'I' for Inactive)
REMARK    1  A    between atoms: N4_17  and  C9_18 
REMARK    2  A    between atoms: C9_18  and  C10_19 
REMARK    3  A    between atoms: C10_19  and  O3_20 
REMARK    4  A    between atoms: C10_19  and  C11_22 
REMARK    5  A    between atoms: C11_22  and  O4_23 
REMARK    6  A    between atoms: C11_22  and  C12_25 
REMARK    7  A    between atoms: C12_25  and  O5_26 
REMARK    8  A    between atoms: C12_25  and  C13_28 
REMARK    9  A    between atoms: C13_28  and  O6_29 
REMARK   10  A    between atoms: O6_29  and  P1_30 
ROOT
HETATM    1  C1  UNL     1      19.126  16.004  20.730  1.00  0.00     0.049 C 
HETATM    2  C2  UNL     1      18.385  15.658  19.493  1.00  0.00    -0.054 A 
HETATM    3  C3  UNL     1      17.331  16.433  19.059  1.00  0.00     0.039 A 
HETATM    4  C4  UNL     1      16.620  16.132  17.906  1.00  0.00     0.060 A 
HETATM    5  N1  UNL     1      15.604  16.929  17.529  1.00  0.00    -0.347 N 
ATOM      6  H1  UNL     1      15.363  17.741  18.096  1.00  0.00     0.166 HD
HETATM    7  C5  UNL     1      14.905  16.666  16.418  1.00  0.00     0.146 A 
HETATM    8  C6  UNL     1      13.840  17.462  15.982  1.00  0.00     0.280 A 
HETATM    9  O1  UNL     1      13.540  18.456  16.669  1.00  0.00    -0.265 OA
HETATM   10  N2  UNL     1      13.176  17.135  14.846  1.00  0.00    -0.273 N 
ATOM     11  H2  UNL     1      12.398  17.712  14.525  1.00  0.00     0.173 HD
HETATM   12  C7  UNL     1      13.542  16.049  14.142  1.00  0.00     0.328 A 
HETATM   13  O2  UNL     1      12.885  15.802  13.097  1.00  0.00    -0.247 OA
HETATM   14  N3  UNL     1      14.575  15.245  14.530  1.00  0.00    -0.292 N 
ATOM     15  H3  UNL     1      14.816  14.432  13.963  1.00  0.00     0.172 HD
HETATM   16  C8  UNL     1      15.280  15.502  15.642  1.00  0.00     0.145 A 
HETATM   17  N4  UNL     1      16.321  14.721  16.065  1.00  0.00    -0.327 N 
HETATM   18  C14 UNL     1      17.012  15.000  17.182  1.00  0.00     0.063 A 
HETATM   19  C15 UNL     1      18.067  14.218  17.609  1.00  0.00     0.039 A 
HETATM   20  C16 UNL     1      18.755  14.545  18.763  1.00  0.00    -0.054 A 
HETATM   21  C17 UNL     1      19.891  13.716  19.237  1.00  0.00     0.049 C 
ENDROOT
BRANCH  17  22
HETATM   22  C9  UNL     1      16.654  13.571  15.252  1.00  0.00     0.165 C 
BRANCH  22  23
HETATM   23  C10 UNL     1      17.744  13.999  14.261  1.00  0.00     0.167 C 
BRANCH  23  24
HETATM   24  O3  UNL     1      17.261  14.517  13.091  1.00  0.00    -0.391 OA
ATOM     25  H3  UNL     1      17.930  14.687  12.438  1.00  0.00     0.210 HD
ENDBRANCH  23  24
BRANCH  23  26
HETATM   26  C11 UNL     1      18.789  12.999  14.054  1.00  0.00     0.179 C 
BRANCH  26  27
HETATM   27  O4  UNL     1      20.044  13.535  14.355  1.00  0.00    -0.390 OA
ATOM     28  H4  UNL     1      20.332  13.243  15.212  1.00  0.00     0.210 HD
ENDBRANCH  26  27
BRANCH  26  29
HETATM   29  C12 UNL     1      18.867  12.170  12.850  1.00  0.00     0.173 C 
BRANCH  29  30
HETATM   30  O5  UNL     1      17.573  11.531  12.770  1.00  0.00    -0.391 OA
ATOM     31  H5  UNL     1      16.953  12.248  12.837  1.00  0.00     0.210 HD
ENDBRANCH  29  30
BRANCH  29  32
HETATM   32  C13 UNL     1      19.800  10.965  12.923  1.00  0.00     0.217 C 
BRANCH  32  33
HETATM   33  O6  UNL     1      21.087  11.359  12.449  1.00  0.00    -0.280 OA
BRANCH  33  34
HETATM   34  P1  UNL     1      22.253  11.034  13.617  1.00  0.00     0.422 P 
HETATM   35  O7  UNL     1      22.530   9.568  13.621  1.00  0.00    -0.617 OA
HETATM   36  O8  UNL     1      21.749  11.500  15.159  1.00  0.00    -0.617 OA
HETATM   37  O9  UNL     1      23.710  11.841  13.281  1.00  0.00    -0.617 OA
ENDBRANCH  33  34
ENDBRANCH  32  33
ENDBRANCH  29  32
ENDBRANCH  26  29
ENDBRANCH  23  26
ENDBRANCH  22  23
ENDBRANCH  17  22
TORSDOF 10
ENDMDL
