MODEL 7
REMARK VINA RESULT: -10.354859494      2.144      4.639
REMARK  10 active torsions:
REMARK  status: ('A' for Active; 'I' for Inactive)
REMARK    1  A    between atoms: N4_17  and  C9_18 
REMARK    2  A    between atoms: C9_18  and  C10_19 
REMARK    3  A    between atoms: C10_19  and  O3_20 
REMARK    4  A    between atoms: C10_19  and  C11_22 
REMARK    5  A    between atoms: C11_22  and  O4_23 
REMARK    6  A    between atoms: C11_22  and  C12_25 
REMARK    7  A    between atoms: C12_25  and  O5_26 
REMARK    8  A    between atoms: C12_25  and  C13_28 
REMARK    9  A    between atoms: C13_28  and  O6_29 
REMARK   10  A    between atoms: O6_29  and  P1_30 
ROOT
HETATM    1  C1  UNL     1      12.301  16.331  19.100  1.00  0.00     0.049 C 
HETATM    2  C2  UNL     1      13.592  15.738  18.676  1.00  0.00    -0.054 A 
HETATM    3  C3  UNL     1      14.763  16.049  19.332  1.00  0.00     0.039 A 
HETATM    4  C4  UNL     1      15.985  15.509  18.956  1.00  0.00     0.060 A 
HETATM    5  N1  UNL     1      17.094  15.845  19.638  1.00  0.00    -0.347 N 
ATOM      6  H1  UNL     1      17.028  16.495  20.421  1.00  0.00     0.166 HD
HETATM    7  C5  UNL     1      18.285  15.335  19.301  1.00  0.00     0.146 A 
HETATM    8  C6  UNL     1      19.469  15.651  19.978  1.00  0.00     0.280 A 
HETATM    9  O1  UNL     1      19.395  16.444  20.934  1.00  0.00    -0.265 OA
HETATM   10  N2  UNL     1      20.641  15.096  19.580  1.00  0.00    -0.273 N 
ATOM     11  H2  UNL     1      21.506  15.324  20.070  1.00  0.00     0.173 HD
HETATM   12  C7  UNL     1      20.663  14.245  18.539  1.00  0.00     0.328 A 
HETATM   13  O2  UNL     1      21.783  13.765  18.222  1.00  0.00    -0.247 OA
HETATM   14  N3  UNL     1      19.532  13.908  17.850  1.00  0.00    -0.292 N 
ATOM     15  H3  UNL     1      19.599  13.258  17.067  1.00  0.00     0.172 HD
HETATM   16  C8  UNL     1      18.336  14.415  18.183  1.00  0.00     0.145 A 
HETATM   17  N4  UNL     1      17.181  14.103  17.519  1.00  0.00    -0.327 N 
HETATM   18  C14 UNL     1      15.994  14.624  17.871  1.00  0.00     0.063 A 
HETATM   19  C15 UNL     1      14.825  14.307  17.208  1.00  0.00     0.039 A 
HETATM   20  C16 UNL     1      13.624  14.862  17.608  1.00  0.00    -0.054 A 
HETATM   21  C17 UNL     1      12.358  14.533  16.907  1.00  0.00     0.049 C 
ENDROOT
BRANCH  17  22
HETATM   22  C9  UNL     1      17.287  13.179  16.411  1.00  0.00     0.165 C 
BRANCH  22  23
HETATM   23  C10 UNL     1      17.942  13.925  15.240  1.00  0.00     0.167 C 
BRANCH  23  24
HETATM   24  O3  UNL     1      17.955  15.285  15.384  1.00  0.00    -0.391 OA
ATOM     25  H3  UNL     1      18.757  15.626  15.762  1.00  0.00     0.210 HD
ENDBRANCH  23  24
BRANCH  23  26
HETATM   26  C11 UNL     1      17.476  13.495  13.924  1.00  0.00     0.179 C 
BRANCH  26  27
HETATM   27  O4  UNL     1      16.244  12.845  14.031  1.00  0.00    -0.390 OA
ATOM     28  H4  UNL     1      16.360  11.903  13.971  1.00  0.00     0.210 HD
ENDBRANCH  26  27
BRANCH  26  29
HETATM   29  C12 UNL     1      18.336  12.795  12.967  1.00  0.00     0.173 C 
BRANCH  29  30
HETATM   30  O5  UNL     1      17.937  11.411  13.073  1.00  0.00    -0.391 OA
ATOM     31  H5  UNL     1      18.501  10.956  12.458  1.00  0.00     0.210 HD
ENDBRANCH  29  30
BRANCH  29  32
HETATM   32  C13 UNL     1      19.816  12.717  13.328  1.00  0.00     0.217 C 
BRANCH  32  33
HETATM   33  O6  UNL     1      20.329  11.467  12.869  1.00  0.00    -0.280 OA
BRANCH  33  34
HETATM   34  P1  UNL     1      21.725  11.072  13.721  1.00  0.00     0.422 P 
HETATM   35  O7  UNL     1      21.520  11.417  15.159  1.00  0.00    -0.617 OA
HETATM   36  O8  UNL     1      23.074  11.907  13.146  1.00  0.00    -0.617 OA
HETATM   37  O9  UNL     1      22.064   9.410  13.625  1.00  0.00    -0.617 OA
ENDBRANCH  33  34
ENDBRANCH  32  33
ENDBRANCH  29  32
ENDBRANCH  26  29
ENDBRANCH  23  26
ENDBRANCH  22  23
ENDBRANCH  17  22
TORSDOF 10
ENDMDL
