MODEL 6
REMARK VINA RESULT: -10.549288230      2.347      4.784
REMARK  10 active torsions:
REMARK  status: ('A' for Active; 'I' for Inactive)
REMARK    1  A    between atoms: N4_17  and  C9_18 
REMARK    2  A    between atoms: C9_18  and  C10_19 
REMARK    3  A    between atoms: C10_19  and  O3_20 
REMARK    4  A    between atoms: C10_19  and  C11_22 
REMARK    5  A    between atoms: C11_22  and  O4_23 
REMARK    6  A    between atoms: C11_22  and  C12_25 
REMARK    7  A    between atoms: C12_25  and  O5_26 
REMARK    8  A    between atoms: C12_25  and  C13_28 
REMARK    9  A    between atoms: C13_28  and  O6_29 
REMARK   10  A    between atoms: O6_29  and  P1_30 
ROOT
HETATM    1  C1  UNL     1      12.677  16.431  18.693  1.00  0.00     0.049 C 
HETATM    2  C2  UNL     1      13.961  15.738  18.431  1.00  0.00    -0.054 A 
HETATM    3  C3  UNL     1      15.133  16.176  19.009  1.00  0.00     0.039 A 
HETATM    4  C4  UNL     1      16.347  15.547  18.781  1.00  0.00     0.060 A 
HETATM    5  N1  UNL     1      17.458  16.016  19.377  1.00  0.00    -0.347 N 
ATOM      6  H1  UNL     1      17.397  16.832  19.986  1.00  0.00     0.166 HD
HETATM    7  C5  UNL     1      18.642  15.425  19.180  1.00  0.00     0.146 A 
HETATM    8  C6  UNL     1      19.827  15.873  19.776  1.00  0.00     0.280 A 
HETATM    9  O1  UNL     1      19.759  16.869  20.520  1.00  0.00    -0.265 OA
HETATM   10  N2  UNL     1      20.992  15.225  19.530  1.00  0.00    -0.273 N 
ATOM     11  H2  UNL     1      21.858  15.549  19.962  1.00  0.00     0.173 HD
HETATM   12  C7  UNL     1      21.007  14.154  18.716  1.00  0.00     0.328 A 
HETATM   13  O2  UNL     1      22.121  13.597  18.531  1.00  0.00    -0.247 OA
HETATM   14  N3  UNL     1      19.876  13.682  18.114  1.00  0.00    -0.292 N 
ATOM     15  H3  UNL     1      19.937  12.866  17.505  1.00  0.00     0.172 HD
HETATM   16  C8  UNL     1      18.685  14.269  18.308  1.00  0.00     0.145 A 
HETATM   17  N4  UNL     1      17.530  13.827  17.723  1.00  0.00    -0.327 N 
HETATM   18  C14 UNL     1      16.350  14.433  17.933  1.00  0.00     0.063 A 
HETATM   19  C15 UNL     1      15.180  13.986  17.350  1.00  0.00     0.039 A 
HETATM   20  C16 UNL     1      13.986  14.636  17.597  1.00  0.00    -0.054 A 
HETATM   21  C17 UNL     1      12.719  14.170  16.980  1.00  0.00     0.049 C 
ENDROOT
BRANCH  17  22
HETATM   22  C9  UNL     1      17.629  12.669  16.862  1.00  0.00     0.165 C 
BRANCH  22  23
HETATM   23  C10 UNL     1      17.725  13.168  15.414  1.00  0.00     0.167 C 
BRANCH  23  24
HETATM   24  O3  UNL     1      16.728  12.710  14.599  1.00  0.00    -0.391 OA
ATOM     25  H3  UNL     1      16.497  11.800  14.746  1.00  0.00     0.210 HD
ENDBRANCH  23  24
BRANCH  23  26
HETATM   26  C11 UNL     1      19.054  13.031  14.823  1.00  0.00     0.179 C 
BRANCH  26  27
HETATM   27  O4  UNL     1      19.024  13.377  13.470  1.00  0.00    -0.390 OA
ATOM     28  H4  UNL     1      19.607  12.816  12.971  1.00  0.00     0.210 HD
ENDBRANCH  26  27
BRANCH  26  29
HETATM   29  C12 UNL     1      19.894  11.848  15.025  1.00  0.00     0.173 C 
BRANCH  29  30
HETATM   30  O5  UNL     1      20.934  12.297  15.923  1.00  0.00    -0.391 OA
ATOM     31  H5  UNL     1      20.685  11.940  16.768  1.00  0.00     0.210 HD
ENDBRANCH  29  30
BRANCH  29  32
HETATM   32  C13 UNL     1      20.708  11.389  13.820  1.00  0.00     0.217 C 
BRANCH  32  33
HETATM   33  O6  UNL     1      21.839  12.248  13.682  1.00  0.00    -0.280 OA
BRANCH  33  34
HETATM   34  P1  UNL     1      23.160  11.371  13.120  1.00  0.00     0.422 P 
HETATM   35  O7  UNL     1      23.049   9.969  13.618  1.00  0.00    -0.617 OA
HETATM   36  O8  UNL     1      24.624  12.025  13.648  1.00  0.00    -0.617 OA
HETATM   37  O9  UNL     1      23.197  11.322  11.422  1.00  0.00    -0.617 OA
ENDBRANCH  33  34
ENDBRANCH  32  33
ENDBRANCH  29  32
ENDBRANCH  26  29
ENDBRANCH  23  26
ENDBRANCH  22  23
ENDBRANCH  17  22
TORSDOF 10
ENDMDL
