MODEL 1
REMARK VINA RESULT: -10.916164504      0.000      0.000
REMARK  10 active torsions:
REMARK  status: ('A' for Active; 'I' for Inactive)
REMARK    1  A    between atoms: N4_17  and  C9_18 
REMARK    2  A    between atoms: C9_18  and  C10_19 
REMARK    3  A    between atoms: C10_19  and  O3_20 
REMARK    4  A    between atoms: C10_19  and  C11_22 
REMARK    5  A    between atoms: C11_22  and  O4_23 
REMARK    6  A    between atoms: C11_22  and  C12_25 
REMARK    7  A    between atoms: C12_25  and  O5_26 
REMARK    8  A    between atoms: C12_25  and  C13_28 
REMARK    9  A    between atoms: C13_28  and  O6_29 
REMARK   10  A    between atoms: O6_29  and  P1_30 
ROOT
HETATM    1  C1  UNL     1      20.150  15.970  20.382  1.00  0.00     0.049 C 
HETATM    2  C2  UNL     1      19.068  15.503  19.483  1.00  0.00    -0.054 A 
HETATM    3  C3  UNL     1      17.774  15.949  19.642  1.00  0.00     0.039 A 
HETATM    4  C4  UNL     1      16.742  15.528  18.816  1.00  0.00     0.060 A 
HETATM    5  N1  UNL     1      15.499  16.002  19.015  1.00  0.00    -0.347 N 
ATOM      6  H1  UNL     1      15.327  16.661  19.774  1.00  0.00     0.166 HD
HETATM    7  C5  UNL     1      14.486  15.617  18.229  1.00  0.00     0.146 A 
HETATM    8  C6  UNL     1      13.176  16.080  18.395  1.00  0.00     0.280 A 
HETATM    9  O1  UNL     1      12.958  16.885  19.319  1.00  0.00    -0.265 OA
HETATM   10  N2  UNL     1      12.198  15.647  17.560  1.00  0.00    -0.273 N 
ATOM     11  H2  UNL     1      11.241  15.982  17.678  1.00  0.00     0.173 HD
HETATM   12  C7  UNL     1      12.489  14.776  16.578  1.00  0.00     0.328 A 
HETATM   13  O2  UNL     1      11.537  14.415  15.838  1.00  0.00    -0.247 OA
HETATM   14  N3  UNL     1      13.754  14.299  16.380  1.00  0.00    -0.292 N 
ATOM     15  H3  UNL     1      13.926  13.640  15.621  1.00  0.00     0.172 HD
HETATM   16  C8  UNL     1      14.774  14.680  17.164  1.00  0.00     0.145 A 
HETATM   17  N4  UNL     1      16.054  14.225  16.998  1.00  0.00    -0.327 N 
HETATM   18  C14 UNL     1      17.059  14.622  17.796  1.00  0.00     0.063 A 
HETATM   19  C15 UNL     1      18.353  14.170  17.629  1.00  0.00     0.039 A 
HETATM   20  C16 UNL     1      19.358  14.609  18.470  1.00  0.00    -0.054 A 
HETATM   21  C17 UNL     1      20.755  14.135  18.305  1.00  0.00     0.049 C 
ENDROOT
BRANCH  17  22
HETATM   22  C9  UNL     1      16.287  13.291  15.918  1.00  0.00     0.165 C 
BRANCH  22  23
HETATM   23  C10 UNL     1      16.581  14.106  14.651  1.00  0.00     0.167 C 
BRANCH  23  24
HETATM   24  O3  UNL     1      15.463  14.514  13.979  1.00  0.00    -0.391 OA
ATOM     25  H3  UNL     1      15.466  15.435  13.746  1.00  0.00     0.210 HD
ENDBRANCH  23  24
BRANCH  23  26
HETATM   26  C11 UNL     1      17.586  13.506  13.777  1.00  0.00     0.179 C 
BRANCH  26  27
HETATM   27  O4  UNL     1      16.972  12.856  12.702  1.00  0.00    -0.390 OA
ATOM     28  H4  UNL     1      16.082  12.611  12.929  1.00  0.00     0.210 HD
ENDBRANCH  26  27
BRANCH  26  29
HETATM   29  C12 UNL     1      18.702  12.704  14.283  1.00  0.00     0.173 C 
BRANCH  29  30
HETATM   30  O5  UNL     1      19.777  13.655  14.454  1.00  0.00    -0.391 OA
ATOM     31  H5  UNL     1      20.395  13.210  15.022  1.00  0.00     0.210 HD
ENDBRANCH  29  30
BRANCH  29  32
HETATM   32  C13 UNL     1      19.320  11.717  13.298  1.00  0.00     0.217 C 
BRANCH  32  33
HETATM   33  O6  UNL     1      20.648  12.146  12.999  1.00  0.00    -0.280 OA
BRANCH  33  34
HETATM   34  P1  UNL     1      21.757  11.223  13.863  1.00  0.00     0.422 P 
HETATM   35  O7  UNL     1      21.506  11.415  15.321  1.00  0.00    -0.617 OA
HETATM   36  O8  UNL     1      23.350  11.664  13.519  1.00  0.00    -0.617 OA
HETATM   37  O9  UNL     1      21.591   9.567  13.517  1.00  0.00    -0.617 OA
ENDBRANCH  33  34
ENDBRANCH  32  33
ENDBRANCH  29  32
ENDBRANCH  26  29
ENDBRANCH  23  26
ENDBRANCH  22  23
ENDBRANCH  17  22
TORSDOF 10
ENDMDL
