MODEL 5
REMARK VINA RESULT: -10.572459293      2.012      4.678
REMARK  10 active torsions:
REMARK  status: ('A' for Active; 'I' for Inactive)
REMARK    1  A    between atoms: N4_17  and  C9_18 
REMARK    2  A    between atoms: C9_18  and  C10_19 
REMARK    3  A    between atoms: C10_19  and  O3_20 
REMARK    4  A    between atoms: C10_19  and  C11_22 
REMARK    5  A    between atoms: C11_22  and  O4_23 
REMARK    6  A    between atoms: C11_22  and  C12_25 
REMARK    7  A    between atoms: C12_25  and  O5_26 
REMARK    8  A    between atoms: C12_25  and  C13_28 
REMARK    9  A    between atoms: C13_28  and  O6_29 
REMARK   10  A    between atoms: O6_29  and  P1_30 
ROOT
HETATM    1  C1  UNL     1      12.112  16.438  19.065  1.00  0.00     0.049 C 
HETATM    2  C2  UNL     1      13.371  15.798  18.612  1.00  0.00    -0.054 A 
HETATM    3  C3  UNL     1      14.567  16.064  19.243  1.00  0.00     0.039 A 
HETATM    4  C4  UNL     1      15.758  15.480  18.840  1.00  0.00     0.060 A 
HETATM    5  N1  UNL     1      16.894  15.773  19.498  1.00  0.00    -0.347 N 
ATOM      6  H1  UNL     1      16.869  16.424  20.282  1.00  0.00     0.166 HD
HETATM    7  C5  UNL     1      18.057  15.219  19.134  1.00  0.00     0.146 A 
HETATM    8  C6  UNL     1      19.267  15.490  19.785  1.00  0.00     0.280 A 
HETATM    9  O1  UNL     1      19.244  16.285  20.743  1.00  0.00    -0.265 OA
HETATM   10  N2  UNL     1      20.408  14.893  19.361  1.00  0.00    -0.273 N 
ATOM     11  H2  UNL     1      21.292  15.088  19.832  1.00  0.00     0.173 HD
HETATM   12  C7  UNL     1      20.376  14.042  18.320  1.00  0.00     0.328 A 
HETATM   13  O2  UNL     1      21.470  13.521  17.978  1.00  0.00    -0.247 OA
HETATM   14  N3  UNL     1      19.219  13.749  17.656  1.00  0.00    -0.292 N 
ATOM     15  H3  UNL     1      19.244  13.098  16.872  1.00  0.00     0.172 HD
HETATM   16  C8  UNL     1      18.050  14.300  18.015  1.00  0.00     0.145 A 
HETATM   17  N4  UNL     1      16.869  14.032  17.376  1.00  0.00    -0.327 N 
HETATM   18  C14 UNL     1      15.711  14.596  17.755  1.00  0.00     0.063 A 
HETATM   19  C15 UNL     1      14.517  14.324  17.117  1.00  0.00     0.039 A 
HETATM   20  C16 UNL     1      13.347  14.922  17.544  1.00  0.00    -0.054 A 
HETATM   21  C17 UNL     1      12.054  14.642  16.870  1.00  0.00     0.049 C 
ENDROOT
BRANCH  17  22
HETATM   22  C9  UNL     1      16.917  13.106  16.266  1.00  0.00     0.165 C 
BRANCH  22  23
HETATM   23  C10 UNL     1      17.573  13.828  15.081  1.00  0.00     0.167 C 
BRANCH  23  24
HETATM   24  O3  UNL     1      16.687  14.274  14.141  1.00  0.00    -0.391 OA
ATOM     25  H3  UNL     1      16.393  15.167  14.278  1.00  0.00     0.210 HD
ENDBRANCH  23  24
BRANCH  23  26
HETATM   26  C11 UNL     1      18.709  13.115  14.503  1.00  0.00     0.179 C 
BRANCH  26  27
HETATM   27  O4  UNL     1      19.877  13.872  14.633  1.00  0.00    -0.390 OA
ATOM     28  H4  UNL     1      20.577  13.491  14.115  1.00  0.00     0.210 HD
ENDBRANCH  26  27
BRANCH  26  29
HETATM   29  C12 UNL     1      18.661  12.480  13.185  1.00  0.00     0.173 C 
BRANCH  29  30
HETATM   30  O5  UNL     1      17.320  11.948  13.093  1.00  0.00    -0.391 OA
ATOM     31  H5  UNL     1      16.764  12.661  13.384  1.00  0.00     0.210 HD
ENDBRANCH  29  30
BRANCH  29  32
HETATM   32  C13 UNL     1      19.503  11.219  13.015  1.00  0.00     0.217 C 
BRANCH  32  33
HETATM   33  O6  UNL     1      20.815  11.603  12.603  1.00  0.00    -0.280 OA
BRANCH  33  34
HETATM   34  P1  UNL     1      21.948  11.063  13.723  1.00  0.00     0.422 P 
HETATM   35  O7  UNL     1      22.035   9.576  13.636  1.00  0.00    -0.617 OA
HETATM   36  O8  UNL     1      21.532  11.495  15.301  1.00  0.00    -0.617 OA
HETATM   37  O9  UNL     1      23.491  11.698  13.401  1.00  0.00    -0.617 OA
ENDBRANCH  33  34
ENDBRANCH  32  33
ENDBRANCH  29  32
ENDBRANCH  26  29
ENDBRANCH  23  26
ENDBRANCH  22  23
ENDBRANCH  17  22
TORSDOF 10
ENDMDL
