MODEL 3
REMARK VINA RESULT: -7.749982039      6.300      7.910
REMARK  15 active torsions:
REMARK  status: ('A' for Active; 'I' for Inactive)
REMARK    1  A    between atoms: C1_2  and  C2_4 
REMARK    2  A    between atoms: N2_8  and  C6_9 
REMARK    3  A    between atoms: C7_11  and  C8_12 
REMARK    4  A    between atoms: C8_12  and  O3_13 
REMARK    5  A    between atoms: O3_13  and  P1_14 
REMARK    6  A    between atoms: P1_14  and  O6_17 
REMARK    7  A    between atoms: O6_17  and  P2_18 
REMARK    8  A    between atoms: P2_18  and  O9_21 
REMARK    9  A    between atoms: O9_21  and  C9_22 
REMARK   10  A    between atoms: C9_22  and  C10_23 
REMARK   11  A    between atoms: C11_25  and  N3_26 
REMARK   12  A    between atoms: C17_39  and  O11_40 
REMARK   13  A    between atoms: C18_42  and  O12_43 
REMARK   14  A    between atoms: C19_45  and  O13_46 
REMARK   15  A    between atoms: C20_48  and  O14_49 
ROOT
HETATM    1  P2  UNL     1      65.849  35.504  65.977  1.00  0.00     0.417 P 
HETATM    2  O7  UNL     1      66.387  36.574  66.878  1.00  0.00    -0.624 OA
HETATM    3  O8  UNL     1      64.113  35.546  66.193  1.00  0.00    -0.624 OA
ENDROOT
BRANCH   1   4
HETATM    4  O6  UNL     1      66.209  35.705  64.418  1.00  0.00    -0.180 OA
BRANCH   4   5
HETATM    5  P1  UNL     1      67.769  36.081  64.020  1.00  0.00     0.417 P 
HETATM    6  O4  UNL     1      68.777  35.652  64.998  1.00  0.00    -0.624 OA
HETATM    7  O5  UNL     1      67.884  37.871  64.062  1.00  0.00    -0.624 OA
BRANCH   5   8
HETATM    8  O3  UNL     1      68.086  35.706  62.457  1.00  0.00    -0.287 OA
BRANCH   8   9
HETATM    9  C8  UNL     1      68.553  34.386  62.270  1.00  0.00     0.216 C 
BRANCH   9  10
HETATM   10  C7  UNL     1      69.221  34.524  60.868  1.00  0.00     0.180 C 
HETATM   11  O2  UNL     1      70.029  33.435  60.652  1.00  0.00    -0.353 OA
HETATM   12  C6  UNL     1      69.819  32.901  59.402  1.00  0.00     0.259 C 
HETATM   13  C20 UNL     1      69.161  34.043  58.622  1.00  0.00     0.198 C 
HETATM   14  C19 UNL     1      68.268  34.631  59.754  1.00  0.00     0.182 C 
BRANCH  12  15
HETATM   15  N2  UNL     1      68.767  31.881  59.599  1.00  0.00    -0.336 N 
HETATM   16  C5  UNL     1      67.805  31.681  58.695  1.00  0.00     0.093 A 
HETATM   17  C4  UNL     1      66.766  30.794  58.972  1.00  0.00     0.018 A 
HETATM   18  C3  UNL     1      66.736  30.137  60.169  1.00  0.00     0.019 A 
HETATM   19  C2  UNL     1      67.738  30.368  61.074  1.00  0.00     0.044 A 
HETATM   20  C21 UNL     1      68.756  31.248  60.779  1.00  0.00     0.110 A 
BRANCH  19  21
HETATM   21  C1  UNL     1      67.725  29.731  62.377  1.00  0.00     0.266 C 
HETATM   22  N1  UNL     1      67.188  28.432  62.525  1.00  0.00    -0.057 NA
HETATM   23  O1  UNL     1      68.181  30.294  63.430  1.00  0.00    -0.271 OA
ENDBRANCH  19  21
ENDBRANCH  12  15
BRANCH  13  24
HETATM   24  O14 UNL     1      70.105  35.032  58.349  1.00  0.00    -0.388 OA
ATOM     25  H14 UNL     1      69.903  35.449  57.519  1.00  0.00     0.210 HD
ENDBRANCH  13  24
BRANCH  14  26
HETATM   26  O13 UNL     1      67.875  35.935  59.432  1.00  0.00    -0.390 OA
ATOM     27  H13 UNL     1      67.509  36.043  58.561  1.00  0.00     0.210 HD
ENDBRANCH  14  26
ENDBRANCH   9  10
ENDBRANCH   8   9
ENDBRANCH   5   8
ENDBRANCH   4   5
ENDBRANCH   1   4
BRANCH   1  28
HETATM   28  O9  UNL     1      66.266  34.003  66.730  1.00  0.00    -0.287 OA
BRANCH  28  29
HETATM   29  C9  UNL     1      66.267  33.094  65.621  1.00  0.00     0.216 C 
BRANCH  29  30
HETATM   30  C10 UNL     1      65.491  31.901  65.984  1.00  0.00     0.180 C 
HETATM   31  O10 UNL     1      64.425  32.288  66.844  1.00  0.00    -0.353 OA
HETATM   32  C11 UNL     1      63.793  31.036  66.997  1.00  0.00     0.262 C 
HETATM   33  C17 UNL     1      63.466  30.829  65.493  1.00  0.00     0.198 C 
HETATM   34  C18 UNL     1      64.865  31.145  64.891  1.00  0.00     0.182 C 
BRANCH  32  35
HETATM   35  N3  UNL     1      62.645  31.184  67.804  1.00  0.00    -0.297 N 
HETATM   36  C12 UNL     1      61.945  30.216  68.488  1.00  0.00     0.188 A 
HETATM   37  N4  UNL     1      60.920  30.757  69.147  1.00  0.00    -0.346 N 
HETATM   38  C13 UNL     1      60.960  32.099  68.895  1.00  0.00     0.119 A 
ATOM     39  H4  UNL     1      60.239  30.266  69.725  1.00  0.00     0.167 HD
HETATM   40  C14 UNL     1      60.148  33.115  69.307  1.00  0.00     0.148 A 
HETATM   41  C16 UNL     1      62.038  32.340  68.056  1.00  0.00     0.142 A 
HETATM   42  N5  UNL     1      59.063  32.874  70.197  1.00  0.00    -0.080 NA
HETATM   43  N6  UNL     1      60.381  34.369  68.887  1.00  0.00    -0.339 N 
HETATM   44  C15 UNL     1      61.406  34.627  68.069  1.00  0.00     0.183 A 
ATOM     45  H6  UNL     1      59.774  35.128  69.193  1.00  0.00     0.167 HD
HETATM   46  N7  UNL     1      62.223  33.607  67.666  1.00  0.00    -0.336 N 
ATOM     47  H7  UNL     1      63.003  33.820  67.043  1.00  0.00     0.168 HD
ENDBRANCH  32  35
BRANCH  33  48
HETATM   48  O11 UNL     1      62.986  29.601  65.193  1.00  0.00    -0.388 OA
ATOM     49  H11 UNL     1      62.821  29.462  64.268  1.00  0.00     0.210 HD
ENDBRANCH  33  48
BRANCH  34  50
HETATM   50  O12 UNL     1      65.504  29.873  64.767  1.00  0.00    -0.390 OA
ATOM     51  H12 UNL     1      64.845  29.191  64.724  1.00  0.00     0.210 HD
ENDBRANCH  34  50
ENDBRANCH  29  30
ENDBRANCH  28  29
ENDBRANCH   1  28
TORSDOF 15
ENDMDL
