MODEL 1
REMARK VINA RESULT: -7.798377492      0.000      0.000
REMARK  15 active torsions:
REMARK  status: ('A' for Active; 'I' for Inactive)
REMARK    1  A    between atoms: C1_2  and  C2_4 
REMARK    2  A    between atoms: N2_8  and  C6_9 
REMARK    3  A    between atoms: C7_11  and  C8_12 
REMARK    4  A    between atoms: C8_12  and  O3_13 
REMARK    5  A    between atoms: O3_13  and  P1_14 
REMARK    6  A    between atoms: P1_14  and  O6_17 
REMARK    7  A    between atoms: O6_17  and  P2_18 
REMARK    8  A    between atoms: P2_18  and  O9_21 
REMARK    9  A    between atoms: O9_21  and  C9_22 
REMARK   10  A    between atoms: C9_22  and  C10_23 
REMARK   11  A    between atoms: C11_25  and  N3_26 
REMARK   12  A    between atoms: C17_39  and  O11_40 
REMARK   13  A    between atoms: C18_42  and  O12_43 
REMARK   14  A    between atoms: C19_45  and  O13_46 
REMARK   15  A    between atoms: C20_48  and  O14_49 
ROOT
HETATM    1  P2  UNL     1      68.046  36.296  67.433  1.00  0.00     0.417 P 
HETATM    2  O7  UNL     1      66.647  36.717  67.095  1.00  0.00    -0.624 OA
HETATM    3  O8  UNL     1      68.123  34.592  67.045  1.00  0.00    -0.624 OA
ENDROOT
BRANCH   1   4
HETATM    4  O6  UNL     1      69.192  37.092  66.625  1.00  0.00    -0.180 OA
BRANCH   4   5
HETATM    5  P1  UNL     1      69.137  37.075  64.972  1.00  0.00     0.417 P 
HETATM    6  O4  UNL     1      70.415  37.363  64.308  1.00  0.00    -0.624 OA
HETATM    7  O5  UNL     1      68.097  38.455  64.487  1.00  0.00    -0.624 OA
BRANCH   5   8
HETATM    8  O3  UNL     1      68.327  35.763  64.422  1.00  0.00    -0.287 OA
BRANCH   8   9
HETATM    9  C8  UNL     1      69.051  34.997  63.481  1.00  0.00     0.216 C 
BRANCH   9  10
HETATM   10  C7  UNL     1      67.960  33.963  63.067  1.00  0.00     0.180 C 
HETATM   11  O2  UNL     1      67.073  34.572  62.214  1.00  0.00    -0.353 OA
HETATM   12  C6  UNL     1      66.825  33.787  61.112  1.00  0.00     0.259 C 
HETATM   13  C20 UNL     1      67.239  32.382  61.563  1.00  0.00     0.198 C 
HETATM   14  C19 UNL     1      68.489  32.757  62.415  1.00  0.00     0.182 C 
BRANCH  12  15
HETATM   15  N2  UNL     1      67.830  34.209  60.113  1.00  0.00    -0.336 N 
HETATM   16  C5  UNL     1      68.066  35.497  59.857  1.00  0.00     0.093 A 
HETATM   17  C4  UNL     1      68.935  35.851  58.826  1.00  0.00     0.018 A 
HETATM   18  C3  UNL     1      69.536  34.878  58.081  1.00  0.00     0.019 A 
HETATM   19  C2  UNL     1      69.268  33.566  58.371  1.00  0.00     0.044 A 
HETATM   20  C21 UNL     1      68.407  33.238  59.395  1.00  0.00     0.110 A 
BRANCH  19  21
HETATM   21  C1  UNL     1      69.845  32.497  57.578  1.00  0.00     0.266 C 
HETATM   22  N1  UNL     1      70.980  31.798  58.049  1.00  0.00    -0.057 NA
HETATM   23  O1  UNL     1      69.375  32.142  56.444  1.00  0.00    -0.271 OA
ENDBRANCH  19  21
ENDBRANCH  12  15
BRANCH  13  24
HETATM   24  O14 UNL     1      66.309  31.887  62.475  1.00  0.00    -0.388 OA
ATOM     25  H14 UNL     1      66.688  31.878  63.347  1.00  0.00     0.210 HD
ENDBRANCH  13  24
BRANCH  14  26
HETATM   26  O13 UNL     1      68.816  31.707  63.281  1.00  0.00    -0.390 OA
ATOM     27  H13 UNL     1      69.238  30.962  62.870  1.00  0.00     0.210 HD
ENDBRANCH  14  26
ENDBRANCH   9  10
ENDBRANCH   8   9
ENDBRANCH   5   8
ENDBRANCH   4   5
ENDBRANCH   1   4
BRANCH   1  28
HETATM   28  O9  UNL     1      68.123  36.273  69.160  1.00  0.00    -0.287 OA
BRANCH  28  29
HETATM   29  C9  UNL     1      68.474  34.910  69.433  1.00  0.00     0.216 C 
BRANCH  29  30
HETATM   30  C10 UNL     1      69.539  34.885  70.444  1.00  0.00     0.180 C 
HETATM   31  O10 UNL     1      69.963  36.220  70.700  1.00  0.00    -0.353 OA
HETATM   32  C11 UNL     1      70.904  35.966  71.720  1.00  0.00     0.262 C 
HETATM   33  C17 UNL     1      69.900  35.327  72.717  1.00  0.00     0.198 C 
HETATM   34  C18 UNL     1      69.210  34.316  71.758  1.00  0.00     0.182 C 
BRANCH  32  35
HETATM   35  N3  UNL     1      71.444  37.187  72.175  1.00  0.00    -0.297 N 
HETATM   36  C12 UNL     1      72.731  37.459  72.580  1.00  0.00     0.188 A 
HETATM   37  N4  UNL     1      72.851  38.740  72.932  1.00  0.00    -0.346 N 
HETATM   38  C13 UNL     1      71.625  39.312  72.742  1.00  0.00     0.119 A 
ATOM     39  H4  UNL     1      73.693  39.202  73.275  1.00  0.00     0.167 HD
HETATM   40  C14 UNL     1      71.186  40.587  72.952  1.00  0.00     0.148 A 
HETATM   41  C16 UNL     1      70.767  38.327  72.276  1.00  0.00     0.142 A 
HETATM   42  N5  UNL     1      72.075  41.606  73.396  1.00  0.00    -0.080 NA
HETATM   43  N6  UNL     1      69.901  40.898  72.717  1.00  0.00    -0.339 N 
HETATM   44  C15 UNL     1      69.050  39.966  72.278  1.00  0.00     0.183 A 
ATOM     45  H6  UNL     1      69.573  41.850  72.875  1.00  0.00     0.167 HD
HETATM   46  N7  UNL     1      69.497  38.691  72.061  1.00  0.00    -0.336 N 
ATOM     47  H7  UNL     1      68.836  37.991  71.723  1.00  0.00     0.168 HD
ENDBRANCH  32  35
BRANCH  33  48
HETATM   48  O11 UNL     1      70.477  34.770  73.805  1.00  0.00    -0.388 OA
ATOM     49  H11 UNL     1      71.263  34.270  73.618  1.00  0.00     0.210 HD
ENDBRANCH  33  48
BRANCH  34  50
HETATM   50  O12 UNL     1      69.927  33.093  71.938  1.00  0.00    -0.390 OA
ATOM     51  H12 UNL     1      69.345  32.360  71.780  1.00  0.00     0.210 HD
ENDBRANCH  34  50
ENDBRANCH  29  30
ENDBRANCH  28  29
ENDBRANCH   1  28
TORSDOF 15
ENDMDL
