MODEL 2
REMARK VINA RESULT: -7.758787752      6.082      7.609
REMARK  15 active torsions:
REMARK  status: ('A' for Active; 'I' for Inactive)
REMARK    1  A    between atoms: C1_2  and  C2_4 
REMARK    2  A    between atoms: N2_8  and  C6_9 
REMARK    3  A    between atoms: C7_11  and  C8_12 
REMARK    4  A    between atoms: C8_12  and  O3_13 
REMARK    5  A    between atoms: O3_13  and  P1_14 
REMARK    6  A    between atoms: P1_14  and  O6_17 
REMARK    7  A    between atoms: O6_17  and  P2_18 
REMARK    8  A    between atoms: P2_18  and  O9_21 
REMARK    9  A    between atoms: O9_21  and  C9_22 
REMARK   10  A    between atoms: C9_22  and  C10_23 
REMARK   11  A    between atoms: C11_25  and  N3_26 
REMARK   12  A    between atoms: C17_39  and  O11_40 
REMARK   13  A    between atoms: C18_42  and  O12_43 
REMARK   14  A    between atoms: C19_45  and  O13_46 
REMARK   15  A    between atoms: C20_48  and  O14_49 
ROOT
HETATM    1  P2  UNL     1      66.083  35.503  65.901  1.00  0.00     0.417 P 
HETATM    2  O7  UNL     1      66.491  36.727  66.664  1.00  0.00    -0.624 OA
HETATM    3  O8  UNL     1      64.334  35.509  65.917  1.00  0.00    -0.624 OA
ENDROOT
BRANCH   1   4
HETATM    4  O6  UNL     1      66.614  35.461  64.379  1.00  0.00    -0.180 OA
BRANCH   4   5
HETATM    5  P1  UNL     1      68.107  36.096  64.055  1.00  0.00     0.417 P 
HETATM    6  O4  UNL     1      69.119  35.854  65.092  1.00  0.00    -0.624 OA
HETATM    7  O5  UNL     1      67.912  37.879  64.072  1.00  0.00    -0.624 OA
BRANCH   5   8
HETATM    8  O3  UNL     1      68.567  35.767  62.518  1.00  0.00    -0.287 OA
BRANCH   8   9
HETATM    9  C8  UNL     1      68.919  34.416  62.304  1.00  0.00     0.216 C 
BRANCH   9  10
HETATM   10  C7  UNL     1      68.012  34.084  61.080  1.00  0.00     0.180 C 
HETATM   11  O2  UNL     1      68.701  34.368  59.927  1.00  0.00    -0.353 OA
HETATM   12  C6  UNL     1      68.602  33.337  59.022  1.00  0.00     0.259 C 
HETATM   13  C20 UNL     1      67.364  32.562  59.486  1.00  0.00     0.198 C 
HETATM   14  C19 UNL     1      67.558  32.688  61.026  1.00  0.00     0.182 C 
BRANCH  12  15
HETATM   15  N2  UNL     1      69.761  32.466  59.313  1.00  0.00    -0.336 N 
HETATM   16  C5  UNL     1      69.627  31.148  59.470  1.00  0.00     0.093 A 
HETATM   17  C4  UNL     1      70.724  30.381  59.859  1.00  0.00     0.018 A 
HETATM   18  C3  UNL     1      71.929  30.983  60.081  1.00  0.00     0.019 A 
HETATM   19  C2  UNL     1      72.029  32.339  59.913  1.00  0.00     0.044 A 
HETATM   20  C21 UNL     1      70.933  33.078  59.526  1.00  0.00     0.110 A 
BRANCH  19  21
HETATM   21  C1  UNL     1      73.275  33.031  60.182  1.00  0.00     0.266 C 
HETATM   22  N1  UNL     1      74.136  33.382  59.118  1.00  0.00    -0.057 NA
HETATM   23  O1  UNL     1      73.652  33.349  61.362  1.00  0.00    -0.271 OA
ENDBRANCH  19  21
ENDBRANCH  12  15
BRANCH  13  24
HETATM   24  O14 UNL     1      66.214  33.297  59.200  1.00  0.00    -0.388 OA
ATOM     25  H14 UNL     1      65.489  32.975  59.723  1.00  0.00     0.210 HD
ENDBRANCH  13  24
BRANCH  14  26
HETATM   26  O13 UNL     1      66.352  32.428  61.688  1.00  0.00    -0.390 OA
ATOM     27  H13 UNL     1      65.585  32.391  61.129  1.00  0.00     0.210 HD
ENDBRANCH  14  26
ENDBRANCH   9  10
ENDBRANCH   8   9
ENDBRANCH   5   8
ENDBRANCH   4   5
ENDBRANCH   1   4
BRANCH   1  28
HETATM   28  O9  UNL     1      66.446  34.165  66.935  1.00  0.00    -0.287 OA
BRANCH  28  29
HETATM   29  C9  UNL     1      66.894  33.171  66.003  1.00  0.00     0.216 C 
BRANCH  29  30
HETATM   30  C10 UNL     1      65.900  32.090  65.945  1.00  0.00     0.180 C 
HETATM   31  O10 UNL     1      64.870  32.360  66.890  1.00  0.00    -0.353 OA
HETATM   32  C11 UNL     1      64.020  31.269  66.615  1.00  0.00     0.262 C 
HETATM   33  C17 UNL     1      63.750  31.637  65.130  1.00  0.00     0.198 C 
HETATM   34  C18 UNL     1      65.216  31.870  64.665  1.00  0.00     0.182 C 
BRANCH  32  35
HETATM   35  N3  UNL     1      62.871  31.351  67.429  1.00  0.00    -0.297 N 
HETATM   36  C12 UNL     1      62.181  30.333  68.048  1.00  0.00     0.188 A 
HETATM   37  N4  UNL     1      61.150  30.818  68.740  1.00  0.00    -0.346 N 
HETATM   38  C13 UNL     1      61.176  32.174  68.578  1.00  0.00     0.119 A 
ATOM     39  H4  UNL     1      60.475  30.282  69.285  1.00  0.00     0.167 HD
HETATM   40  C14 UNL     1      60.352  33.151  69.055  1.00  0.00     0.148 A 
HETATM   41  C16 UNL     1      62.251  32.481  67.757  1.00  0.00     0.142 A 
HETATM   42  N5  UNL     1      59.271  32.840  69.927  1.00  0.00    -0.080 NA
HETATM   43  N6  UNL     1      60.572  34.432  68.718  1.00  0.00    -0.339 N 
HETATM   44  C15 UNL     1      61.593  34.755  67.920  1.00  0.00     0.183 A 
ATOM     45  H6  UNL     1      59.956  35.163  69.074  1.00  0.00     0.167 HD
HETATM   46  N7  UNL     1      62.421  33.773  67.450  1.00  0.00    -0.336 N 
ATOM     47  H7  UNL     1      63.199  34.035  66.844  1.00  0.00     0.168 HD
ENDBRANCH  32  35
BRANCH  33  48
HETATM   48  O11 UNL     1      63.080  30.691  64.436  1.00  0.00    -0.388 OA
ATOM     49  H11 UNL     1      62.308  30.356  64.877  1.00  0.00     0.210 HD
ENDBRANCH  33  48
BRANCH  34  50
HETATM   50  O12 UNL     1      65.627  30.616  64.116  1.00  0.00    -0.390 OA
ATOM     51  H12 UNL     1      65.579  29.947  64.788  1.00  0.00     0.210 HD
ENDBRANCH  34  50
ENDBRANCH  29  30
ENDBRANCH  28  29
ENDBRANCH   1  28
TORSDOF 15
ENDMDL
