MODEL 1
REMARK VINA RESULT: -7.923325688      0.000      0.000
REMARK  3 active torsions:
REMARK  status: ('A' for Active; 'I' for Inactive)
REMARK    1  A    between atoms: C1_2  and  C2_6 
REMARK    2  A    between atoms: C7_11  and  C8_12 
REMARK       I    between atoms: C8_12  and  N3_14 
REMARK    3  A    between atoms: N3_14  and  C9_16 
ROOT
HETATM    1  C2  UNL     1      19.424  18.236  33.866  1.00  0.00     0.005 A 
HETATM    2  C3  UNL     1      18.992  17.046  33.272  1.00  0.00     0.015 A 
HETATM    3  C4  UNL     1      19.847  15.999  33.055  1.00  0.00     0.013 A 
HETATM    4  C5  UNL     1      21.169  16.114  33.431  1.00  0.00    -0.025 A 
HETATM    5  C6  UNL     1      22.050  15.044  33.212  1.00  0.00     0.029 A 
HETATM    6  C7  UNL     1      23.351  15.156  33.581  1.00  0.00     0.033 A 
HETATM    7  C15 UNL     1      23.773  16.317  34.162  1.00  0.00     0.018 A 
HETATM    8  C16 UNL     1      22.921  17.390  34.389  1.00  0.00     0.013 A 
HETATM    9  C17 UNL     1      21.591  17.280  34.013  1.00  0.00    -0.025 A 
HETATM   10  C18 UNL     1      20.734  18.357  34.242  1.00  0.00     0.027 A 
ENDROOT
BRANCH   6  11
HETATM   11  C8  UNL     1      24.314  14.055  33.365  1.00  0.00     0.256 C 
HETATM   12  O1  UNL     1      25.559  14.332  33.388  1.00  0.00    -0.267 OA
HETATM   13  N3  UNL     1      23.926  12.726  33.137  1.00  0.00    -0.323 N 
ATOM     14  H3  UNL     1      22.928  12.519  33.114  1.00  0.00     0.169 HD
BRANCH  13  15
HETATM   15  C9  UNL     1      24.820  11.664  32.939  1.00  0.00     0.035 A 
HETATM   16  C10 UNL     1      25.444  11.358  31.777  1.00  0.00     0.029 A 
HETATM   17  C11 UNL     1      26.308  10.261  31.676  1.00  0.00     0.002 A 
HETATM   18  C12 UNL     1      26.528   9.477  32.784  1.00  0.00     0.000 A 
HETATM   19  C13 UNL     1      25.916   9.750  33.987  1.00  0.00     0.002 A 
HETATM   20  C14 UNL     1      25.072  10.836  34.049  1.00  0.00     0.029 A 
ENDBRANCH  13  15
ENDBRANCH   6  11
BRANCH   1  21
HETATM   21  C1  UNL     1      18.460  19.298  34.062  1.00  0.00     0.120 C 
HETATM   22  N1  UNL     1      17.218  19.220  33.380  1.00  0.00    -0.082 NA
HETATM   23  N2  UNL     1      18.724  20.281  34.830  1.00  0.00    -0.387 N 
ATOM     24  H22 UNL     1      18.045  21.029  34.968  1.00  0.00     0.157 HD
ATOM     25  H21 UNL     1      19.617  20.338  35.321  1.00  0.00     0.157 HD
ENDBRANCH   1  21
TORSDOF 3
ENDMDL
