MODEL 12
REMARK VINA RESULT: -6.833715474      2.360      8.794
REMARK  3 active torsions:
REMARK  status: ('A' for Active; 'I' for Inactive)
REMARK    1  A    between atoms: C1_2  and  C2_6 
REMARK    2  A    between atoms: C7_11  and  C8_12 
REMARK       I    between atoms: C8_12  and  N3_14 
REMARK    3  A    between atoms: N3_14  and  C9_16 
ROOT
HETATM    1  C2  UNL     1      25.396   8.938  33.521  1.00  0.00     0.005 A 
HETATM    2  C3  UNL     1      24.270   9.100  34.335  1.00  0.00     0.015 A 
HETATM    3  C4  UNL     1      23.556  10.268  34.351  1.00  0.00     0.013 A 
HETATM    4  C5  UNL     1      23.951  11.314  33.545  1.00  0.00    -0.025 A 
HETATM    5  C6  UNL     1      23.223  12.514  33.556  1.00  0.00     0.029 A 
HETATM    6  C7  UNL     1      23.610  13.545  32.764  1.00  0.00     0.033 A 
HETATM    7  C15 UNL     1      24.708  13.388  31.968  1.00  0.00     0.018 A 
HETATM    8  C16 UNL     1      25.447  12.211  31.940  1.00  0.00     0.013 A 
HETATM    9  C17 UNL     1      25.054  11.155  32.749  1.00  0.00    -0.025 A 
HETATM   10  C18 UNL     1      25.794   9.973  32.720  1.00  0.00     0.027 A 
ENDROOT
BRANCH   6  11
HETATM   11  C8  UNL     1      22.874  14.828  32.747  1.00  0.00     0.256 C 
HETATM   12  O1  UNL     1      23.402  15.816  32.139  1.00  0.00    -0.267 OA
HETATM   13  N3  UNL     1      21.627  15.008  33.366  1.00  0.00    -0.323 N 
ATOM     14  H3  UNL     1      21.219  14.212  33.855  1.00  0.00     0.169 HD
BRANCH  13  15
HETATM   15  C9  UNL     1      20.907  16.211  33.355  1.00  0.00     0.035 A 
HETATM   16  C10 UNL     1      21.175  17.303  34.108  1.00  0.00     0.029 A 
HETATM   17  C11 UNL     1      20.380  18.454  34.039  1.00  0.00     0.002 A 
HETATM   18  C12 UNL     1      19.303  18.474  33.185  1.00  0.00     0.000 A 
HETATM   19  C13 UNL     1      18.992  17.387  32.399  1.00  0.00     0.002 A 
HETATM   20  C14 UNL     1      19.795  16.272  32.494  1.00  0.00     0.029 A 
ENDBRANCH  13  15
ENDBRANCH   6  11
BRANCH   1  21
HETATM   21  C1  UNL     1      26.100   7.673  33.561  1.00  0.00     0.120 C 
HETATM   22  N1  UNL     1      27.494   7.665  33.299  1.00  0.00    -0.082 NA
HETATM   23  N2  UNL     1      25.477   6.593  33.826  1.00  0.00    -0.387 N 
ATOM     24  H22 UNL     1      25.972   5.702  33.854  1.00  0.00     0.157 HD
ATOM     25  H21 UNL     1      24.474   6.599  34.014  1.00  0.00     0.157 HD
ENDBRANCH   1  21
TORSDOF 3
ENDMDL
