MODEL 5
REMARK VINA RESULT: -7.496938915      1.903      2.215
REMARK  3 active torsions:
REMARK  status: ('A' for Active; 'I' for Inactive)
REMARK    1  A    between atoms: C1_2  and  C2_6 
REMARK    2  A    between atoms: C7_11  and  C8_12 
REMARK       I    between atoms: C8_12  and  N3_14 
REMARK    3  A    between atoms: N3_14  and  C9_16 
ROOT
HETATM    1  C2  UNL     1      19.510  18.416  33.364  1.00  0.00     0.005 A 
HETATM    2  C3  UNL     1      19.029  17.318  32.642  1.00  0.00     0.015 A 
HETATM    3  C4  UNL     1      19.875  16.412  32.063  1.00  0.00     0.013 A 
HETATM    4  C5  UNL     1      21.238  16.578  32.192  1.00  0.00    -0.025 A 
HETATM    5  C6  UNL     1      22.110  15.652  31.601  1.00  0.00     0.029 A 
HETATM    6  C7  UNL     1      23.451  15.814  31.726  1.00  0.00     0.033 A 
HETATM    7  C15 UNL     1      23.922  16.884  32.430  1.00  0.00     0.018 A 
HETATM    8  C16 UNL     1      23.079  17.816  33.024  1.00  0.00     0.013 A 
HETATM    9  C17 UNL     1      21.708  17.653  32.898  1.00  0.00    -0.025 A 
HETATM   10  C18 UNL     1      20.861  18.588  33.495  1.00  0.00     0.027 A 
ENDROOT
BRANCH   6  11
HETATM   11  C8  UNL     1      24.407  14.863  31.117  1.00  0.00     0.256 C 
HETATM   12  O1  UNL     1      24.315  14.640  29.864  1.00  0.00    -0.267 OA
HETATM   13  N3  UNL     1      25.403  14.199  31.847  1.00  0.00    -0.323 N 
ATOM     14  H3  UNL     1      25.461  14.380  32.849  1.00  0.00     0.169 HD
BRANCH  13  15
HETATM   15  C9  UNL     1      26.325  13.301  31.289  1.00  0.00     0.035 A 
HETATM   16  C10 UNL     1      27.491  13.632  30.687  1.00  0.00     0.029 A 
HETATM   17  C11 UNL     1      28.337  12.658  30.143  1.00  0.00     0.002 A 
HETATM   18  C12 UNL     1      27.974  11.334  30.223  1.00  0.00     0.000 A 
HETATM   19  C13 UNL     1      26.797  10.950  30.826  1.00  0.00     0.002 A 
HETATM   20  C14 UNL     1      25.990  11.935  31.350  1.00  0.00     0.029 A 
ENDBRANCH  13  15
ENDBRANCH   6  11
BRANCH   1  21
HETATM   21  C1  UNL     1      18.552  19.332  33.946  1.00  0.00     0.120 C 
HETATM   22  N1  UNL     1      17.216  19.309  33.468  1.00  0.00    -0.082 NA
HETATM   23  N2  UNL     1      18.903  20.140  34.868  1.00  0.00    -0.387 N 
ATOM     24  H22 UNL     1      18.229  20.784  35.278  1.00  0.00     0.157 HD
ATOM     25  H21 UNL     1      19.864  20.156  35.212  1.00  0.00     0.157 HD
ENDBRANCH   1  21
TORSDOF 3
ENDMDL
