MODEL 4
REMARK VINA RESULT: -7.501556611      1.548      1.988
REMARK  3 active torsions:
REMARK  status: ('A' for Active; 'I' for Inactive)
REMARK    1  A    between atoms: C1_2  and  C2_6 
REMARK    2  A    between atoms: C7_11  and  C8_12 
REMARK       I    between atoms: C8_12  and  N3_14 
REMARK    3  A    between atoms: N3_14  and  C9_16 
ROOT
HETATM    1  C2  UNL     1      19.411  18.342  33.639  1.00  0.00     0.005 A 
HETATM    2  C3  UNL     1      19.000  17.493  32.606  1.00  0.00     0.015 A 
HETATM    3  C4  UNL     1      19.798  16.478  32.151  1.00  0.00     0.013 A 
HETATM    4  C5  UNL     1      21.037  16.281  32.721  1.00  0.00    -0.025 A 
HETATM    5  C6  UNL     1      21.858  15.241  32.259  1.00  0.00     0.029 A 
HETATM    6  C7  UNL     1      23.079  15.046  32.819  1.00  0.00     0.033 A 
HETATM    7  C15 UNL     1      23.480  15.874  33.828  1.00  0.00     0.018 A 
HETATM    8  C16 UNL     1      22.686  16.910  34.303  1.00  0.00     0.013 A 
HETATM    9  C17 UNL     1      21.438  17.113  33.732  1.00  0.00    -0.025 A 
HETATM   10  C18 UNL     1      20.640  18.153  34.210  1.00  0.00     0.027 A 
ENDROOT
BRANCH   6  11
HETATM   11  C8  UNL     1      23.978  13.965  32.360  1.00  0.00     0.256 C 
HETATM   12  O1  UNL     1      23.467  12.823  32.117  1.00  0.00    -0.267 OA
HETATM   13  N3  UNL     1      25.359  14.136  32.181  1.00  0.00    -0.323 N 
ATOM     14  H3  UNL     1      25.756  15.053  32.387  1.00  0.00     0.169 HD
BRANCH  13  15
HETATM   15  C9  UNL     1      26.229  13.129  31.739  1.00  0.00     0.035 A 
HETATM   16  C10 UNL     1      26.878  12.239  32.525  1.00  0.00     0.029 A 
HETATM   17  C11 UNL     1      27.744  11.280  31.986  1.00  0.00     0.002 A 
HETATM   18  C12 UNL     1      27.939  11.243  30.626  1.00  0.00     0.000 A 
HETATM   19  C13 UNL     1      27.300  12.128  29.786  1.00  0.00     0.002 A 
HETATM   20  C14 UNL     1      26.456  13.058  30.351  1.00  0.00     0.029 A 
ENDBRANCH  13  15
ENDBRANCH   6  11
BRANCH   1  21
HETATM   21  C1  UNL     1      18.511  19.394  34.065  1.00  0.00     0.120 C 
HETATM   22  N1  UNL     1      17.210  19.441  33.502  1.00  0.00    -0.082 NA
HETATM   23  N2  UNL     1      18.884  20.257  34.926  1.00  0.00    -0.387 N 
ATOM     24  H22 UNL     1      18.251  20.997  35.226  1.00  0.00     0.157 HD
ATOM     25  H21 UNL     1      19.820  20.223  35.331  1.00  0.00     0.157 HD
ENDBRANCH   1  21
TORSDOF 3
ENDMDL
