MODEL 3
REMARK VINA RESULT: -7.606255233      2.000      2.520
REMARK  3 active torsions:
REMARK  status: ('A' for Active; 'I' for Inactive)
REMARK    1  A    between atoms: C1_2  and  C2_6 
REMARK    2  A    between atoms: C7_11  and  C8_12 
REMARK       I    between atoms: C8_12  and  N3_14 
REMARK    3  A    between atoms: N3_14  and  C9_16 
ROOT
HETATM    1  C2  UNL     1      19.156  18.756  33.245  1.00  0.00     0.005 A 
HETATM    2  C3  UNL     1      18.641  17.669  32.531  1.00  0.00     0.015 A 
HETATM    3  C4  UNL     1      19.440  16.639  32.114  1.00  0.00     0.013 A 
HETATM    4  C5  UNL     1      20.788  16.667  32.405  1.00  0.00    -0.025 A 
HETATM    5  C6  UNL     1      21.612  15.613  31.981  1.00  0.00     0.029 A 
HETATM    6  C7  UNL     1      22.939  15.639  32.265  1.00  0.00     0.033 A 
HETATM    7  C15 UNL     1      23.442  16.698  32.963  1.00  0.00     0.018 A 
HETATM    8  C16 UNL     1      22.647  17.754  33.393  1.00  0.00     0.013 A 
HETATM    9  C17 UNL     1      21.291  17.731  33.104  1.00  0.00    -0.025 A 
HETATM   10  C18 UNL     1      20.492  18.790  33.536  1.00  0.00     0.027 A 
ENDROOT
BRANCH   6  11
HETATM   11  C8  UNL     1      23.844  14.551  31.835  1.00  0.00     0.256 C 
HETATM   12  O1  UNL     1      23.389  13.360  31.824  1.00  0.00    -0.267 OA
HETATM   13  N3  UNL     1      25.173  14.767  31.440  1.00  0.00    -0.323 N 
ATOM     14  H3  UNL     1      25.527  15.723  31.460  1.00  0.00     0.169 HD
BRANCH  13  15
HETATM   15  C9  UNL     1      26.047  13.753  31.020  1.00  0.00     0.035 A 
HETATM   16  C10 UNL     1      26.744  12.921  31.828  1.00  0.00     0.029 A 
HETATM   17  C11 UNL     1      27.609  11.950  31.309  1.00  0.00     0.002 A 
HETATM   18  C12 UNL     1      27.753  11.840  29.946  1.00  0.00     0.000 A 
HETATM   19  C13 UNL     1      27.063  12.665  29.085  1.00  0.00     0.002 A 
HETATM   20  C14 UNL     1      26.222  13.608  29.630  1.00  0.00     0.029 A 
ENDBRANCH  13  15
ENDBRANCH   6  11
BRANCH   1  21
HETATM   21  C1  UNL     1      18.247  19.807  33.650  1.00  0.00     0.120 C 
HETATM   22  N1  UNL     1      18.721  21.145  33.666  1.00  0.00    -0.082 NA
HETATM   23  N2  UNL     1      17.047  19.534  33.985  1.00  0.00    -0.387 N 
ATOM     24  H22 UNL     1      16.407  20.275  34.270  1.00  0.00     0.157 HD
ATOM     25  H21 UNL     1      16.706  18.573  33.974  1.00  0.00     0.157 HD
ENDBRANCH   1  21
TORSDOF 3
ENDMDL
