MODEL 13
REMARK VINA RESULT: -6.824058566      2.332      8.594
REMARK  3 active torsions:
REMARK  status: ('A' for Active; 'I' for Inactive)
REMARK    1  A    between atoms: C1_2  and  C2_6 
REMARK    2  A    between atoms: C7_11  and  C8_12 
REMARK       I    between atoms: C8_12  and  N3_14 
REMARK    3  A    between atoms: N3_14  and  C9_16 
ROOT
HETATM    1  C2  UNL     1      25.646  11.221  32.450  1.00  0.00     0.005 A 
HETATM    2  C3  UNL     1      24.658  11.155  33.438  1.00  0.00     0.015 A 
HETATM    3  C4  UNL     1      23.764  12.173  33.630  1.00  0.00     0.013 A 
HETATM    4  C5  UNL     1      23.833  13.295  32.831  1.00  0.00    -0.025 A 
HETATM    5  C6  UNL     1      22.918  14.342  33.023  1.00  0.00     0.029 A 
HETATM    6  C7  UNL     1      22.985  15.447  32.238  1.00  0.00     0.033 A 
HETATM    7  C15 UNL     1      23.948  15.513  31.273  1.00  0.00     0.018 A 
HETATM    8  C16 UNL     1      24.865  14.490  31.064  1.00  0.00     0.013 A 
HETATM    9  C17 UNL     1      24.800  13.359  31.865  1.00  0.00    -0.025 A 
HETATM   10  C18 UNL     1      25.720  12.331  31.655  1.00  0.00     0.027 A 
ENDROOT
BRANCH   6  11
HETATM   11  C8  UNL     1      22.044  16.575  32.408  1.00  0.00     0.256 C 
HETATM   12  O1  UNL     1      22.352  17.698  31.888  1.00  0.00    -0.267 OA
HETATM   13  N3  UNL     1      20.834  16.470  33.111  1.00  0.00    -0.323 N 
ATOM     14  H3  UNL     1      20.603  15.568  33.528  1.00  0.00     0.169 HD
BRANCH  13  15
HETATM   15  C9  UNL     1      19.922  17.522  33.278  1.00  0.00     0.035 A 
HETATM   16  C10 UNL     1      20.058  18.562  34.133  1.00  0.00     0.029 A 
HETATM   17  C11 UNL     1      19.079  19.557  34.239  1.00  0.00     0.002 A 
HETATM   18  C12 UNL     1      17.952  19.474  33.455  1.00  0.00     0.000 A 
HETATM   19  C13 UNL     1      17.771  18.435  32.570  1.00  0.00     0.002 A 
HETATM   20  C14 UNL     1      18.755  17.474  32.493  1.00  0.00     0.029 A 
ENDBRANCH  13  15
ENDBRANCH   6  11
BRANCH   1  21
HETATM   21  C1  UNL     1      26.555  10.103  32.310  1.00  0.00     0.120 C 
HETATM   22  N1  UNL     1      27.546  10.159  31.295  1.00  0.00    -0.082 NA
HETATM   23  N2  UNL     1      26.466   9.093  33.082  1.00  0.00    -0.387 N 
ATOM     24  H22 UNL     1      27.106   8.306  32.983  1.00  0.00     0.157 HD
ATOM     25  H21 UNL     1      25.753   9.052  33.811  1.00  0.00     0.157 HD
ENDBRANCH   1  21
TORSDOF 3
ENDMDL
