MODEL 2
REMARK VINA RESULT: -7.837246555      0.167      1.016
REMARK  3 active torsions:
REMARK  status: ('A' for Active; 'I' for Inactive)
REMARK    1  A    between atoms: C1_2  and  C2_6 
REMARK    2  A    between atoms: C7_11  and  C8_12 
REMARK       I    between atoms: C8_12  and  N3_14 
REMARK    3  A    between atoms: N3_14  and  C9_16 
ROOT
HETATM    1  C2  UNL     1      19.405  18.256  33.763  1.00  0.00     0.005 A 
HETATM    2  C3  UNL     1      18.966  17.058  33.190  1.00  0.00     0.015 A 
HETATM    3  C4  UNL     1      19.813  15.999  33.002  1.00  0.00     0.013 A 
HETATM    4  C5  UNL     1      21.133  16.110  33.386  1.00  0.00    -0.025 A 
HETATM    5  C6  UNL     1      22.005  15.028  33.197  1.00  0.00     0.029 A 
HETATM    6  C7  UNL     1      23.305  15.135  33.574  1.00  0.00     0.033 A 
HETATM    7  C15 UNL     1      23.733  16.304  34.134  1.00  0.00     0.018 A 
HETATM    8  C16 UNL     1      22.889  17.389  34.331  1.00  0.00     0.013 A 
HETATM    9  C17 UNL     1      21.561  17.283  33.946  1.00  0.00    -0.025 A 
HETATM   10  C18 UNL     1      20.712  18.374  34.146  1.00  0.00     0.027 A 
ENDROOT
BRANCH   6  11
HETATM   11  C8  UNL     1      24.259  14.020  33.389  1.00  0.00     0.256 C 
HETATM   12  O1  UNL     1      25.498  14.303  33.281  1.00  0.00    -0.267 OA
HETATM   13  N3  UNL     1      23.868  12.674  33.326  1.00  0.00    -0.323 N 
ATOM     14  H3  UNL     1      22.874  12.463  33.406  1.00  0.00     0.169 HD
BRANCH  13  15
HETATM   15  C9  UNL     1      24.755  11.601  33.161  1.00  0.00     0.035 A 
HETATM   16  C10 UNL     1      25.277  10.842  34.152  1.00  0.00     0.029 A 
HETATM   17  C11 UNL     1      26.173   9.800  33.885  1.00  0.00     0.002 A 
HETATM   18  C12 UNL     1      26.532   9.543  32.582  1.00  0.00     0.000 A 
HETATM   19  C13 UNL     1      26.027  10.289  31.540  1.00  0.00     0.002 A 
HETATM   20  C14 UNL     1      25.148  11.306  31.841  1.00  0.00     0.029 A 
ENDBRANCH  13  15
ENDBRANCH   6  11
BRANCH   1  21
HETATM   21  C1  UNL     1      18.449  19.331  33.928  1.00  0.00     0.120 C 
HETATM   22  N1  UNL     1      17.217  19.256  33.227  1.00  0.00    -0.082 NA
HETATM   23  N2  UNL     1      18.711  20.322  34.686  1.00  0.00    -0.387 N 
ATOM     24  H22 UNL     1      18.038  21.079  34.802  1.00  0.00     0.157 HD
ATOM     25  H21 UNL     1      19.597  20.376  35.190  1.00  0.00     0.157 HD
ENDBRANCH   1  21
TORSDOF 3
ENDMDL
