MODEL 16
REMARK VINA RESULT: -6.790710407      2.906      9.429
REMARK  3 active torsions:
REMARK  status: ('A' for Active; 'I' for Inactive)
REMARK    1  A    between atoms: C1_2  and  C2_6 
REMARK    2  A    between atoms: C7_11  and  C8_12 
REMARK       I    between atoms: C8_12  and  N3_14 
REMARK    3  A    between atoms: N3_14  and  C9_16 
ROOT
HETATM    1  C2  UNL     1      26.709   8.185  30.659  1.00  0.00     0.005 A 
HETATM    2  C3  UNL     1      27.510   9.291  30.354  1.00  0.00     0.015 A 
HETATM    3  C4  UNL     1      27.140  10.563  30.698  1.00  0.00     0.013 A 
HETATM    4  C5  UNL     1      25.950  10.767  31.363  1.00  0.00    -0.025 A 
HETATM    5  C6  UNL     1      25.566  12.069  31.719  1.00  0.00     0.029 A 
HETATM    6  C7  UNL     1      24.395  12.271  32.373  1.00  0.00     0.033 A 
HETATM    7  C15 UNL     1      23.613  11.193  32.672  1.00  0.00     0.018 A 
HETATM    8  C16 UNL     1      23.971   9.895  32.330  1.00  0.00     0.013 A 
HETATM    9  C17 UNL     1      25.167   9.684  31.661  1.00  0.00    -0.025 A 
HETATM   10  C18 UNL     1      25.527   8.380  31.319  1.00  0.00     0.027 A 
ENDROOT
BRANCH   6  11
HETATM   11  C8  UNL     1      23.950  13.627  32.763  1.00  0.00     0.256 C 
HETATM   12  O1  UNL     1      24.555  14.203  33.726  1.00  0.00    -0.267 OA
HETATM   13  N3  UNL     1      22.899  14.305  32.128  1.00  0.00    -0.323 N 
ATOM     14  H3  UNL     1      22.419  13.830  31.364  1.00  0.00     0.169 HD
BRANCH  13  15
HETATM   15  C9  UNL     1      22.466  15.593  32.474  1.00  0.00     0.035 A 
HETATM   16  C10 UNL     1      23.063  16.754  32.117  1.00  0.00     0.029 A 
HETATM   17  C11 UNL     1      22.562  17.994  32.531  1.00  0.00     0.002 A 
HETATM   18  C12 UNL     1      21.436  18.032  33.319  1.00  0.00     0.000 A 
HETATM   19  C13 UNL     1      20.794  16.876  33.707  1.00  0.00     0.002 A 
HETATM   20  C14 UNL     1      21.316  15.675  33.282  1.00  0.00     0.029 A 
ENDBRANCH  13  15
ENDBRANCH   6  11
BRANCH   1  21
HETATM   21  C1  UNL     1      27.168   6.871  30.262  1.00  0.00     0.120 C 
HETATM   22  N1  UNL     1      27.868   6.741  29.034  1.00  0.00    -0.082 NA
HETATM   23  N2  UNL     1      26.947   5.856  31.000  1.00  0.00    -0.387 N 
ATOM     24  H22 UNL     1      27.271   4.930  30.720  1.00  0.00     0.157 HD
ATOM     25  H21 UNL     1      26.444   5.949  31.883  1.00  0.00     0.157 HD
ENDBRANCH   1  21
TORSDOF 3
ENDMDL
