MODEL 8
REMARK VINA RESULT: -7.829984969      3.195      3.585
REMARK  5 active torsions:
REMARK  status: ('A' for Active; 'I' for Inactive)
REMARK    1  A    between atoms: C1_2  and  C2_6 
REMARK    2  A    between atoms: C7_11  and  C8_12 
REMARK       I    between atoms: C8_12  and  N3_14 
REMARK    3  A    between atoms: N3_14  and  C9_16 
REMARK    4  A    between atoms: C12_19  and  C13_20 
REMARK    5  A    between atoms: C13_20  and  N4_21 
ROOT
HETATM    1  C2  UNL     1      19.035  18.683  33.086  1.00  0.00     0.005 A 
HETATM    2  C3  UNL     1      18.545  17.625  32.359  1.00  0.00     0.015 A 
HETATM    3  C4  UNL     1      19.436  16.610  31.972  1.00  0.00     0.013 A 
HETATM    4  C5  UNL     1      20.765  16.622  32.285  1.00  0.00    -0.025 A 
HETATM    5  C6  UNL     1      21.639  15.616  31.899  1.00  0.00     0.029 A 
HETATM    6  C7  UNL     1      22.978  15.640  32.220  1.00  0.00     0.033 A 
HETATM    7  C16 UNL     1      23.433  16.700  32.941  1.00  0.00     0.018 A 
HETATM    8  C17 UNL     1      22.586  17.737  33.350  1.00  0.00     0.013 A 
HETATM    9  C18 UNL     1      21.251  17.690  33.017  1.00  0.00    -0.025 A 
HETATM   10  C19 UNL     1      20.402  18.695  33.407  1.00  0.00     0.027 A 
ENDROOT
BRANCH   6  11
HETATM   11  C8  UNL     1      23.832  14.566  31.783  1.00  0.00     0.256 C 
HETATM   12  O1  UNL     1      23.427  13.402  31.884  1.00  0.00    -0.267 OA
HETATM   13  N3  UNL     1      25.094  14.810  31.253  1.00  0.00    -0.323 N 
ATOM     14  H3  UNL     1      25.370  15.790  31.196  1.00  0.00     0.169 HD
BRANCH  13  15
HETATM   15  C9  UNL     1      26.047  13.870  30.780  1.00  0.00     0.035 A 
HETATM   16  C10 UNL     1      26.186  13.694  29.398  1.00  0.00     0.030 A 
HETATM   17  C11 UNL     1      27.090  12.804  28.862  1.00  0.00     0.011 A 
HETATM   18  C12 UNL     1      27.913  12.029  29.647  1.00  0.00    -0.033 A 
HETATM   19  C14 UNL     1      27.790  12.188  31.009  1.00  0.00     0.011 A 
HETATM   20  C15 UNL     1      26.870  13.096  31.559  1.00  0.00     0.030 A 
BRANCH  18  21
HETATM   21  C13 UNL     1      28.889  11.067  29.060  1.00  0.00     0.268 C 
BRANCH  21  22
HETATM   22  N4  UNL     1      28.181  10.150  28.152  1.00  0.00    -0.075 N 
ATOM     23  H43 UNL     1      28.017   9.236  28.574  1.00  0.00     0.274 HD
ATOM     24  H42 UNL     1      27.207  10.421  28.011  1.00  0.00     0.274 HD
ATOM     25  H41 UNL     1      28.694  10.083  27.273  1.00  0.00     0.274 HD
ENDBRANCH  21  22
ENDBRANCH  18  21
ENDBRANCH  13  15
ENDBRANCH   6  11
BRANCH   1  26
HETATM   26  C1  UNL     1      18.180  19.779  33.528  1.00  0.00     0.120 C 
HETATM   27  N1  UNL     1      18.690  21.129  33.452  1.00  0.00    -0.082 NA
HETATM   28  N2  UNL     1      17.011  19.546  33.968  1.00  0.00    -0.387 N 
ATOM     29  H22 UNL     1      16.413  20.312  34.276  1.00  0.00     0.157 HD
ATOM     30  H21 UNL     1      16.651  18.593  34.021  1.00  0.00     0.157 HD
ENDBRANCH   1  26
TORSDOF 5
ENDMDL
