MODEL 7
REMARK VINA RESULT: -7.832817934      1.598      9.499
REMARK  5 active torsions:
REMARK  status: ('A' for Active; 'I' for Inactive)
REMARK    1  A    between atoms: C1_2  and  C2_6 
REMARK    2  A    between atoms: C7_11  and  C8_12 
REMARK       I    between atoms: C8_12  and  N3_14 
REMARK    3  A    between atoms: N3_14  and  C9_16 
REMARK    4  A    between atoms: C12_19  and  C13_20 
REMARK    5  A    between atoms: C13_20  and  N4_21 
ROOT
HETATM    1  C2  UNL     1      25.611   9.076  31.622  1.00  0.00     0.005 A 
HETATM    2  C3  UNL     1      24.477   8.904  32.379  1.00  0.00     0.015 A 
HETATM    3  C4  UNL     1      23.784  10.045  32.815  1.00  0.00     0.013 A 
HETATM    4  C5  UNL     1      24.182  11.319  32.522  1.00  0.00    -0.025 A 
HETATM    5  C6  UNL     1      23.493  12.442  32.957  1.00  0.00     0.029 A 
HETATM    6  C7  UNL     1      23.905  13.721  32.655  1.00  0.00     0.033 A 
HETATM    7  C16 UNL     1      25.030  13.859  31.904  1.00  0.00     0.018 A 
HETATM    8  C17 UNL     1      25.756  12.753  31.445  1.00  0.00     0.013 A 
HETATM    9  C18 UNL     1      25.324  11.484  31.759  1.00  0.00    -0.025 A 
HETATM   10  C19 UNL     1      26.019  10.385  31.322  1.00  0.00     0.027 A 
ENDROOT
BRANCH   6  11
HETATM   11  C8  UNL     1      23.147  14.844  33.143  1.00  0.00     0.256 C 
HETATM   12  O1  UNL     1      23.600  15.506  34.084  1.00  0.00    -0.267 OA
HETATM   13  N3  UNL     1      21.925  15.197  32.581  1.00  0.00    -0.323 N 
ATOM     14  H3  UNL     1      21.606  14.612  31.809  1.00  0.00     0.169 HD
BRANCH  13  15
HETATM   15  C9  UNL     1      21.066  16.267  32.943  1.00  0.00     0.035 A 
HETATM   16  C10 UNL     1      21.603  17.556  33.035  1.00  0.00     0.030 A 
HETATM   17  C11 UNL     1      20.834  18.646  33.378  1.00  0.00     0.011 A 
HETATM   18  C12 UNL     1      19.489  18.540  33.653  1.00  0.00    -0.033 A 
HETATM   19  C14 UNL     1      18.943  17.280  33.569  1.00  0.00     0.011 A 
HETATM   20  C15 UNL     1      19.726  16.166  33.218  1.00  0.00     0.030 A 
BRANCH  18  21
HETATM   21  C13 UNL     1      18.663  19.724  34.025  1.00  0.00     0.268 C 
BRANCH  21  22
HETATM   22  N4  UNL     1      17.237  19.373  33.920  1.00  0.00    -0.075 N 
ATOM     23  H43 UNL     1      16.714  20.047  33.360  1.00  0.00     0.274 HD
ATOM     24  H42 UNL     1      17.083  18.550  33.338  1.00  0.00     0.274 HD
ATOM     25  H41 UNL     1      16.847  19.263  34.856  1.00  0.00     0.274 HD
ENDBRANCH  21  22
ENDBRANCH  18  21
ENDBRANCH  13  15
ENDBRANCH   6  11
BRANCH   1  26
HETATM   26  C1  UNL     1      26.389   7.945  31.129  1.00  0.00     0.120 C 
HETATM   27  N1  UNL     1      27.543   8.209  30.299  1.00  0.00    -0.082 NA
HETATM   28  N2  UNL     1      26.056   6.756  31.425  1.00  0.00    -0.387 N 
ATOM     29  H22 UNL     1      26.600   5.966  31.080  1.00  0.00     0.157 HD
ATOM     30  H21 UNL     1      25.242   6.570  32.010  1.00  0.00     0.157 HD
ENDBRANCH   1  26
TORSDOF 5
ENDMDL
