MODEL 12
REMARK VINA RESULT: -7.438022476      3.117      3.515
REMARK  5 active torsions:
REMARK  status: ('A' for Active; 'I' for Inactive)
REMARK    1  A    between atoms: C1_2  and  C2_6 
REMARK    2  A    between atoms: C7_11  and  C8_12 
REMARK       I    between atoms: C8_12  and  N3_14 
REMARK    3  A    between atoms: N3_14  and  C9_16 
REMARK    4  A    between atoms: C12_19  and  C13_20 
REMARK    5  A    between atoms: C13_20  and  N4_21 
ROOT
HETATM    1  C2  UNL     1      19.418  18.282  33.604  1.00  0.00     0.005 A 
HETATM    2  C3  UNL     1      19.155  17.448  32.544  1.00  0.00     0.015 A 
HETATM    3  C4  UNL     1      20.139  16.521  32.164  1.00  0.00     0.013 A 
HETATM    4  C5  UNL     1      21.344  16.406  32.797  1.00  0.00    -0.025 A 
HETATM    5  C6  UNL     1      22.312  15.488  32.416  1.00  0.00     0.029 A 
HETATM    6  C7  UNL     1      23.522  15.382  33.063  1.00  0.00     0.033 A 
HETATM    7  C16 UNL     1      23.752  16.221  34.109  1.00  0.00     0.018 A 
HETATM    8  C17 UNL     1      22.804  17.163  34.526  1.00  0.00     0.013 A 
HETATM    9  C18 UNL     1      21.600  17.249  33.864  1.00  0.00    -0.025 A 
HETATM   10  C19 UNL     1      20.656  18.164  34.255  1.00  0.00     0.027 A 
ENDROOT
BRANCH   6  11
HETATM   11  C8  UNL     1      24.486  14.411  32.612  1.00  0.00     0.256 C 
HETATM   12  O1  UNL     1      24.644  13.377  33.271  1.00  0.00    -0.267 OA
HETATM   13  N3  UNL     1      25.235  14.611  31.458  1.00  0.00    -0.323 N 
ATOM     14  H3  UNL     1      25.058  15.483  30.959  1.00  0.00     0.169 HD
BRANCH  13  15
HETATM   15  C9  UNL     1      26.213  13.757  30.885  1.00  0.00     0.035 A 
HETATM   16  C10 UNL     1      26.097  13.418  29.532  1.00  0.00     0.030 A 
HETATM   17  C11 UNL     1      27.007  12.598  28.903  1.00  0.00     0.011 A 
HETATM   18  C12 UNL     1      28.089  12.058  29.562  1.00  0.00    -0.033 A 
HETATM   19  C14 UNL     1      28.220  12.380  30.893  1.00  0.00     0.011 A 
HETATM   20  C15 UNL     1      27.293  13.218  31.538  1.00  0.00     0.030 A 
BRANCH  18  21
HETATM   21  C13 UNL     1      29.070  11.170  28.875  1.00  0.00     0.268 C 
BRANCH  21  22
HETATM   22  N4  UNL     1      28.355  10.043  28.255  1.00  0.00    -0.075 N 
ATOM     23  H43 UNL     1      27.347  10.096  28.403  1.00  0.00     0.274 HD
ATOM     24  H42 UNL     1      28.355  10.098  27.237  1.00  0.00     0.274 HD
ATOM     25  H41 UNL     1      28.750   9.165  28.594  1.00  0.00     0.274 HD
ENDBRANCH  21  22
ENDBRANCH  18  21
ENDBRANCH  13  15
ENDBRANCH   6  11
BRANCH   1  26
HETATM   26  C1  UNL     1      18.451  19.273  34.065  1.00  0.00     0.120 C 
HETATM   27  N1  UNL     1      17.137  19.289  33.464  1.00  0.00    -0.082 NA
HETATM   28  N2  UNL     1      18.763  20.101  34.976  1.00  0.00    -0.387 N 
ATOM     29  H22 UNL     1      18.088  20.794  35.298  1.00  0.00     0.157 HD
ATOM     30  H21 UNL     1      19.690  20.089  35.400  1.00  0.00     0.157 HD
ENDBRANCH   1  26
TORSDOF 5
ENDMDL
