MODEL 4
REMARK VINA RESULT: -7.943907114      2.313      2.695
REMARK  5 active torsions:
REMARK  status: ('A' for Active; 'I' for Inactive)
REMARK    1  A    between atoms: C1_2  and  C2_6 
REMARK    2  A    between atoms: C7_11  and  C8_12 
REMARK       I    between atoms: C8_12  and  N3_14 
REMARK    3  A    between atoms: N3_14  and  C9_16 
REMARK    4  A    between atoms: C12_19  and  C13_20 
REMARK    5  A    between atoms: C13_20  and  N4_21 
ROOT
HETATM    1  C2  UNL     1      19.502  18.239  33.555  1.00  0.00     0.005 A 
HETATM    2  C3  UNL     1      19.333  17.401  32.480  1.00  0.00     0.015 A 
HETATM    3  C4  UNL     1      20.369  16.509  32.157  1.00  0.00     0.013 A 
HETATM    4  C5  UNL     1      21.537  16.433  32.862  1.00  0.00    -0.025 A 
HETATM    5  C6  UNL     1      22.556  15.550  32.537  1.00  0.00     0.029 A 
HETATM    6  C7  UNL     1      23.729  15.483  33.254  1.00  0.00     0.033 A 
HETATM    7  C16 UNL     1      23.867  16.325  34.314  1.00  0.00     0.018 A 
HETATM    8  C17 UNL     1      22.865  17.233  34.676  1.00  0.00     0.013 A 
HETATM    9  C18 UNL     1      21.700  17.280  33.943  1.00  0.00    -0.025 A 
HETATM   10  C19 UNL     1      20.703  18.161  34.279  1.00  0.00     0.027 A 
ENDROOT
BRANCH   6  11
HETATM   11  C8  UNL     1      24.751  14.547  32.860  1.00  0.00     0.256 C 
HETATM   12  O1  UNL     1      25.889  14.677  33.324  1.00  0.00    -0.267 OA
HETATM   13  N3  UNL     1      24.483  13.508  31.976  1.00  0.00    -0.323 N 
ATOM     14  H3  UNL     1      23.526  13.456  31.629  1.00  0.00     0.169 HD
BRANCH  13  15
HETATM   15  C9  UNL     1      25.372  12.512  31.494  1.00  0.00     0.035 A 
HETATM   16  C10 UNL     1      26.266  12.850  30.472  1.00  0.00     0.030 A 
HETATM   17  C11 UNL     1      27.161  11.940  29.953  1.00  0.00     0.011 A 
HETATM   18  C12 UNL     1      27.234  10.641  30.404  1.00  0.00    -0.033 A 
HETATM   19  C14 UNL     1      26.362  10.290  31.409  1.00  0.00     0.011 A 
HETATM   20  C15 UNL     1      25.448  11.217  31.941  1.00  0.00     0.030 A 
BRANCH  18  21
HETATM   21  C13 UNL     1      28.204   9.661  29.838  1.00  0.00     0.268 C 
BRANCH  21  22
HETATM   22  N4  UNL     1      28.213   9.779  28.371  1.00  0.00    -0.075 N 
ATOM     23  H43 UNL     1      27.811  10.660  28.051  1.00  0.00     0.274 HD
ATOM     24  H42 UNL     1      29.155   9.906  27.999  1.00  0.00     0.274 HD
ATOM     25  H41 UNL     1      27.744   8.969  27.965  1.00  0.00     0.274 HD
ENDBRANCH  21  22
ENDBRANCH  18  21
ENDBRANCH  13  15
ENDBRANCH   6  11
BRANCH   1  26
HETATM   26  C1  UNL     1      18.477  19.195  33.959  1.00  0.00     0.120 C 
HETATM   27  N1  UNL     1      17.182  19.132  33.320  1.00  0.00    -0.082 NA
HETATM   28  N2  UNL     1      18.721  20.061  34.855  1.00  0.00    -0.387 N 
ATOM     29  H22 UNL     1      18.005  20.729  35.138  1.00  0.00     0.157 HD
ATOM     30  H21 UNL     1      19.635  20.106  35.306  1.00  0.00     0.157 HD
ENDBRANCH   1  26
TORSDOF 5
ENDMDL
