MODEL 5
REMARK VINA RESULT: -7.907044270      1.616      1.792
REMARK  5 active torsions:
REMARK  status: ('A' for Active; 'I' for Inactive)
REMARK    1  A    between atoms: C1_2  and  C2_6 
REMARK    2  A    between atoms: C7_11  and  C8_12 
REMARK       I    between atoms: C8_12  and  N3_14 
REMARK    3  A    between atoms: N3_14  and  C9_16 
REMARK    4  A    between atoms: C12_19  and  C13_20 
REMARK    5  A    between atoms: C13_20  and  N4_21 
ROOT
HETATM    1  C2  UNL     1      19.435  18.272  33.611  1.00  0.00     0.005 A 
HETATM    2  C3  UNL     1      19.202  17.361  32.609  1.00  0.00     0.015 A 
HETATM    3  C4  UNL     1      20.201  16.416  32.319  1.00  0.00     0.013 A 
HETATM    4  C5  UNL     1      21.392  16.358  32.985  1.00  0.00    -0.025 A 
HETATM    5  C6  UNL     1      22.374  15.422  32.693  1.00  0.00     0.029 A 
HETATM    6  C7  UNL     1      23.571  15.375  33.372  1.00  0.00     0.033 A 
HETATM    7  C16 UNL     1      23.771  16.289  34.359  1.00  0.00     0.018 A 
HETATM    8  C17 UNL     1      22.808  17.252  34.685  1.00  0.00     0.013 A 
HETATM    9  C18 UNL     1      21.618  17.279  33.993  1.00  0.00    -0.025 A 
HETATM   10  C19 UNL     1      20.660  18.212  34.295  1.00  0.00     0.027 A 
ENDROOT
BRANCH   6  11
HETATM   11  C8  UNL     1      24.550  14.381  33.014  1.00  0.00     0.256 C 
HETATM   12  O1  UNL     1      25.743  14.609  33.248  1.00  0.00    -0.267 OA
HETATM   13  N3  UNL     1      24.185  13.181  32.417  1.00  0.00    -0.323 N 
ATOM     14  H3  UNL     1      23.187  13.054  32.250  1.00  0.00     0.169 HD
BRANCH  13  15
HETATM   15  C9  UNL     1      25.022  12.110  32.009  1.00  0.00     0.035 A 
HETATM   16  C10 UNL     1      24.767  10.830  32.517  1.00  0.00     0.030 A 
HETATM   17  C11 UNL     1      25.532   9.740  32.168  1.00  0.00     0.011 A 
HETATM   18  C12 UNL     1      26.596   9.835  31.299  1.00  0.00    -0.033 A 
HETATM   19  C14 UNL     1      26.862  11.085  30.790  1.00  0.00     0.011 A 
HETATM   20  C15 UNL     1      26.082  12.200  31.144  1.00  0.00     0.030 A 
BRANCH  18  21
HETATM   21  C13 UNL     1      27.421   8.650  30.926  1.00  0.00     0.268 C 
BRANCH  21  22
HETATM   22  N4  UNL     1      26.604   7.721  30.129  1.00  0.00    -0.075 N 
ATOM     23  H43 UNL     1      26.213   6.968  30.695  1.00  0.00     0.274 HD
ATOM     24  H42 UNL     1      25.727   8.142  29.823  1.00  0.00     0.274 HD
ATOM     25  H41 UNL     1      27.158   7.370  29.348  1.00  0.00     0.274 HD
ENDBRANCH  21  22
ENDBRANCH  18  21
ENDBRANCH  13  15
ENDBRANCH   6  11
BRANCH   1  26
HETATM   26  C1  UNL     1      18.452  19.286  33.976  1.00  0.00     0.120 C 
HETATM   27  N1  UNL     1      17.136  19.220  33.382  1.00  0.00    -0.082 NA
HETATM   28  N2  UNL     1      18.751  20.204  34.801  1.00  0.00    -0.387 N 
ATOM     29  H22 UNL     1      18.064  20.913  35.057  1.00  0.00     0.157 HD
ATOM     30  H21 UNL     1      19.679  20.250  35.220  1.00  0.00     0.157 HD
ENDBRANCH   1  26
TORSDOF 5
ENDMDL
