MODEL 9
REMARK VINA RESULT: -7.812519029      1.838      9.649
REMARK  5 active torsions:
REMARK  status: ('A' for Active; 'I' for Inactive)
REMARK    1  A    between atoms: C1_2  and  C2_6 
REMARK    2  A    between atoms: C7_11  and  C8_12 
REMARK       I    between atoms: C8_12  and  N3_14 
REMARK    3  A    between atoms: N3_14  and  C9_16 
REMARK    4  A    between atoms: C12_19  and  C13_20 
REMARK    5  A    between atoms: C13_20  and  N4_21 
ROOT
HETATM    1  C2  UNL     1      26.454   9.749  31.358  1.00  0.00     0.005 A 
HETATM    2  C3  UNL     1      26.924  10.861  30.702  1.00  0.00     0.015 A 
HETATM    3  C4  UNL     1      26.299  12.095  30.947  1.00  0.00     0.013 A 
HETATM    4  C5  UNL     1      25.248  12.244  31.806  1.00  0.00    -0.025 A 
HETATM    5  C6  UNL     1      24.636  13.467  32.043  1.00  0.00     0.029 A 
HETATM    6  C7  UNL     1      23.577  13.603  32.912  1.00  0.00     0.033 A 
HETATM    7  C16 UNL     1      23.135  12.485  33.547  1.00  0.00     0.018 A 
HETATM    8  C17 UNL     1      23.723  11.231  33.337  1.00  0.00     0.013 A 
HETATM    9  C18 UNL     1      24.782  11.120  32.464  1.00  0.00    -0.025 A 
HETATM   10  C19 UNL     1      25.374   9.902  32.242  1.00  0.00     0.027 A 
ENDROOT
BRANCH   6  11
HETATM   11  C8  UNL     1      22.983  14.901  33.108  1.00  0.00     0.256 C 
HETATM   12  O1  UNL     1      23.720  15.865  33.344  1.00  0.00    -0.267 OA
HETATM   13  N3  UNL     1      21.608  15.090  33.036  1.00  0.00    -0.323 N 
ATOM     14  H3  UNL     1      21.054  14.255  32.838  1.00  0.00     0.169 HD
BRANCH  13  15
HETATM   15  C9  UNL     1      20.874  16.293  33.202  1.00  0.00     0.035 A 
HETATM   16  C10 UNL     1      19.804  16.550  32.337  1.00  0.00     0.030 A 
HETATM   17  C11 UNL     1      19.043  17.694  32.435  1.00  0.00     0.011 A 
HETATM   18  C12 UNL     1      19.284  18.659  33.388  1.00  0.00    -0.033 A 
HETATM   19  C14 UNL     1      20.333  18.423  34.247  1.00  0.00     0.011 A 
HETATM   20  C15 UNL     1      21.111  17.256  34.150  1.00  0.00     0.030 A 
BRANCH  18  21
HETATM   21  C13 UNL     1      18.457  19.895  33.489  1.00  0.00     0.268 C 
BRANCH  21  22
HETATM   22  N4  UNL     1      17.096  19.535  33.919  1.00  0.00    -0.075 N 
ATOM     23  H43 UNL     1      16.379  20.024  33.382  1.00  0.00     0.274 HD
ATOM     24  H42 UNL     1      16.847  18.581  33.657  1.00  0.00     0.274 HD
ATOM     25  H41 UNL     1      17.006  19.696  34.922  1.00  0.00     0.274 HD
ENDBRANCH  21  22
ENDBRANCH  18  21
ENDBRANCH  13  15
ENDBRANCH   6  11
BRANCH   1  26
HETATM   26  C1  UNL     1      27.045   8.429  31.162  1.00  0.00     0.120 C 
HETATM   27  N1  UNL     1      28.177   8.050  31.977  1.00  0.00    -0.082 NA
HETATM   28  N2  UNL     1      26.570   7.633  30.294  1.00  0.00    -0.387 N 
ATOM     29  H22 UNL     1      26.982   6.711  30.157  1.00  0.00     0.157 HD
ATOM     30  H21 UNL     1      25.771   7.901  29.719  1.00  0.00     0.157 HD
ENDBRANCH   1  26
TORSDOF 5
ENDMDL
