MODEL 10
REMARK VINA RESULT: -7.667964971      2.797      3.061
REMARK  5 active torsions:
REMARK  status: ('A' for Active; 'I' for Inactive)
REMARK    1  A    between atoms: C1_2  and  C2_6 
REMARK    2  A    between atoms: C7_11  and  C8_12 
REMARK       I    between atoms: C8_12  and  N3_14 
REMARK    3  A    between atoms: N3_14  and  C9_16 
REMARK    4  A    between atoms: C12_19  and  C13_20 
REMARK    5  A    between atoms: C13_20  and  N4_21 
ROOT
HETATM    1  C2  UNL     1      19.366  18.372  33.261  1.00  0.00     0.005 A 
HETATM    2  C3  UNL     1      18.867  17.285  32.584  1.00  0.00     0.015 A 
HETATM    3  C4  UNL     1      19.774  16.391  31.993  1.00  0.00     0.013 A 
HETATM    4  C5  UNL     1      21.130  16.547  32.058  1.00  0.00    -0.025 A 
HETATM    5  C6  UNL     1      22.020  15.659  31.472  1.00  0.00     0.029 A 
HETATM    6  C7  UNL     1      23.384  15.829  31.545  1.00  0.00     0.033 A 
HETATM    7  C16 UNL     1      23.848  16.914  32.221  1.00  0.00     0.018 A 
HETATM    8  C17 UNL     1      22.986  17.835  32.828  1.00  0.00     0.013 A 
HETATM    9  C18 UNL     1      21.625  17.643  32.742  1.00  0.00    -0.025 A 
HETATM   10  C19 UNL     1      20.760  18.533  33.328  1.00  0.00     0.027 A 
ENDROOT
BRANCH   6  11
HETATM   11  C8  UNL     1      24.253  14.873  30.907  1.00  0.00     0.256 C 
HETATM   12  O1  UNL     1      24.286  14.827  29.672  1.00  0.00    -0.267 OA
HETATM   13  N3  UNL     1      25.051  14.008  31.648  1.00  0.00    -0.323 N 
ATOM     14  H3  UNL     1      24.978  14.095  32.662  1.00  0.00     0.169 HD
BRANCH  13  15
HETATM   15  C9  UNL     1      25.953  13.020  31.174  1.00  0.00     0.035 A 
HETATM   16  C10 UNL     1      25.723  11.683  31.519  1.00  0.00     0.030 A 
HETATM   17  C11 UNL     1      26.550  10.667  31.096  1.00  0.00     0.011 A 
HETATM   18  C12 UNL     1      27.657  10.897  30.310  1.00  0.00    -0.033 A 
HETATM   19  C14 UNL     1      27.899  12.206  29.961  1.00  0.00     0.011 A 
HETATM   20  C15 UNL     1      27.056  13.246  30.390  1.00  0.00     0.030 A 
BRANCH  18  21
HETATM   21  C13 UNL     1      28.549   9.792  29.857  1.00  0.00     0.268 C 
BRANCH  21  22
HETATM   22  N4  UNL     1      28.141   9.359  28.511  1.00  0.00    -0.075 N 
ATOM     23  H43 UNL     1      27.800   8.397  28.501  1.00  0.00     0.274 HD
ATOM     24  H42 UNL     1      27.286   9.819  28.200  1.00  0.00     0.274 HD
ATOM     25  H41 UNL     1      28.915   9.501  27.862  1.00  0.00     0.274 HD
ENDBRANCH  21  22
ENDBRANCH  18  21
ENDBRANCH  13  15
ENDBRANCH   6  11
BRANCH   1  26
HETATM   26  C1  UNL     1      18.495  19.349  33.904  1.00  0.00     0.120 C 
HETATM   27  N1  UNL     1      17.117  19.435  33.476  1.00  0.00    -0.082 NA
HETATM   28  N2  UNL     1      18.942  20.104  34.821  1.00  0.00    -0.387 N 
ATOM     29  H22 UNL     1      18.333  20.787  35.271  1.00  0.00     0.157 HD
ATOM     30  H21 UNL     1      19.914  20.044  35.123  1.00  0.00     0.157 HD
ENDBRANCH   1  26
TORSDOF 5
ENDMDL
