MODEL 6
REMARK VINA RESULT: -7.904604254      1.316      9.481
REMARK  5 active torsions:
REMARK  status: ('A' for Active; 'I' for Inactive)
REMARK    1  A    between atoms: C1_2  and  C2_6 
REMARK    2  A    between atoms: C7_11  and  C8_12 
REMARK       I    between atoms: C8_12  and  N3_14 
REMARK    3  A    between atoms: N3_14  and  C9_16 
REMARK    4  A    between atoms: C12_19  and  C13_20 
REMARK    5  A    between atoms: C13_20  and  N4_21 
ROOT
HETATM    1  C2  UNL     1      25.122   8.804  32.575  1.00  0.00     0.005 A 
HETATM    2  C3  UNL     1      24.083   8.839  33.473  1.00  0.00     0.015 A 
HETATM    3  C4  UNL     1      23.502  10.082  33.775  1.00  0.00     0.013 A 
HETATM    4  C5  UNL     1      23.919  11.258  33.217  1.00  0.00    -0.025 A 
HETATM    5  C6  UNL     1      23.340  12.482  33.520  1.00  0.00     0.029 A 
HETATM    6  C7  UNL     1      23.769  13.660  32.951  1.00  0.00     0.033 A 
HETATM    7  C16 UNL     1      24.799  13.592  32.065  1.00  0.00     0.018 A 
HETATM    8  C17 UNL     1      25.412  12.379  31.732  1.00  0.00     0.013 A 
HETATM    9  C18 UNL     1      24.965  11.214  32.313  1.00  0.00    -0.025 A 
HETATM   10  C19 UNL     1      25.550  10.013  32.002  1.00  0.00     0.027 A 
ENDROOT
BRANCH   6  11
HETATM   11  C8  UNL     1      23.129  14.898  33.314  1.00  0.00     0.256 C 
HETATM   12  O1  UNL     1      23.728  15.684  34.056  1.00  0.00    -0.267 OA
HETATM   13  N3  UNL     1      21.860  15.225  32.849  1.00  0.00    -0.323 N 
ATOM     14  H3  UNL     1      21.419  14.534  32.241  1.00  0.00     0.169 HD
BRANCH  13  15
HETATM   15  C9  UNL     1      21.101  16.394  33.112  1.00  0.00     0.035 A 
HETATM   16  C10 UNL     1      19.711  16.278  33.229  1.00  0.00     0.030 A 
HETATM   17  C11 UNL     1      18.905  17.365  33.486  1.00  0.00     0.011 A 
HETATM   18  C12 UNL     1      19.412  18.636  33.642  1.00  0.00    -0.033 A 
HETATM   19  C14 UNL     1      20.777  18.770  33.529  1.00  0.00     0.011 A 
HETATM   20  C15 UNL     1      21.602  17.662  33.268  1.00  0.00     0.030 A 
BRANCH  18  21
HETATM   21  C13 UNL     1      18.534  19.809  33.919  1.00  0.00     0.268 C 
BRANCH  21  22
HETATM   22  N4  UNL     1      17.128  19.375  33.914  1.00  0.00    -0.075 N 
ATOM     23  H43 UNL     1      16.886  18.855  33.070  1.00  0.00     0.274 HD
ATOM     24  H42 UNL     1      16.949  18.637  34.595  1.00  0.00     0.274 HD
ATOM     25  H41 UNL     1      16.525  20.186  34.055  1.00  0.00     0.274 HD
ENDBRANCH  21  22
ENDBRANCH  18  21
ENDBRANCH  13  15
ENDBRANCH   6  11
BRANCH   1  26
HETATM   26  C1  UNL     1      25.782   7.556  32.206  1.00  0.00     0.120 C 
HETATM   27  N1  UNL     1      25.967   6.545  33.221  1.00  0.00    -0.082 NA
HETATM   28  N2  UNL     1      26.181   7.367  31.015  1.00  0.00    -0.387 N 
ATOM     29  H22 UNL     1      26.642   6.495  30.757  1.00  0.00     0.157 HD
ATOM     30  H21 UNL     1      26.050   8.081  30.299  1.00  0.00     0.157 HD
ENDBRANCH   1  26
TORSDOF 5
ENDMDL
