MODEL 20
REMARK VINA RESULT: -5.762277963      1.138      1.141
REMARK  3 active torsions:
REMARK  status: ('A' for Active; 'I' for Inactive)
REMARK    1  A    between atoms: C2_2  and  O2_4 
REMARK    2  A    between atoms: O2_4  and  C3_5 
REMARK    3  A    between atoms: C8_10  and  C9_11 
ROOT
HETATM    1  C3  UNL     1      10.675  14.756   1.655  1.00  0.00     0.096 A 
HETATM    2  C4  UNL     1       9.521  14.091   1.928  1.00  0.00     0.038 A 
HETATM    3  C5  UNL     1       8.387  14.271   1.177  1.00  0.00     0.003 A 
HETATM    4  C6  UNL     1       8.415  15.159   0.104  1.00  0.00     0.001 A 
HETATM    5  C7  UNL     1       9.555  15.852  -0.210  1.00  0.00     0.021 A 
HETATM    6  C8  UNL     1      10.679  15.632   0.586  1.00  0.00     0.074 A 
ENDROOT
BRANCH   1   7
HETATM    7  O2  UNL     1      11.825  14.602   2.380  1.00  0.00    -0.278 OA
BRANCH   7   8
HETATM    8  C2  UNL     1      11.963  14.982   3.705  1.00  0.00     0.260 C 
HETATM    9  C1  UNL     1      12.522  16.286   4.134  1.00  0.00     0.126 C 
HETATM   10  O1  UNL     1      11.569  14.120   4.517  1.00  0.00    -0.265 OA
ENDBRANCH   7   8
ENDBRANCH   1   7
BRANCH   6  11
HETATM   11  C9  UNL     1      11.899  16.379   0.240  1.00  0.00     0.212 C 
HETATM   12  O3  UNL     1      12.643  16.053  -0.690  1.00  0.00    -0.644 OA
HETATM   13  O4  UNL     1      12.194  17.485   1.012  1.00  0.00    -0.644 OA
ENDBRANCH   6  11
TORSDOF 3
ENDMDL
