MODEL 4
REMARK VINA RESULT: -6.111662226      2.216      3.618
REMARK  3 active torsions:
REMARK  status: ('A' for Active; 'I' for Inactive)
REMARK    1  A    between atoms: C2_2  and  O2_4 
REMARK    2  A    between atoms: O2_4  and  C3_5 
REMARK    3  A    between atoms: C8_10  and  C9_11 
ROOT
HETATM    1  C3  UNL     1      10.690  15.125   1.688  1.00  0.00     0.096 A 
HETATM    2  C4  UNL     1      11.493  15.294   2.773  1.00  0.00     0.038 A 
HETATM    3  C5  UNL     1      11.003  15.236   4.052  1.00  0.00     0.003 A 
HETATM    4  C6  UNL     1       9.645  14.997   4.251  1.00  0.00     0.001 A 
HETATM    5  C7  UNL     1       8.796  14.821   3.190  1.00  0.00     0.021 A 
HETATM    6  C8  UNL     1       9.346  14.888   1.910  1.00  0.00     0.074 A 
ENDROOT
BRANCH   1   7
HETATM    7  O2  UNL     1      11.142  15.175   0.398  1.00  0.00    -0.278 OA
BRANCH   7   8
HETATM    8  C2  UNL     1      11.857  16.236  -0.132  1.00  0.00     0.260 C 
HETATM    9  C1  UNL     1      11.226  17.446  -0.711  1.00  0.00     0.126 C 
HETATM   10  O1  UNL     1      13.094  16.085  -0.079  1.00  0.00    -0.265 OA
ENDBRANCH   7   8
ENDBRANCH   1   7
BRANCH   6  11
HETATM   11  C9  UNL     1       8.427  14.695   0.776  1.00  0.00     0.212 C 
HETATM   12  O3  UNL     1       8.394  15.455  -0.196  1.00  0.00    -0.644 OA
HETATM   13  O4  UNL     1       7.579  13.608   0.838  1.00  0.00    -0.644 OA
ENDBRANCH   6  11
TORSDOF 3
ENDMDL
