MODEL 4
REMARK VINA RESULT: -8.157977826      7.259     10.944
REMARK  13 active torsions:
REMARK  status: ('A' for Active; 'I' for Inactive)
REMARK    1  A    between atoms: C2_2  and  O1_3 
REMARK    2  A    between atoms: O1_3  and  C3_4 
REMARK    3  A    between atoms: C3_4  and  C4_6 
REMARK    4  A    between atoms: C4_6  and  O3_7 
REMARK    5  A    between atoms: O3_7  and  N1_8 
REMARK    6  A    between atoms: C5_10  and  C6_11 
REMARK    7  A    between atoms: C5_10  and  C11_18 
REMARK    8  A    between atoms: C11_18  and  C12_19 
REMARK    9  A    between atoms: C18_27  and  C19_28 
REMARK   10  A    between atoms: C19_28  and  N4_29 
REMARK   11  A    between atoms: N4_29  and  C20_31 
REMARK   12  A    between atoms: C23_34  and  C24_35 
REMARK   13  A    between atoms: C24_35  and  N6_37 
ROOT
HETATM    1  C12 UNL     1      -2.930   4.369  22.957  1.00  0.00    -0.041 A 
HETATM    2  C13 UNL     1      -1.609   4.318  23.284  1.00  0.00     0.011 A 
HETATM    3  C14 UNL     1      -1.247   4.264  24.637  1.00  0.00     0.033 A 
HETATM    4  C15 UNL     1      -2.188   4.262  25.637  1.00  0.00     0.062 A 
HETATM    5  C16 UNL     1      -3.534   4.313  25.286  1.00  0.00     0.061 A 
HETATM    6  C17 UNL     1      -3.876   4.366  23.943  1.00  0.00     0.040 A 
HETATM    7  N3  UNL     1      -4.216   4.290  26.437  1.00  0.00    -0.343 N 
ATOM      8  H3  UNL     1      -5.234   4.318  26.502  1.00  0.00     0.167 HD
HETATM    9  C18 UNL     1      -3.408   4.225  27.481  1.00  0.00     0.102 A 
HETATM   10  N7  UNL     1      -2.154   4.210  26.979  1.00  0.00    -0.338 N 
HETATM   11  C27 UNL     1      -0.968   4.145  27.808  1.00  0.00     0.158 C 
ENDROOT
BRANCH   1  12
HETATM   12  C11 UNL     1      -3.341   4.410  21.481  1.00  0.00     0.034 A 
HETATM   13  C28 UNL     1      -3.907   3.082  21.030  1.00  0.00     0.022 A 
HETATM   14  C29 UNL     1      -2.583   3.592  20.550  1.00  0.00     0.022 A 
BRANCH  12  15
HETATM   15  C5  UNL     1      -4.163   5.581  21.178  1.00  0.00     0.072 C 
HETATM   16  N1  UNL     1      -5.358   5.665  21.466  1.00  0.00    -0.267 N 
ATOM     17  H1  UNL     1      -5.700   6.595  21.225  1.00  0.00     0.194 HD
BRANCH  16  18
HETATM   18  O3  UNL     1      -6.286   4.995  21.952  1.00  0.00    -0.270 OA
BRANCH  18  19
HETATM   19  C4  UNL     1      -7.253   4.056  21.887  1.00  0.00     0.312 C 
BRANCH  19  20
HETATM   20  C3  UNL     1      -7.673   3.760  20.457  1.00  0.00     0.285 C 
HETATM   21  O2  UNL     1      -6.875   3.641  19.523  1.00  0.00    -0.263 OA
BRANCH  20  22
HETATM   22  O1  UNL     1      -9.022   3.623  20.217  1.00  0.00    -0.320 OA
BRANCH  22  23
HETATM   23  C2  UNL     1      -9.659   4.301  19.168  1.00  0.00     0.174 C 
HETATM   24  C1  UNL     1     -11.079   4.626  19.641  1.00  0.00     0.034 C 
ENDBRANCH  22  23
ENDBRANCH  20  22
ENDBRANCH  19  20
ENDBRANCH  18  19
ENDBRANCH  16  18
BRANCH  15  25
HETATM   25  C6  UNL     1      -3.463   6.739  20.582  1.00  0.00     0.057 A 
HETATM   26  C7  UNL     1      -2.115   6.706  20.270  1.00  0.00     0.031 A 
HETATM   27  C8  UNL     1      -1.480   7.824  19.718  1.00  0.00     0.004 A 
HETATM   28  C9  UNL     1      -2.182   8.976  19.476  1.00  0.00     0.017 A 
HETATM   29  C10 UNL     1      -3.522   8.978  19.798  1.00  0.00     0.088 A 
HETATM   30  N2  UNL     1      -4.110   7.897  20.326  1.00  0.00    -0.364 N 
ATOM     31  H2  UNL     1      -5.104   7.951  20.547  1.00  0.00     0.165 HD
ENDBRANCH  15  25
ENDBRANCH  12  15
ENDBRANCH   1  12
BRANCH   9  32
HETATM   32  C19 UNL     1      -3.825   4.173  28.903  1.00  0.00     0.196 C 
BRANCH  32  33
HETATM   33  N4  UNL     1      -4.202   5.491  29.314  1.00  0.00    -0.383 N 
ATOM     34  H4  UNL     1      -5.098   5.876  29.015  1.00  0.00     0.160 HD
BRANCH  33  35
HETATM   35  C20 UNL     1      -3.347   6.262  30.125  1.00  0.00     0.028 A 
HETATM   36  C21 UNL     1      -2.546   7.226  29.578  1.00  0.00     0.030 A 
HETATM   37  C22 UNL     1      -1.702   7.970  30.390  1.00  0.00     0.017 A 
HETATM   38  C23 UNL     1      -1.616   7.796  31.748  1.00  0.00     0.005 A 
HETATM   39  C25 UNL     1      -2.455   6.797  32.273  1.00  0.00     0.017 A 
HETATM   40  C26 UNL     1      -3.299   6.050  31.485  1.00  0.00     0.030 A 
BRANCH  38  41
HETATM   41  C24 UNL     1      -0.747   8.549  32.630  1.00  0.00     0.120 C 
HETATM   42  N5  UNL     1      -0.692   8.200  33.998  1.00  0.00    -0.082 NA
BRANCH  41  43
HETATM   43  N6  UNL     1      -0.033   9.513  32.199  1.00  0.00    -0.387 N 
ATOM     44  H62 UNL     1       0.264   9.521  31.224  1.00  0.00     0.157 HD
ATOM     45  H61 UNL     1       0.249  10.281  32.808  1.00  0.00     0.157 HD
ENDBRANCH  41  43
ENDBRANCH  38  41
ENDBRANCH  33  35
ENDBRANCH  32  33
ENDBRANCH   9  32
TORSDOF 13
ENDMDL
