MODEL 5
REMARK VINA RESULT: -8.149287789      1.926      4.197
REMARK  13 active torsions:
REMARK  status: ('A' for Active; 'I' for Inactive)
REMARK    1  A    between atoms: C2_2  and  O1_3 
REMARK    2  A    between atoms: O1_3  and  C3_4 
REMARK    3  A    between atoms: C3_4  and  C4_6 
REMARK    4  A    between atoms: C4_6  and  O3_7 
REMARK    5  A    between atoms: O3_7  and  N1_8 
REMARK    6  A    between atoms: C5_10  and  C6_11 
REMARK    7  A    between atoms: C5_10  and  C11_18 
REMARK    8  A    between atoms: C11_18  and  C12_19 
REMARK    9  A    between atoms: C18_27  and  C19_28 
REMARK   10  A    between atoms: C19_28  and  N4_29 
REMARK   11  A    between atoms: N4_29  and  C20_31 
REMARK   12  A    between atoms: C23_34  and  C24_35 
REMARK   13  A    between atoms: C24_35  and  N6_37 
ROOT
HETATM    1  C12 UNL     1       0.085  -1.740  20.106  1.00  0.00    -0.041 A 
HETATM    2  C13 UNL     1       0.133  -1.942  21.452  1.00  0.00     0.011 A 
HETATM    3  C14 UNL     1      -0.032  -0.845  22.309  1.00  0.00     0.033 A 
HETATM    4  C15 UNL     1      -0.243   0.422  21.827  1.00  0.00     0.062 A 
HETATM    5  C16 UNL     1      -0.291   0.612  20.448  1.00  0.00     0.061 A 
HETATM    6  C17 UNL     1      -0.124  -0.483  19.614  1.00  0.00     0.040 A 
HETATM    7  N3  UNL     1      -0.512   1.919  20.264  1.00  0.00    -0.343 N 
ATOM      8  H3  UNL     1      -0.596   2.363  19.349  1.00  0.00     0.167 HD
HETATM    9  C18 UNL     1      -0.609   2.564  21.413  1.00  0.00     0.102 A 
HETATM   10  N7  UNL     1      -0.440   1.632  22.377  1.00  0.00    -0.338 N 
HETATM   11  C27 UNL     1      -0.474   1.939  23.792  1.00  0.00     0.158 C 
ENDROOT
BRANCH   1  12
HETATM   12  C11 UNL     1       0.247  -2.933  19.158  1.00  0.00     0.034 A 
HETATM   13  C28 UNL     1      -1.011  -3.171  18.352  1.00  0.00     0.022 A 
HETATM   14  C29 UNL     1      -0.555  -4.115  19.422  1.00  0.00     0.022 A 
BRANCH  12  15
HETATM   15  C5  UNL     1       1.485  -2.847  18.383  1.00  0.00     0.072 C 
HETATM   16  N1  UNL     1       1.527  -2.473  17.210  1.00  0.00    -0.267 N 
ATOM     17  H1  UNL     1       2.499  -2.424  16.905  1.00  0.00     0.194 HD
BRANCH  16  18
HETATM   18  O3  UNL     1       0.781  -2.135  16.274  1.00  0.00    -0.270 OA
BRANCH  18  19
HETATM   19  C4  UNL     1       0.290  -2.260  15.024  1.00  0.00     0.312 C 
BRANCH  19  20
HETATM   20  C3  UNL     1      -1.109  -1.682  14.894  1.00  0.00     0.285 C 
HETATM   21  O2  UNL     1      -1.438  -0.583  15.350  1.00  0.00    -0.263 OA
BRANCH  20  22
HETATM   22  O1  UNL     1      -2.042  -2.446  14.230  1.00  0.00    -0.320 OA
BRANCH  22  23
HETATM   23  C2  UNL     1      -2.415  -3.719  14.685  1.00  0.00     0.174 C 
HETATM   24  C1  UNL     1      -3.563  -3.523  15.678  1.00  0.00     0.034 C 
ENDBRANCH  22  23
ENDBRANCH  20  22
ENDBRANCH  19  20
ENDBRANCH  18  19
ENDBRANCH  16  18
BRANCH  15  25
HETATM   25  C6  UNL     1       2.738  -3.140  19.111  1.00  0.00     0.057 A 
HETATM   26  C7  UNL     1       3.767  -2.221  19.210  1.00  0.00     0.031 A 
HETATM   27  C8  UNL     1       4.944  -2.534  19.897  1.00  0.00     0.004 A 
HETATM   28  C9  UNL     1       5.102  -3.761  20.487  1.00  0.00     0.017 A 
HETATM   29  C10 UNL     1       4.060  -4.655  20.371  1.00  0.00     0.088 A 
HETATM   30  N2  UNL     1       2.942  -4.335  19.708  1.00  0.00    -0.364 N 
ATOM     31  H2  UNL     1       2.201  -5.034  19.650  1.00  0.00     0.165 HD
ENDBRANCH  15  25
ENDBRANCH  12  15
ENDBRANCH   1  12
BRANCH   9  32
HETATM   32  C19 UNL     1      -0.862   4.016  21.579  1.00  0.00     0.196 C 
BRANCH  32  33
HETATM   33  N4  UNL     1      -0.982   4.605  20.280  1.00  0.00    -0.383 N 
ATOM     34  H4  UNL     1      -0.578   4.132  19.472  1.00  0.00     0.160 HD
BRANCH  33  35
HETATM   35  C20 UNL     1      -1.654   5.831  20.107  1.00  0.00     0.028 A 
HETATM   36  C21 UNL     1      -2.965   5.968  20.471  1.00  0.00     0.030 A 
HETATM   37  C22 UNL     1      -3.614   7.179  20.284  1.00  0.00     0.017 A 
HETATM   38  C23 UNL     1      -3.009   8.283  19.740  1.00  0.00     0.005 A 
HETATM   39  C25 UNL     1      -1.662   8.104  19.378  1.00  0.00     0.017 A 
HETATM   40  C26 UNL     1      -1.000   6.911  19.556  1.00  0.00     0.030 A 
BRANCH  38  41
HETATM   41  C24 UNL     1      -3.652   9.564  19.525  1.00  0.00     0.120 C 
HETATM   42  N5  UNL     1      -2.849  10.718  19.383  1.00  0.00    -0.082 NA
BRANCH  41  43
HETATM   43  N6  UNL     1      -4.920   9.671  19.460  1.00  0.00    -0.387 N 
ATOM     44  H62 UNL     1      -5.493   9.324  20.229  1.00  0.00     0.157 HD
ATOM     45  H61 UNL     1      -5.379  10.097  18.656  1.00  0.00     0.157 HD
ENDBRANCH  41  43
ENDBRANCH  38  41
ENDBRANCH  33  35
ENDBRANCH  32  33
ENDBRANCH   9  32
TORSDOF 13
ENDMDL
