MODEL 1
REMARK VINA RESULT: -8.640213228      0.000      0.000
REMARK  13 active torsions:
REMARK  status: ('A' for Active; 'I' for Inactive)
REMARK    1  A    between atoms: C2_2  and  O1_3 
REMARK    2  A    between atoms: O1_3  and  C3_4 
REMARK    3  A    between atoms: C3_4  and  C4_6 
REMARK    4  A    between atoms: C4_6  and  O3_7 
REMARK    5  A    between atoms: O3_7  and  N1_8 
REMARK    6  A    between atoms: C5_10  and  C6_11 
REMARK    7  A    between atoms: C5_10  and  C11_18 
REMARK    8  A    between atoms: C11_18  and  C12_19 
REMARK    9  A    between atoms: C18_27  and  C19_28 
REMARK   10  A    between atoms: C19_28  and  N4_29 
REMARK   11  A    between atoms: N4_29  and  C20_31 
REMARK   12  A    between atoms: C23_34  and  C24_35 
REMARK   13  A    between atoms: C24_35  and  N6_37 
ROOT
HETATM    1  C12 UNL     1       0.384  -1.489  19.996  1.00  0.00    -0.041 A 
HETATM    2  C13 UNL     1       0.683  -1.725  21.304  1.00  0.00     0.011 A 
HETATM    3  C14 UNL     1       0.517  -0.690  22.234  1.00  0.00     0.033 A 
HETATM    4  C15 UNL     1       0.062   0.550  21.862  1.00  0.00     0.062 A 
HETATM    5  C16 UNL     1      -0.240   0.775  20.521  1.00  0.00     0.061 A 
HETATM    6  C17 UNL     1      -0.070  -0.259  19.613  1.00  0.00     0.040 A 
HETATM    7  N3  UNL     1      -0.661   2.043  20.446  1.00  0.00    -0.343 N 
ATOM      8  H3  UNL     1      -0.954   2.500  19.583  1.00  0.00     0.167 HD
HETATM    9  C18 UNL     1      -0.650   2.631  21.630  1.00  0.00     0.102 A 
HETATM   10  N7  UNL     1      -0.200   1.702  22.502  1.00  0.00    -0.338 N 
HETATM   11  C27 UNL     1      -0.038   1.956  23.919  1.00  0.00     0.158 C 
ENDROOT
BRANCH   1  12
HETATM   12  C11 UNL     1       0.544  -2.617  18.970  1.00  0.00     0.034 A 
HETATM   13  C28 UNL     1      -0.788  -3.254  18.640  1.00  0.00     0.022 A 
HETATM   14  C29 UNL     1       0.272  -3.973  19.415  1.00  0.00     0.022 A 
BRANCH  12  15
HETATM   15  C5  UNL     1       1.344  -2.197  17.820  1.00  0.00     0.072 C 
HETATM   16  N1  UNL     1       2.529  -1.870  17.900  1.00  0.00    -0.267 N 
ATOM     17  H1  UNL     1       2.895  -1.689  16.966  1.00  0.00     0.194 HD
BRANCH  16  18
HETATM   18  O3  UNL     1       3.428  -1.686  18.740  1.00  0.00    -0.270 OA
BRANCH  18  19
HETATM   19  C4  UNL     1       4.039  -1.926  19.919  1.00  0.00     0.312 C 
BRANCH  19  20
HETATM   20  C3  UNL     1       4.627  -3.325  19.989  1.00  0.00     0.285 C 
HETATM   21  O2  UNL     1       5.780  -3.562  20.360  1.00  0.00    -0.263 OA
BRANCH  20  22
HETATM   22  O1  UNL     1       3.809  -4.367  19.612  1.00  0.00    -0.320 OA
BRANCH  22  23
HETATM   23  C2  UNL     1       3.585  -5.471  20.447  1.00  0.00     0.174 C 
HETATM   24  C1  UNL     1       2.921  -4.943  21.721  1.00  0.00     0.034 C 
ENDBRANCH  22  23
ENDBRANCH  20  22
ENDBRANCH  19  20
ENDBRANCH  18  19
ENDBRANCH  16  18
BRANCH  15  25
HETATM   25  C6  UNL     1       0.687  -2.276  16.498  1.00  0.00     0.057 A 
HETATM   26  C7  UNL     1       0.627  -3.453  15.773  1.00  0.00     0.031 A 
HETATM   27  C8  UNL     1       0.007  -3.491  14.520  1.00  0.00     0.004 A 
HETATM   28  C9  UNL     1      -0.554  -2.361  13.984  1.00  0.00     0.017 A 
HETATM   29  C10 UNL     1      -0.479  -1.205  14.730  1.00  0.00     0.088 A 
HETATM   30  N2  UNL     1       0.120  -1.191  15.927  1.00  0.00    -0.364 N 
ATOM     31  H2  UNL     1       0.150  -0.308  16.439  1.00  0.00     0.165 HD
ENDBRANCH  15  25
ENDBRANCH  12  15
ENDBRANCH   1  12
BRANCH   9  32
HETATM   32  C19 UNL     1      -1.063   4.027  21.912  1.00  0.00     0.196 C 
BRANCH  32  33
HETATM   33  N4  UNL     1      -0.692   4.844  20.797  1.00  0.00    -0.383 N 
ATOM     34  H4  UNL     1       0.121   4.591  20.235  1.00  0.00     0.160 HD
BRANCH  33  35
HETATM   35  C20 UNL     1      -1.437   5.992  20.468  1.00  0.00     0.028 A 
HETATM   36  C21 UNL     1      -2.749   6.104  20.835  1.00  0.00     0.030 A 
HETATM   37  C22 UNL     1      -3.472   7.238  20.495  1.00  0.00     0.017 A 
HETATM   38  C23 UNL     1      -2.939   8.288  19.790  1.00  0.00     0.005 A 
HETATM   39  C25 UNL     1      -1.589   8.137  19.431  1.00  0.00     0.017 A 
HETATM   40  C26 UNL     1      -0.855   7.021  19.760  1.00  0.00     0.030 A 
BRANCH  38  41
HETATM   41  C24 UNL     1      -3.660   9.486  19.412  1.00  0.00     0.120 C 
HETATM   42  N5  UNL     1      -2.931  10.665  19.138  1.00  0.00    -0.082 NA
BRANCH  41  43
HETATM   43  N6  UNL     1      -4.931   9.500  19.320  1.00  0.00    -0.387 N 
ATOM     44  H62 UNL     1      -5.490   9.783  20.125  1.00  0.00     0.157 HD
ATOM     45  H61 UNL     1      -5.407   9.234  18.459  1.00  0.00     0.157 HD
ENDBRANCH  41  43
ENDBRANCH  38  41
ENDBRANCH  33  35
ENDBRANCH  32  33
ENDBRANCH   9  32
TORSDOF 13
ENDMDL
