MODEL 4
REMARK VINA RESULT: -8.867946716      3.306      7.375
REMARK  4 active torsions:
REMARK  status: ('A' for Active; 'I' for Inactive)
REMARK    1  A    between atoms: C1_2  and  C2_6 
REMARK    2  A    between atoms: C5_9  and  C6_10 
REMARK    3  A    between atoms: N3_14  and  C9_15 
REMARK    4  A    between atoms: C9_15  and  C10_16 
ROOT
HETATM    1  C6  UNL     1      16.725 -13.162  19.847  1.00  0.00     0.270 C 
HETATM    2  C7  UNL     1      16.773 -13.017  18.373  1.00  0.00     0.131 C 
HETATM    3  C8  UNL     1      16.073 -11.878  17.800  1.00  0.00     0.234 C 
HETATM    4  O1  UNL     1      14.934 -11.463  18.119  1.00  0.00    -0.272 OA
HETATM    5  N3  UNL     1      16.889 -11.293  16.805  1.00  0.00    -0.283 N 
HETATM    6  C16 UNL     1      18.213 -11.773  16.969  1.00  0.00     0.234 C 
HETATM    7  O2  UNL     1      19.248 -11.510  16.277  1.00  0.00    -0.272 OA
HETATM    8  C17 UNL     1      18.241 -12.678  18.125  1.00  0.00     0.127 C 
HETATM    9  C18 UNL     1      18.576 -11.890  19.354  1.00  0.00     0.237 C 
HETATM   10  C19 UNL     1      20.052 -11.918  19.694  1.00  0.00     0.038 C 
HETATM   11  C20 UNL     1      20.218 -12.990  20.720  1.00  0.00     0.032 C 
HETATM   12  C21 UNL     1      18.891 -13.698  20.745  1.00  0.00     0.274 C 
HETATM   13  N4  UNL     1      17.961 -12.642  20.405  1.00  0.00     0.103 N 
ENDROOT
BRANCH   1  14
HETATM   14  C5  UNL     1      15.532 -12.647  20.513  1.00  0.00    -0.024 A 
HETATM   15  C4  UNL     1      14.368 -13.379  20.607  1.00  0.00     0.010 A 
HETATM   16  C3  UNL     1      13.223 -12.945  21.222  1.00  0.00     0.015 A 
HETATM   17  C2  UNL     1      13.212 -11.672  21.803  1.00  0.00     0.004 A 
HETATM   18  C23 UNL     1      14.349 -10.916  21.730  1.00  0.00     0.015 A 
HETATM   19  C22 UNL     1      15.501 -11.401  21.089  1.00  0.00     0.010 A 
BRANCH  17  20
HETATM   20  C1  UNL     1      12.035 -11.168  22.461  1.00  0.00     0.120 C 
HETATM   21  N1  UNL     1      11.907  -9.759  22.670  1.00  0.00    -0.082 NA
HETATM   22  N2  UNL     1      11.101 -11.926  22.865  1.00  0.00    -0.387 N 
ATOM     23  H22 UNL     1      10.268 -11.568  23.331  1.00  0.00     0.157 HD
ATOM     24  H21 UNL     1      11.193 -12.931  22.716  1.00  0.00     0.157 HD
ENDBRANCH  17  20
ENDBRANCH   1  14
BRANCH   5  25
HETATM   25  C9  UNL     1      16.480 -10.376  15.794  1.00  0.00     0.173 C 
BRANCH  25  26
HETATM   26  C10 UNL     1      16.036 -11.012  14.548  1.00  0.00    -0.040 A 
HETATM   27  C11 UNL     1      16.671 -12.027  13.896  1.00  0.00     0.012 A 
HETATM   28  C12 UNL     1      16.206 -12.580  12.736  1.00  0.00     0.043 A 
HETATM   29  C13 UNL     1      15.040 -12.104  12.176  1.00  0.00     0.116 A 
HETATM   30  F1  UNL     1      14.561 -12.645  11.015  1.00  0.00    -0.206 F 
HETATM   31  C14 UNL     1      14.370 -11.078  12.806  1.00  0.00     0.043 A 
HETATM   32  C15 UNL     1      14.860 -10.539  13.976  1.00  0.00     0.012 A 
ENDBRANCH  25  26
ENDBRANCH   5  25
TORSDOF 4
ENDMDL
