MODEL 5
REMARK VINA RESULT: -8.864382846      3.514      7.453
REMARK  4 active torsions:
REMARK  status: ('A' for Active; 'I' for Inactive)
REMARK    1  A    between atoms: C1_2  and  C2_6 
REMARK    2  A    between atoms: C5_9  and  C6_10 
REMARK    3  A    between atoms: N3_14  and  C9_15 
REMARK    4  A    between atoms: C9_15  and  C10_16 
ROOT
HETATM    1  C6  UNL     1      16.004 -11.037  20.076  1.00  0.00     0.270 C 
HETATM    2  C7  UNL     1      17.256 -11.547  20.682  1.00  0.00     0.131 C 
HETATM    3  C8  UNL     1      17.122 -12.565  21.713  1.00  0.00     0.234 C 
HETATM    4  O1  UNL     1      16.293 -12.571  22.653  1.00  0.00    -0.272 OA
HETATM    5  N3  UNL     1      18.090 -13.571  21.492  1.00  0.00    -0.283 N 
HETATM    6  C16 UNL     1      18.587 -13.435  20.170  1.00  0.00     0.234 C 
HETATM    7  O2  UNL     1      19.476 -14.125  19.579  1.00  0.00    -0.272 OA
HETATM    8  C17 UNL     1      17.892 -12.314  19.525  1.00  0.00     0.127 C 
HETATM    9  C18 UNL     1      16.681 -12.836  18.812  1.00  0.00     0.237 C 
HETATM   10  C19 UNL     1      16.930 -13.118  17.346  1.00  0.00     0.038 C 
HETATM   11  C20 UNL     1      16.454 -11.910  16.607  1.00  0.00     0.032 C 
HETATM   12  C21 UNL     1      16.186 -10.892  17.681  1.00  0.00     0.274 C 
HETATM   13  N4  UNL     1      15.793 -11.713  18.807  1.00  0.00     0.103 N 
ENDROOT
BRANCH   1  14
HETATM   14  C5  UNL     1      14.820 -11.037  20.930  1.00  0.00    -0.024 A 
HETATM   15  C4  UNL     1      14.429  -9.925  21.644  1.00  0.00     0.010 A 
HETATM   16  C3  UNL     1      13.327  -9.870  22.457  1.00  0.00     0.015 A 
HETATM   17  C2  UNL     1      12.528 -11.012  22.587  1.00  0.00     0.004 A 
HETATM   18  C23 UNL     1      12.885 -12.135  21.893  1.00  0.00     0.015 A 
HETATM   19  C22 UNL     1      14.023 -12.147  21.070  1.00  0.00     0.010 A 
BRANCH  17  20
HETATM   20  C1  UNL     1      11.360 -11.008  23.428  1.00  0.00     0.120 C 
HETATM   21  N1  UNL     1      11.064  -9.839  24.196  1.00  0.00    -0.082 NA
HETATM   22  N2  UNL     1      10.579 -12.003  23.517  1.00  0.00    -0.387 N 
ATOM     23  H22 UNL     1       9.752 -12.000  24.113  1.00  0.00     0.157 HD
ATOM     24  H21 UNL     1      10.791 -12.837  22.969  1.00  0.00     0.157 HD
ENDBRANCH  17  20
ENDBRANCH   1  14
BRANCH   5  25
HETATM   25  C9  UNL     1      18.516 -14.566  22.418  1.00  0.00     0.173 C 
BRANCH  25  26
HETATM   26  C10 UNL     1      19.648 -14.160  23.258  1.00  0.00    -0.040 A 
HETATM   27  C11 UNL     1      20.955 -14.108  22.872  1.00  0.00     0.012 A 
HETATM   28  C12 UNL     1      21.968 -13.720  23.703  1.00  0.00     0.043 A 
HETATM   29  C13 UNL     1      21.681 -13.360  25.002  1.00  0.00     0.116 A 
HETATM   30  F1  UNL     1      22.682 -12.970  25.847  1.00  0.00    -0.206 F 
HETATM   31  C14 UNL     1      20.372 -13.401  25.430  1.00  0.00     0.043 A 
HETATM   32  C15 UNL     1      19.369 -13.795  24.571  1.00  0.00     0.012 A 
ENDBRANCH  25  26
ENDBRANCH   5  25
TORSDOF 4
ENDMDL
