MODEL 6
REMARK VINA RESULT: -8.857137789      4.020      7.291
REMARK  4 active torsions:
REMARK  status: ('A' for Active; 'I' for Inactive)
REMARK    1  A    between atoms: C1_2  and  C2_6 
REMARK    2  A    between atoms: C5_9  and  C6_10 
REMARK    3  A    between atoms: N3_14  and  C9_15 
REMARK    4  A    between atoms: C9_15  and  C10_16 
ROOT
HETATM    1  C6  UNL     1      13.458 -13.686  21.226  1.00  0.00     0.270 C 
HETATM    2  C7  UNL     1      14.871 -13.340  20.943  1.00  0.00     0.131 C 
HETATM    3  C8  UNL     1      15.380 -13.674  19.622  1.00  0.00     0.234 C 
HETATM    4  O1  UNL     1      15.187 -14.742  18.995  1.00  0.00    -0.272 OA
HETATM    5  N3  UNL     1      16.142 -12.588  19.137  1.00  0.00    -0.283 N 
HETATM    6  C16 UNL     1      15.843 -11.443  19.918  1.00  0.00     0.234 C 
HETATM    7  O2  UNL     1      16.320 -10.267  19.826  1.00  0.00    -0.272 OA
HETATM    8  C17 UNL     1      14.837 -11.814  20.921  1.00  0.00     0.127 C 
HETATM    9  C18 UNL     1      13.471 -11.555  20.362  1.00  0.00     0.237 C 
HETATM   10  C19 UNL     1      12.913 -10.204  20.758  1.00  0.00     0.038 C 
HETATM   11  C20 UNL     1      12.035 -10.452  21.941  1.00  0.00     0.032 C 
HETATM   12  C21 UNL     1      12.318 -11.878  22.328  1.00  0.00     0.274 C 
HETATM   13  N4  UNL     1      12.646 -12.493  21.060  1.00  0.00     0.103 N 
ENDROOT
BRANCH   1  14
HETATM   14  C5  UNL     1      12.920 -14.849  20.526  1.00  0.00    -0.024 A 
HETATM   15  C4  UNL     1      13.116 -16.136  20.980  1.00  0.00     0.010 A 
HETATM   16  C3  UNL     1      12.632 -17.260  20.364  1.00  0.00     0.015 A 
HETATM   17  C2  UNL     1      11.884 -17.117  19.190  1.00  0.00     0.004 A 
HETATM   18  C23 UNL     1      11.669 -15.855  18.709  1.00  0.00     0.015 A 
HETATM   19  C22 UNL     1      12.184 -14.729  19.373  1.00  0.00     0.010 A 
BRANCH  17  20
HETATM   20  C1  UNL     1      11.353 -18.265  18.504  1.00  0.00     0.120 C 
HETATM   21  N1  UNL     1      11.645 -19.571  19.010  1.00  0.00    -0.082 NA
HETATM   22  N2  UNL     1      10.634 -18.167  17.464  1.00  0.00    -0.387 N 
ATOM     23  H22 UNL     1      10.258 -18.981  16.978  1.00  0.00     0.157 HD
ATOM     24  H21 UNL     1      10.426 -17.236  17.104  1.00  0.00     0.157 HD
ENDBRANCH  17  20
ENDBRANCH   1  14
BRANCH   5  25
HETATM   25  C9  UNL     1      17.064 -12.607  18.051  1.00  0.00     0.173 C 
BRANCH  25  26
HETATM   26  C10 UNL     1      16.495 -12.171  16.770  1.00  0.00    -0.040 A 
HETATM   27  C11 UNL     1      15.427 -11.339  16.609  1.00  0.00     0.012 A 
HETATM   28  C12 UNL     1      14.943 -10.968  15.386  1.00  0.00     0.043 A 
HETATM   29  C13 UNL     1      15.546 -11.447  14.243  1.00  0.00     0.116 A 
HETATM   30  F1  UNL     1      15.075 -11.087  13.011  1.00  0.00    -0.206 F 
HETATM   31  C14 UNL     1      16.628 -12.291  14.365  1.00  0.00     0.043 A 
HETATM   32  C15 UNL     1      17.098 -12.649  15.611  1.00  0.00     0.012 A 
ENDBRANCH  25  26
ENDBRANCH   5  25
TORSDOF 4
ENDMDL
