MODEL 1
REMARK VINA RESULT: -9.479310908      0.000      0.000
REMARK  4 active torsions:
REMARK  status: ('A' for Active; 'I' for Inactive)
REMARK    1  A    between atoms: C1_2  and  C2_6 
REMARK    2  A    between atoms: C5_9  and  C6_10 
REMARK    3  A    between atoms: N3_14  and  C9_15 
REMARK    4  A    between atoms: C9_15  and  C10_16 
ROOT
HETATM    1  C6  UNL     1      17.570 -11.560  18.361  1.00  0.00     0.270 C 
HETATM    2  C7  UNL     1      16.518 -11.151  19.321  1.00  0.00     0.131 C 
HETATM    3  C8  UNL     1      15.147 -11.499  18.983  1.00  0.00     0.234 C 
HETATM    4  O1  UNL     1      14.604 -11.392  17.858  1.00  0.00    -0.272 OA
HETATM    5  N3  UNL     1      14.500 -11.989  20.140  1.00  0.00    -0.283 N 
HETATM    6  C16 UNL     1      15.487 -12.315  21.104  1.00  0.00     0.234 C 
HETATM    7  O2  UNL     1      15.332 -12.769  22.282  1.00  0.00    -0.272 OA
HETATM    8  C17 UNL     1      16.809 -12.041  20.527  1.00  0.00     0.127 C 
HETATM    9  C18 UNL     1      17.319 -13.284  19.863  1.00  0.00     0.237 C 
HETATM   10  C19 UNL     1      18.225 -14.106  20.755  1.00  0.00     0.038 C 
HETATM   11  C20 UNL     1      19.622 -13.720  20.392  1.00  0.00     0.032 C 
HETATM   12  C21 UNL     1      19.461 -12.524  19.494  1.00  0.00     0.274 C 
HETATM   13  N4  UNL     1      18.192 -12.780  18.847  1.00  0.00     0.103 N 
ENDROOT
BRANCH   1  14
HETATM   14  C5  UNL     1      17.178 -11.635  16.957  1.00  0.00    -0.024 A 
HETATM   15  C4  UNL     1      17.124 -10.520  16.148  1.00  0.00     0.010 A 
HETATM   16  C3  UNL     1      16.766 -10.534  14.826  1.00  0.00     0.015 A 
HETATM   17  C2  UNL     1      16.425 -11.756  14.234  1.00  0.00     0.004 A 
HETATM   18  C23 UNL     1      16.466 -12.884  15.005  1.00  0.00     0.015 A 
HETATM   19  C22 UNL     1      16.840 -12.824  16.358  1.00  0.00     0.010 A 
BRANCH  17  20
HETATM   20  C1  UNL     1      16.041 -11.826  12.848  1.00  0.00     0.120 C 
HETATM   21  N1  UNL     1      16.885 -11.225  11.863  1.00  0.00    -0.082 NA
HETATM   22  N2  UNL     1      14.978 -12.402  12.463  1.00  0.00    -0.387 N 
ATOM     23  H22 UNL     1      14.706 -12.451  11.481  1.00  0.00     0.157 HD
ATOM     24  H21 UNL     1      14.376 -12.830  13.166  1.00  0.00     0.157 HD
ENDBRANCH  17  20
ENDBRANCH   1  14
BRANCH   5  25
HETATM   25  C9  UNL     1      13.097 -12.140  20.336  1.00  0.00     0.173 C 
BRANCH  25  26
HETATM   26  C10 UNL     1      12.572 -11.424  21.504  1.00  0.00    -0.040 A 
HETATM   27  C11 UNL     1      11.898 -11.982  22.550  1.00  0.00     0.012 A 
HETATM   28  C12 UNL     1      11.433 -11.261  23.614  1.00  0.00     0.043 A 
HETATM   29  C13 UNL     1      11.641  -9.899  23.654  1.00  0.00     0.116 A 
HETATM   30  F1  UNL     1      11.183  -9.161  24.710  1.00  0.00    -0.206 F 
HETATM   31  C14 UNL     1      12.318  -9.299  22.615  1.00  0.00     0.043 A 
HETATM   32  C15 UNL     1      12.778 -10.049  21.554  1.00  0.00     0.012 A 
ENDBRANCH  25  26
ENDBRANCH   5  25
TORSDOF 4
ENDMDL
