MODEL 1
REMARK VINA RESULT: -7.711329377      0.000      0.000
REMARK  6 active torsions:
REMARK  status: ('A' for Active; 'I' for Inactive)
REMARK    1  A    between atoms: N4_13  and  C6_14 
REMARK    2  A    between atoms: C7_16  and  C8_17 
REMARK    3  A    between atoms: C8_17  and  O3_18 
REMARK    4  A    between atoms: O3_18  and  P1_19 
REMARK    5  A    between atoms: C9_23  and  O7_24 
REMARK    6  A    between atoms: C10_26  and  O8_27 
ROOT
HETATM    1  C6  UNL     1      71.783  40.367  31.758  1.00  0.00     0.262 C 
HETATM    2  O2  UNL     1      70.833  40.383  32.772  1.00  0.00    -0.353 OA
HETATM    3  C7  UNL     1      69.714  39.778  32.250  1.00  0.00     0.180 C 
HETATM    4  C9  UNL     1      70.164  38.806  31.192  1.00  0.00     0.182 C 
HETATM    5  C10 UNL     1      71.676  38.926  31.287  1.00  0.00     0.198 C 
ENDROOT
BRANCH   1   6
HETATM    6  N4  UNL     1      73.101  40.678  32.257  1.00  0.00    -0.297 N 
HETATM    7  C3  UNL     1      74.124  41.042  31.462  1.00  0.00     0.144 A 
HETATM    8  N2  UNL     1      74.272  41.222  30.133  1.00  0.00    -0.336 N 
HETATM    9  C4  UNL     1      75.269  41.279  32.212  1.00  0.00     0.146 A 
HETATM   10  C2  UNL     1      75.423  41.598  29.570  1.00  0.00     0.185 A 
ATOM     11  H2  UNL     1      73.465  41.065  29.529  1.00  0.00     0.168 HD
HETATM   12  N1  UNL     1      76.519  41.822  30.307  1.00  0.00    -0.318 N 
HETATM   13  C1  UNL     1      76.450  41.665  31.633  1.00  0.00     0.277 A 
ATOM     14  H1  UNL     1      77.392  42.108  29.863  1.00  0.00     0.169 HD
HETATM   15  O1  UNL     1      77.469  41.873  32.322  1.00  0.00    -0.266 OA
HETATM   16  N3  UNL     1      74.881  41.038  33.498  1.00  0.00    -0.345 N 
HETATM   17  C5  UNL     1      73.584  40.680  33.499  1.00  0.00     0.188 A 
ATOM     18  H3  UNL     1      75.477  41.116  34.322  1.00  0.00     0.167 HD
ENDBRANCH   1   6
BRANCH   5  19
HETATM   19  O8  UNL     1      72.304  38.719  30.082  1.00  0.00    -0.388 OA
ATOM     20  H8  UNL     1      71.701  38.449  29.400  1.00  0.00     0.210 HD
ENDBRANCH   5  19
BRANCH   3  21
HETATM   21  C8  UNL     1      69.037  38.976  33.341  1.00  0.00     0.217 C 
BRANCH  21  22
HETATM   22  O3  UNL     1      69.418  39.459  34.566  1.00  0.00    -0.280 OA
BRANCH  22  23
HETATM   23  P1  UNL     1      69.063  38.282  35.706  1.00  0.00     0.422 P 
HETATM   24  O4  UNL     1      68.406  37.541  34.528  1.00  0.00    -0.617 OA
HETATM   25  O5  UNL     1      67.714  38.440  36.591  1.00  0.00    -0.617 OA
HETATM   26  O6  UNL     1      69.966  39.036  36.690  1.00  0.00    -0.617 OA
ENDBRANCH  22  23
ENDBRANCH  21  22
ENDBRANCH   3  21
BRANCH   4  27
HETATM   27  O7  UNL     1      69.820  39.290  29.916  1.00  0.00    -0.390 OA
ATOM     28  H7  UNL     1      70.597  39.604  29.469  1.00  0.00     0.210 HD
ENDBRANCH   4  27
TORSDOF 6
ENDMDL
