MODEL 4
REMARK VINA RESULT: -7.456174550      4.813      6.067
REMARK  6 active torsions:
REMARK  status: ('A' for Active; 'I' for Inactive)
REMARK    1  A    between atoms: N4_13  and  C6_14 
REMARK    2  A    between atoms: C7_16  and  C8_17 
REMARK    3  A    between atoms: C8_17  and  O3_18 
REMARK    4  A    between atoms: O3_18  and  P1_19 
REMARK    5  A    between atoms: C9_23  and  O7_24 
REMARK    6  A    between atoms: C10_26  and  O8_27 
ROOT
HETATM    1  C6  UNL     1      68.993  37.410  32.707  1.00  0.00     0.262 C 
HETATM    2  O2  UNL     1      68.144  37.962  33.659  1.00  0.00    -0.353 OA
HETATM    3  C7  UNL     1      68.765  37.775  34.872  1.00  0.00     0.180 C 
HETATM    4  C9  UNL     1      70.250  37.728  34.631  1.00  0.00     0.182 C 
HETATM    5  C10 UNL     1      70.328  37.997  33.137  1.00  0.00     0.198 C 
ENDROOT
BRANCH   1   6
HETATM    6  N4  UNL     1      68.629  37.812  31.370  1.00  0.00    -0.297 N 
HETATM    7  C3  UNL     1      68.996  37.130  30.269  1.00  0.00     0.144 A 
HETATM    8  N2  UNL     1      69.714  36.010  30.046  1.00  0.00    -0.336 N 
HETATM    9  C4  UNL     1      68.505  37.744  29.124  1.00  0.00     0.146 A 
HETATM   10  C2  UNL     1      69.945  35.522  28.825  1.00  0.00     0.185 A 
ATOM     11  H2  UNL     1      70.100  35.512  30.848  1.00  0.00     0.168 HD
HETATM   12  N1  UNL     1      69.465  36.126  27.730  1.00  0.00    -0.318 N 
HETATM   13  C1  UNL     1      68.742  37.242  27.871  1.00  0.00     0.277 A 
ATOM     14  H1  UNL     1      69.650  35.742  26.803  1.00  0.00     0.169 HD
HETATM   15  O1  UNL     1      68.294  37.808  26.854  1.00  0.00    -0.266 OA
HETATM   16  N3  UNL     1      67.826  38.831  29.594  1.00  0.00    -0.345 N 
HETATM   17  C5  UNL     1      67.915  38.850  30.937  1.00  0.00     0.188 A 
ATOM     18  H3  UNL     1      67.333  39.516  29.022  1.00  0.00     0.167 HD
ENDBRANCH   1   6
BRANCH   5  19
HETATM   19  O8  UNL     1      71.394  37.372  32.537  1.00  0.00    -0.388 OA
ATOM     20  H8  UNL     1      71.912  36.865  33.152  1.00  0.00     0.210 HD
ENDBRANCH   5  19
BRANCH   3  21
HETATM   21  C8  UNL     1      68.488  38.974  35.754  1.00  0.00     0.217 C 
BRANCH  21  22
HETATM   22  O3  UNL     1      67.272  38.818  36.368  1.00  0.00    -0.280 OA
BRANCH  22  23
HETATM   23  P1  UNL     1      66.338  40.156  35.984  1.00  0.00     0.422 P 
HETATM   24  O4  UNL     1      65.147  39.197  36.158  1.00  0.00    -0.617 OA
HETATM   25  O5  UNL     1      66.069  40.493  34.421  1.00  0.00    -0.617 OA
HETATM   26  O6  UNL     1      67.607  41.010  36.096  1.00  0.00    -0.617 OA
ENDBRANCH  22  23
ENDBRANCH  21  22
ENDBRANCH   3  21
BRANCH   4  27
HETATM   27  O7  UNL     1      70.725  36.416  34.809  1.00  0.00    -0.390 OA
ATOM     28  H7  UNL     1      71.081  36.317  35.684  1.00  0.00     0.210 HD
ENDBRANCH   4  27
TORSDOF 6
ENDMDL
