MODEL 3
REMARK VINA RESULT: -7.480233877      4.168      7.191
REMARK  6 active torsions:
REMARK  status: ('A' for Active; 'I' for Inactive)
REMARK    1  A    between atoms: N4_13  and  C6_14 
REMARK    2  A    between atoms: C7_16  and  C8_17 
REMARK    3  A    between atoms: C8_17  and  O3_18 
REMARK    4  A    between atoms: O3_18  and  P1_19 
REMARK    5  A    between atoms: C9_23  and  O7_24 
REMARK    6  A    between atoms: C10_26  and  O8_27 
ROOT
HETATM    1  C6  UNL     1      71.817  39.361  29.393  1.00  0.00     0.262 C 
HETATM    2  O2  UNL     1      72.686  39.641  30.440  1.00  0.00    -0.353 OA
HETATM    3  C7  UNL     1      73.604  40.535  29.940  1.00  0.00     0.180 C 
HETATM    4  C9  UNL     1      72.937  41.314  28.837  1.00  0.00     0.182 C 
HETATM    5  C10 UNL     1      71.522  40.761  28.882  1.00  0.00     0.198 C 
ENDROOT
BRANCH   1   6
HETATM    6  N4  UNL     1      70.625  38.690  29.854  1.00  0.00    -0.297 N 
HETATM    7  C3  UNL     1      70.259  37.465  29.434  1.00  0.00     0.144 A 
HETATM    8  N2  UNL     1      70.780  36.564  28.575  1.00  0.00    -0.336 N 
HETATM    9  C4  UNL     1      69.075  37.070  30.043  1.00  0.00     0.146 A 
HETATM   10  C2  UNL     1      70.211  35.384  28.321  1.00  0.00     0.185 A 
ATOM     11  H2  UNL     1      71.651  36.797  28.097  1.00  0.00     0.168 HD
HETATM   12  N1  UNL     1      69.068  35.017  28.916  1.00  0.00    -0.318 N 
HETATM   13  C1  UNL     1      68.492  35.857  29.782  1.00  0.00     0.277 A 
ATOM     14  H1  UNL     1      68.645  34.112  28.711  1.00  0.00     0.169 HD
HETATM   15  O1  UNL     1      67.427  35.520  30.337  1.00  0.00    -0.266 OA
HETATM   16  N3  UNL     1      68.748  38.122  30.850  1.00  0.00    -0.345 N 
HETATM   17  C5  UNL     1      69.688  39.076  30.720  1.00  0.00     0.188 A 
ATOM     18  H3  UNL     1      67.927  38.175  31.452  1.00  0.00     0.167 HD
ENDBRANCH   1   6
BRANCH   5  19
HETATM   19  O8  UNL     1      70.913  40.754  27.650  1.00  0.00    -0.388 OA
ATOM     20  H8  UNL     1      70.641  41.621  27.374  1.00  0.00     0.210 HD
ENDBRANCH   5  19
BRANCH   3  21
HETATM   21  C8  UNL     1      73.972  41.520  31.030  1.00  0.00     0.217 C 
BRANCH  21  22
HETATM   22  O3  UNL     1      75.229  42.014  30.793  1.00  0.00    -0.280 OA
BRANCH  22  23
HETATM   23  P1  UNL     1      76.293  41.184  31.789  1.00  0.00     0.422 P 
HETATM   24  O4  UNL     1      75.289  41.523  32.905  1.00  0.00    -0.617 OA
HETATM   25  O5  UNL     1      77.547  41.990  32.427  1.00  0.00    -0.617 OA
HETATM   26  O6  UNL     1      77.041  40.734  30.529  1.00  0.00    -0.617 OA
ENDBRANCH  22  23
ENDBRANCH  21  22
ENDBRANCH   3  21
BRANCH   4  27
HETATM   27  O7  UNL     1      73.461  40.927  27.590  1.00  0.00    -0.390 OA
ATOM     28  H7  UNL     1      72.768  40.897  26.942  1.00  0.00     0.210 HD
ENDBRANCH   4  27
TORSDOF 6
ENDMDL
