MODEL 2
REMARK VINA RESULT: -7.601020507      3.002      5.078
REMARK  6 active torsions:
REMARK  status: ('A' for Active; 'I' for Inactive)
REMARK    1  A    between atoms: N4_13  and  C6_14 
REMARK    2  A    between atoms: C7_16  and  C8_17 
REMARK    3  A    between atoms: C8_17  and  O3_18 
REMARK    4  A    between atoms: O3_18  and  P1_19 
REMARK    5  A    between atoms: C9_23  and  O7_24 
REMARK    6  A    between atoms: C10_26  and  O8_27 
ROOT
HETATM    1  C6  UNL     1      71.972  39.702  30.888  1.00  0.00     0.262 C 
HETATM    2  O2  UNL     1      71.773  38.560  31.654  1.00  0.00    -0.353 OA
HETATM    3  C7  UNL     1      71.686  38.990  32.957  1.00  0.00     0.180 C 
HETATM    4  C9  UNL     1      71.161  40.401  32.946  1.00  0.00     0.182 C 
HETATM    5  C10 UNL     1      70.909  40.624  31.464  1.00  0.00     0.198 C 
ENDROOT
BRANCH   1   6
HETATM    6  N4  UNL     1      71.764  39.446  29.484  1.00  0.00    -0.297 N 
HETATM    7  C3  UNL     1      70.926  38.500  29.023  1.00  0.00     0.144 A 
HETATM    8  N2  UNL     1      70.108  37.596  29.603  1.00  0.00    -0.336 N 
HETATM    9  C4  UNL     1      70.926  38.477  27.634  1.00  0.00     0.146 A 
HETATM   10  C2  UNL     1      69.355  36.741  28.907  1.00  0.00     0.185 A 
ATOM     11  H2  UNL     1      70.063  37.565  30.621  1.00  0.00     0.168 HD
HETATM   12  N1  UNL     1      69.366  36.731  27.568  1.00  0.00    -0.318 N 
HETATM   13  C1  UNL     1      70.151  37.599  26.921  1.00  0.00     0.277 A 
ATOM     14  H1  UNL     1      68.785  36.071  27.050  1.00  0.00     0.169 HD
HETATM   15  O1  UNL     1      70.164  37.592  25.674  1.00  0.00    -0.266 OA
HETATM   16  N3  UNL     1      71.808  39.458  27.285  1.00  0.00    -0.345 N 
HETATM   17  C5  UNL     1      72.295  40.021  28.405  1.00  0.00     0.188 A 
ATOM     18  H3  UNL     1      72.057  39.720  26.331  1.00  0.00     0.167 HD
ENDBRANCH   1   6
BRANCH   5  19
HETATM   19  O8  UNL     1      71.086  41.932  31.084  1.00  0.00    -0.388 OA
ATOM     20  H8  UNL     1      70.741  42.108  30.216  1.00  0.00     0.210 HD
ENDBRANCH   5  19
BRANCH   3  21
HETATM   21  C8  UNL     1      70.671  38.136  33.688  1.00  0.00     0.217 C 
BRANCH  21  22
HETATM   22  O3  UNL     1      70.131  38.854  34.723  1.00  0.00    -0.280 OA
BRANCH  22  23
HETATM   23  P1  UNL     1      69.276  37.784  35.689  1.00  0.00     0.422 P 
HETATM   24  O4  UNL     1      68.277  37.747  34.519  1.00  0.00    -0.617 OA
HETATM   25  O5  UNL     1      68.243  38.383  36.786  1.00  0.00    -0.617 OA
HETATM   26  O6  UNL     1      70.483  37.753  36.635  1.00  0.00    -0.617 OA
ENDBRANCH  22  23
ENDBRANCH  21  22
ENDBRANCH   3  21
BRANCH   4  27
HETATM   27  O7  UNL     1      72.186  41.297  33.300  1.00  0.00    -0.390 OA
ATOM     28  H7  UNL     1      71.829  42.011  33.815  1.00  0.00     0.210 HD
ENDBRANCH   4  27
TORSDOF 6
ENDMDL
