MODEL 2
REMARK VINA RESULT: -7.528861732      0.597      1.309
REMARK  4 active torsions:
REMARK  status: ('A' for Active; 'I' for Inactive)
REMARK    1  A    between atoms: C2_2  and  C4_4 
REMARK    2  A    between atoms: C6_9  and  C7_10 
REMARK    3  A    between atoms: C8_13  and  C9_14 
REMARK    4  A    between atoms: C9_14  and  C10_15 
ROOT
HETATM    1  C4  UNL     1      16.263   3.258  15.722  1.00  0.00     0.046 C 
HETATM    2  C5  UNL     1      14.932   3.920  15.574  1.00  0.00     0.242 C 
HETATM    3  N1  UNL     1      13.924   3.058  16.108  1.00  0.00    -0.060 N 
ATOM      4  H11 UNL     1      13.160   2.886  15.455  1.00  0.00     0.278 HD
ATOM      5  H12 UNL     1      13.373   3.498  16.845  1.00  0.00     0.278 HD
HETATM    6  C6  UNL     1      14.573   1.864  16.535  1.00  0.00     0.291 C 
HETATM    7  C8  UNL     1      15.827   1.793  15.684  1.00  0.00     0.046 C 
ENDROOT
BRANCH   7   8
HETATM    8  C9  UNL     1      15.438   1.373  14.305  1.00  0.00     0.121 C 
BRANCH   8   9
HETATM    9  C10 UNL     1      16.395   0.375  13.770  1.00  0.00     0.172 C 
HETATM   10  O3  UNL     1      16.952   0.614  12.673  1.00  0.00    -0.648 OA
HETATM   11  O4  UNL     1      16.692  -0.799  14.436  1.00  0.00    -0.648 OA
ENDBRANCH   8   9
ENDBRANCH   7   8
BRANCH   1  12
HETATM   12  C2  UNL     1      17.267   3.607  14.721  1.00  0.00    -0.087 C 
HETATM   13  C1  UNL     1      16.969   4.275  13.638  1.00  0.00     0.014 C 
HETATM   14  C3  UNL     1      18.696   3.181  14.920  1.00  0.00     0.043 C 
ENDBRANCH   1  12
BRANCH   6  15
HETATM   15  C7  UNL     1      14.897   1.968  17.976  1.00  0.00     0.205 C 
HETATM   16  O1  UNL     1      16.003   1.564  18.430  1.00  0.00    -0.646 OA
HETATM   17  O2  UNL     1      13.982   2.513  18.835  1.00  0.00    -0.646 OA
ENDBRANCH   6  15
TORSDOF 4
ENDMDL
