MODEL 1
REMARK VINA RESULT: -8.561786207      0.000      0.000
REMARK  4 active torsions:
REMARK  status: ('A' for Active; 'I' for Inactive)
REMARK    1  A    between atoms: C2_2  and  C4_4 
REMARK    2  A    between atoms: C6_9  and  C7_10 
REMARK    3  A    between atoms: C8_13  and  C9_14 
REMARK    4  A    between atoms: C9_14  and  C10_15 
ROOT
HETATM    1  C4  UNL     1      16.233   3.209  16.062  1.00  0.00     0.046 C 
HETATM    2  C5  UNL     1      14.924   3.905  15.883  1.00  0.00     0.242 C 
HETATM    3  N1  UNL     1      13.867   2.976  16.133  1.00  0.00    -0.060 N 
ATOM      4  H11 UNL     1      13.185   2.934  15.376  1.00  0.00     0.278 HD
ATOM      5  H12 UNL     1      13.230   3.284  16.868  1.00  0.00     0.278 HD
HETATM    6  C6  UNL     1      14.470   1.715  16.409  1.00  0.00     0.291 C 
HETATM    7  C8  UNL     1      15.815   1.780  15.711  1.00  0.00     0.046 C 
ENDROOT
BRANCH   7   8
HETATM    8  C9  UNL     1      15.592   1.620  14.243  1.00  0.00     0.121 C 
BRANCH   8   9
HETATM    9  C10 UNL     1      15.968   0.257  13.799  1.00  0.00     0.172 C 
HETATM   10  O3  UNL     1      15.555  -0.720  14.466  1.00  0.00    -0.648 OA
HETATM   11  O4  UNL     1      16.751   0.030  12.683  1.00  0.00    -0.648 OA
ENDBRANCH   8   9
ENDBRANCH   7   8
BRANCH   1  12
HETATM   12  C2  UNL     1      17.344   3.718  15.262  1.00  0.00    -0.087 C 
HETATM   13  C1  UNL     1      18.559   3.251  15.379  1.00  0.00     0.014 C 
HETATM   14  C3  UNL     1      17.102   4.826  14.274  1.00  0.00     0.043 C 
ENDBRANCH   1  12
BRANCH   6  15
HETATM   15  C7  UNL     1      14.624   1.554  17.873  1.00  0.00     0.205 C 
HETATM   16  O1  UNL     1      15.250   0.574  18.364  1.00  0.00    -0.646 OA
HETATM   17  O2  UNL     1      14.078   2.485  18.714  1.00  0.00    -0.646 OA
ENDBRANCH   6  15
TORSDOF 4
ENDMDL
