MODEL 2
REMARK VINA RESULT: -7.544352792      1.510      5.071
REMARK  4 active torsions:
REMARK  status: ('A' for Active; 'I' for Inactive)
REMARK    1  A    between atoms: N1_1  and  C1_5 
REMARK    2  A    between atoms: C1_5  and  C2_6 
REMARK    3  A    between atoms: C1_5  and  C5_15 
REMARK    4  A    between atoms: C2_6  and  N2_7 
ROOT
HETATM    1  C2  UNL     1      17.102   2.065  14.238  1.00  0.00     0.205 C 
ENDROOT
BRANCH   1   2
HETATM    2  C1  UNL     1      16.681   1.459  12.936  1.00  0.00     0.303 C 
BRANCH   2   3
HETATM    3  N1  UNL     1      17.456   0.336  12.525  1.00  0.00    -0.064 N 
ATOM      4  H13 UNL     1      18.257   0.211  13.145  1.00  0.00     0.275 HD
ATOM      5  H12 UNL     1      16.952  -0.531  12.714  1.00  0.00     0.275 HD
ATOM      6  H11 UNL     1      17.761   0.362  11.552  1.00  0.00     0.275 HD
ENDBRANCH   2   3
BRANCH   2   7
HETATM    7  C5  UNL     1      16.769   2.511  11.895  1.00  0.00     0.206 C 
HETATM    8  O4  UNL     1      15.733   2.960  11.366  1.00  0.00    -0.646 OA
HETATM    9  O5  UNL     1      18.021   3.001  11.506  1.00  0.00    -0.646 OA
ENDBRANCH   2   7
ENDBRANCH   1   2
BRANCH   1  10
HETATM   10  N2  UNL     1      16.240   1.761  15.338  1.00  0.00    -0.194 N 
HETATM   11  O1  UNL     1      15.473   2.568  15.999  1.00  0.00    -0.174 OA
HETATM   12  C3  UNL     1      14.828   1.900  16.952  1.00  0.00     0.391 A 
HETATM   13  O2  UNL     1      14.003   2.355  17.785  1.00  0.00    -0.236 OA
HETATM   14  N3  UNL     1      15.212   0.631  16.878  1.00  0.00    -0.251 N 
HETATM   15  C4  UNL     1      16.098   0.534  15.867  1.00  0.00     0.351 A 
ATOM     16  H3  UNL     1      14.894  -0.131  17.476  1.00  0.00     0.176 HD
HETATM   17  O3  UNL     1      16.645  -0.552  15.545  1.00  0.00    -0.244 OA
ENDBRANCH   1  10
TORSDOF 4
ENDMDL
