MODEL 6
REMARK VINA RESULT: -7.090994499      1.781      4.746
REMARK  4 active torsions:
REMARK  status: ('A' for Active; 'I' for Inactive)
REMARK    1  A    between atoms: N1_1  and  C1_5 
REMARK    2  A    between atoms: C1_5  and  C2_6 
REMARK    3  A    between atoms: C1_5  and  C5_15 
REMARK    4  A    between atoms: C2_6  and  N2_7 
ROOT
HETATM    1  C2  UNL     1      17.127   3.153  14.152  1.00  0.00     0.205 C 
ENDROOT
BRANCH   1   2
HETATM    2  C1  UNL     1      17.387   2.294  12.954  1.00  0.00     0.303 C 
BRANCH   2   3
HETATM    3  N1  UNL     1      18.089   2.944  11.897  1.00  0.00    -0.064 N 
ATOM      4  H13 UNL     1      18.332   3.897  12.167  1.00  0.00     0.275 HD
ATOM      5  H12 UNL     1      19.022   2.546  11.795  1.00  0.00     0.275 HD
ATOM      6  H11 UNL     1      17.604   2.943  11.000  1.00  0.00     0.275 HD
ENDBRANCH   2   3
BRANCH   2   7
HETATM    7  C5  UNL     1      16.079   1.819  12.442  1.00  0.00     0.206 C 
HETATM    8  O4  UNL     1      15.316   2.603  11.842  1.00  0.00    -0.646 OA
HETATM    9  O5  UNL     1      15.700   0.486  12.634  1.00  0.00    -0.646 OA
ENDBRANCH   2   7
ENDBRANCH   1   2
BRANCH   1  10
HETATM   10  N2  UNL     1      16.537   2.464  15.257  1.00  0.00    -0.194 N 
HETATM   11  O1  UNL     1      15.346   2.606  15.744  1.00  0.00    -0.174 OA
HETATM   12  C3  UNL     1      15.179   1.780  16.775  1.00  0.00     0.391 A 
HETATM   13  O2  UNL     1      14.152   1.644  17.489  1.00  0.00    -0.236 OA
HETATM   14  N3  UNL     1      16.309   1.103  16.931  1.00  0.00    -0.251 N 
HETATM   15  C4  UNL     1      17.169   1.524  15.983  1.00  0.00     0.351 A 
ATOM     16  H3  UNL     1      16.494   0.393  17.640  1.00  0.00     0.176 HD
HETATM   17  O3  UNL     1      18.334   1.066  15.870  1.00  0.00    -0.244 OA
ENDBRANCH   1  10
TORSDOF 4
ENDMDL
