MODEL 19
REMARK VINA RESULT: -6.229946160      1.610      2.023
REMARK  4 active torsions:
REMARK  status: ('A' for Active; 'I' for Inactive)
REMARK    1  A    between atoms: N1_1  and  C1_5 
REMARK    2  A    between atoms: C1_5  and  C2_6 
REMARK    3  A    between atoms: C1_5  and  C5_15 
REMARK    4  A    between atoms: C2_6  and  N2_7 
ROOT
HETATM    1  C2  UNL     1      16.531   2.005  15.742  1.00  0.00     0.205 C 
ENDROOT
BRANCH   1   2
HETATM    2  C1  UNL     1      15.158   1.833  16.311  1.00  0.00     0.303 C 
BRANCH   2   3
HETATM    3  N1  UNL     1      14.391   3.032  16.386  1.00  0.00    -0.064 N 
ATOM      4  H13 UNL     1      14.319   3.465  15.464  1.00  0.00     0.275 HD
ATOM      5  H12 UNL     1      13.409   2.814  16.554  1.00  0.00     0.275 HD
ATOM      6  H11 UNL     1      14.725   3.710  17.070  1.00  0.00     0.275 HD
ENDBRANCH   2   3
BRANCH   2   7
HETATM    7  C5  UNL     1      15.297   1.266  17.674  1.00  0.00     0.206 C 
HETATM    8  O4  UNL     1      14.295   1.129  18.403  1.00  0.00    -0.646 OA
HETATM    9  O5  UNL     1      16.559   0.883  18.141  1.00  0.00    -0.646 OA
ENDBRANCH   2   7
ENDBRANCH   1   2
BRANCH   1  10
HETATM   10  N2  UNL     1      16.557   2.412  14.371  1.00  0.00    -0.194 N 
HETATM   11  O1  UNL     1      15.655   2.219  13.463  1.00  0.00    -0.174 OA
HETATM   12  C3  UNL     1      16.053   2.751  12.311  1.00  0.00     0.391 A 
HETATM   13  O2  UNL     1      15.437   2.756  11.214  1.00  0.00    -0.236 OA
HETATM   14  N3  UNL     1      17.248   3.294  12.513  1.00  0.00    -0.251 N 
HETATM   15  C4  UNL     1      17.573   3.086  13.805  1.00  0.00     0.351 A 
ATOM     16  H3  UNL     1      17.816   3.779  11.819  1.00  0.00     0.176 HD
HETATM   17  O3  UNL     1      18.654   3.487  14.306  1.00  0.00    -0.244 OA
ENDBRANCH   1  10
TORSDOF 4
ENDMDL
