MODEL 13
REMARK VINA RESULT: -6.642537400      1.452      1.708
REMARK  4 active torsions:
REMARK  status: ('A' for Active; 'I' for Inactive)
REMARK    1  A    between atoms: N1_1  and  C1_5 
REMARK    2  A    between atoms: C1_5  and  C2_6 
REMARK    3  A    between atoms: C1_5  and  C5_15 
REMARK    4  A    between atoms: C2_6  and  N2_7 
ROOT
HETATM    1  C2  UNL     1      16.908   1.714  15.699  1.00  0.00     0.205 C 
ENDROOT
BRANCH   1   2
HETATM    2  C1  UNL     1      16.140   0.647  16.416  1.00  0.00     0.303 C 
BRANCH   2   3
HETATM    3  N1  UNL     1      15.354  -0.189  15.571  1.00  0.00    -0.064 N 
ATOM      4  H13 UNL     1      14.492   0.287  15.304  1.00  0.00     0.275 HD
ATOM      5  H12 UNL     1      15.794  -0.281  14.655  1.00  0.00     0.275 HD
ATOM      6  H11 UNL     1      15.146  -1.109  15.958  1.00  0.00     0.275 HD
ENDBRANCH   2   3
BRANCH   2   7
HETATM    7  C5  UNL     1      15.251   1.310  17.399  1.00  0.00     0.206 C 
HETATM    8  O4  UNL     1      14.591   2.317  17.072  1.00  0.00    -0.646 OA
HETATM    9  O5  UNL     1      15.151   0.802  18.699  1.00  0.00    -0.646 OA
ENDBRANCH   2   7
ENDBRANCH   1   2
BRANCH   1  10
HETATM   10  N2  UNL     1      16.690   1.752  14.287  1.00  0.00    -0.194 N 
HETATM   11  O1  UNL     1      15.949   2.575  13.615  1.00  0.00    -0.174 OA
HETATM   12  C3  UNL     1      16.009   2.281  12.318  1.00  0.00     0.391 A 
HETATM   13  O2  UNL     1      15.421   2.864  11.371  1.00  0.00    -0.236 OA
HETATM   14  N3  UNL     1      16.818   1.237  12.183  1.00  0.00    -0.251 N 
HETATM   15  C4  UNL     1      17.250   0.898  13.414  1.00  0.00     0.351 A 
ATOM     16  H3  UNL     1      17.066   0.775  11.309  1.00  0.00     0.176 HD
HETATM   17  O3  UNL     1      18.038  -0.062  13.617  1.00  0.00    -0.244 OA
ENDBRANCH   1  10
TORSDOF 4
ENDMDL
