MODEL 4
REMARK VINA RESULT: -7.176237776      1.740      4.912
REMARK  4 active torsions:
REMARK  status: ('A' for Active; 'I' for Inactive)
REMARK    1  A    between atoms: N1_1  and  C1_5 
REMARK    2  A    between atoms: C1_5  and  C2_6 
REMARK    3  A    between atoms: C1_5  and  C5_15 
REMARK    4  A    between atoms: C2_6  and  N2_7 
ROOT
HETATM    1  C2  UNL     1      17.332   2.295  14.487  1.00  0.00     0.205 C 
ENDROOT
BRANCH   1   2
HETATM    2  C1  UNL     1      16.726   2.743  13.194  1.00  0.00     0.303 C 
BRANCH   2   3
HETATM    3  N1  UNL     1      15.378   2.326  12.993  1.00  0.00    -0.064 N 
ATOM      4  H13 UNL     1      15.199   1.454  13.491  1.00  0.00     0.275 HD
ATOM      5  H12 UNL     1      14.738   2.946  13.488  1.00  0.00     0.275 HD
ATOM      6  H11 UNL     1      15.101   2.239  12.015  1.00  0.00     0.275 HD
ENDBRANCH   2   3
BRANCH   2   7
HETATM    7  C5  UNL     1      17.563   2.213  12.091  1.00  0.00     0.206 C 
HETATM    8  O4  UNL     1      18.098   2.993  11.277  1.00  0.00    -0.646 OA
HETATM    9  O5  UNL     1      17.754   0.833  11.965  1.00  0.00    -0.646 OA
ENDBRANCH   2   7
ENDBRANCH   1   2
BRANCH   1  10
HETATM   10  N2  UNL     1      16.384   1.871  15.469  1.00  0.00    -0.194 N 
HETATM   11  O1  UNL     1      15.559   2.600  16.151  1.00  0.00    -0.174 OA
HETATM   12  C3  UNL     1      14.842   1.829  16.965  1.00  0.00     0.391 A 
HETATM   13  O2  UNL     1      13.948   2.189  17.773  1.00  0.00    -0.236 OA
HETATM   14  N3  UNL     1      15.239   0.575  16.779  1.00  0.00    -0.251 N 
HETATM   15  C4  UNL     1      16.206   0.591  15.842  1.00  0.00     0.351 A 
ATOM     16  H3  UNL     1      14.877  -0.249  17.259  1.00  0.00     0.176 HD
HETATM   17  O3  UNL     1      16.786  -0.452  15.445  1.00  0.00    -0.244 OA
ENDBRANCH   1  10
TORSDOF 4
ENDMDL
