MODEL 5
REMARK VINA RESULT: -7.157211327      1.285      1.781
REMARK  4 active torsions:
REMARK  status: ('A' for Active; 'I' for Inactive)
REMARK    1  A    between atoms: N1_1  and  C1_5 
REMARK    2  A    between atoms: C1_5  and  C2_6 
REMARK    3  A    between atoms: C1_5  and  C5_15 
REMARK    4  A    between atoms: C2_6  and  N2_7 
ROOT
HETATM    1  C2  UNL     1      16.511   1.458  16.517  1.00  0.00     0.205 C 
ENDROOT
BRANCH   1   2
HETATM    2  C1  UNL     1      15.044   1.608  16.770  1.00  0.00     0.303 C 
BRANCH   2   3
HETATM    3  N1  UNL     1      14.513   2.891  16.450  1.00  0.00    -0.064 N 
ATOM      4  H13 UNL     1      14.631   3.085  15.455  1.00  0.00     0.275 HD
ATOM      5  H12 UNL     1      13.494   2.876  16.505  1.00  0.00     0.275 HD
ATOM      6  H11 UNL     1      14.887   3.658  17.007  1.00  0.00     0.275 HD
ENDBRANCH   2   3
BRANCH   2   7
HETATM    7  C5  UNL     1      14.800   1.331  18.206  1.00  0.00     0.206 C 
HETATM    8  O4  UNL     1      15.494   0.490  18.811  1.00  0.00    -0.646 OA
HETATM    9  O5  UNL     1      13.786   2.018  18.884  1.00  0.00    -0.646 OA
ENDBRANCH   2   7
ENDBRANCH   1   2
BRANCH   1  10
HETATM   10  N2  UNL     1      16.862   1.323  15.137  1.00  0.00    -0.194 N 
HETATM   11  O1  UNL     1      17.040   0.233  14.461  1.00  0.00    -0.174 OA
HETATM   12  C3  UNL     1      17.358   0.529  13.203  1.00  0.00     0.391 A 
HETATM   13  O2  UNL     1      17.601  -0.273  12.265  1.00  0.00    -0.236 OA
HETATM   14  N3  UNL     1      17.378   1.852  13.097  1.00  0.00    -0.251 N 
HETATM   15  C4  UNL     1      17.068   2.360  14.306  1.00  0.00     0.351 A 
ATOM     16  H3  UNL     1      17.590   2.386  12.255  1.00  0.00     0.176 HD
HETATM   17  O3  UNL     1      17.005   3.596  14.529  1.00  0.00    -0.244 OA
ENDBRANCH   1  10
TORSDOF 4
ENDMDL
