MODEL 1
REMARK VINA RESULT: -7.624291720      0.000      0.000
REMARK  4 active torsions:
REMARK  status: ('A' for Active; 'I' for Inactive)
REMARK    1  A    between atoms: N1_1  and  C1_5 
REMARK    2  A    between atoms: C1_5  and  C2_6 
REMARK    3  A    between atoms: C1_5  and  C5_15 
REMARK    4  A    between atoms: C2_6  and  N2_7 
ROOT
HETATM    1  C2  UNL     1      16.142   1.595  16.526  1.00  0.00     0.205 C 
ENDROOT
BRANCH   1   2
HETATM    2  C1  UNL     1      14.722   1.568  16.999  1.00  0.00     0.303 C 
BRANCH   2   3
HETATM    3  N1  UNL     1      13.987   2.762  16.744  1.00  0.00    -0.064 N 
ATOM      4  H13 UNL     1      14.390   3.544  17.262  1.00  0.00     0.275 HD
ATOM      5  H12 UNL     1      14.151   3.082  15.789  1.00  0.00     0.275 HD
ATOM      6  H11 UNL     1      12.987   2.694  16.927  1.00  0.00     0.275 HD
ENDBRANCH   2   3
BRANCH   2   7
HETATM    7  C5  UNL     1      14.734   1.313  18.459  1.00  0.00     0.206 C 
HETATM    8  O4  UNL     1      15.511   0.466  18.943  1.00  0.00    -0.646 OA
HETATM    9  O5  UNL     1      13.869   2.026  19.296  1.00  0.00    -0.646 OA
ENDBRANCH   2   7
ENDBRANCH   1   2
BRANCH   1  10
HETATM   10  N2  UNL     1      16.298   1.426  15.114  1.00  0.00    -0.194 N 
HETATM   11  O1  UNL     1      15.814   2.159  14.163  1.00  0.00    -0.174 OA
HETATM   12  C3  UNL     1      16.187   1.670  12.983  1.00  0.00     0.391 A 
HETATM   13  O2  UNL     1      15.904   2.120  11.842  1.00  0.00    -0.236 OA
HETATM   14  N3  UNL     1      16.929   0.594  13.213  1.00  0.00    -0.251 N 
HETATM   15  C4  UNL     1      17.006   0.433  14.548  1.00  0.00     0.351 A 
ATOM     16  H3  UNL     1      17.363  -0.001  12.508  1.00  0.00     0.176 HD
HETATM   17  O3  UNL     1      17.647  -0.507  15.084  1.00  0.00    -0.244 OA
ENDBRANCH   1  10
TORSDOF 4
ENDMDL
