MODEL 11
REMARK VINA RESULT: -6.722262039      1.534      2.603
REMARK  4 active torsions:
REMARK  status: ('A' for Active; 'I' for Inactive)
REMARK    1  A    between atoms: C4_8  and  C5_9 
REMARK    2  A    between atoms: C5_9  and  C6_10 
REMARK    3  A    between atoms: C6_10  and  N2_11 
REMARK    4  A    between atoms: C6_10  and  C7_15 
ROOT
HETATM    1  C5  UNL     1      45.078  26.398  41.876  1.00  0.00     0.091 C 
ENDROOT
BRANCH   1   2
HETATM    2  C4  UNL     1      45.437  26.061  40.489  1.00  0.00     0.045 A 
HETATM    3  C2  UNL     1      46.160  24.970  40.059  1.00  0.00     0.084 A 
HETATM    4  C1  UNL     1      46.744  23.874  40.906  1.00  0.00     0.079 C 
HETATM    5  O1  UNL     1      46.233  25.083  38.755  1.00  0.00    -0.239 OA
HETATM    6  N1  UNL     1      45.625  26.144  38.318  1.00  0.00    -0.225 N 
HETATM    7  C3  UNL     1      45.110  26.789  39.371  1.00  0.00     0.274 A 
ATOM      8  H1  UNL     1      45.552  26.434  37.343  1.00  0.00     0.198 HD
HETATM    9  O2  UNL     1      44.451  27.870  39.289  1.00  0.00    -0.266 OA
ENDBRANCH   1   2
BRANCH   1  10
HETATM   10  C6  UNL     1      45.884  27.522  42.463  1.00  0.00     0.287 C 
BRANCH  10  11
HETATM   11  N2  UNL     1      46.764  28.144  41.501  1.00  0.00    -0.065 N 
ATOM     12  H23 UNL     1      47.098  27.464  40.818  1.00  0.00     0.275 HD
ATOM     13  H22 UNL     1      46.245  28.764  40.879  1.00  0.00     0.275 HD
ATOM     14  H21 UNL     1      47.545  28.636  41.938  1.00  0.00     0.275 HD
ENDBRANCH  10  11
BRANCH  10  15
HETATM   15  C7  UNL     1      46.693  26.939  43.569  1.00  0.00     0.204 C 
HETATM   16  O3  UNL     1      46.371  27.195  44.758  1.00  0.00    -0.646 OA
HETATM   17  O4  UNL     1      47.793  26.120  43.378  1.00  0.00    -0.646 OA
ENDBRANCH  10  15
ENDBRANCH   1  10
TORSDOF 4
ENDMDL
