MODEL 3
REMARK VINA RESULT: -7.349122250      1.908      5.040
REMARK  4 active torsions:
REMARK  status: ('A' for Active; 'I' for Inactive)
REMARK    1  A    between atoms: C4_8  and  C5_9 
REMARK    2  A    between atoms: C5_9  and  C6_10 
REMARK    3  A    between atoms: C6_10  and  N2_11 
REMARK    4  A    between atoms: C6_10  and  C7_15 
ROOT
HETATM    1  C5  UNL     1      44.658  26.437  40.542  1.00  0.00     0.091 C 
ENDROOT
BRANCH   1   2
HETATM    2  C4  UNL     1      45.795  26.332  41.470  1.00  0.00     0.045 A 
HETATM    3  C2  UNL     1      46.605  25.236  41.674  1.00  0.00     0.084 A 
HETATM    4  C1  UNL     1      46.511  23.898  40.994  1.00  0.00     0.079 C 
HETATM    5  O1  UNL     1      47.475  25.600  42.584  1.00  0.00    -0.239 OA
HETATM    6  N1  UNL     1      47.294  26.824  42.976  1.00  0.00    -0.225 N 
HETATM    7  C3  UNL     1      46.250  27.324  42.304  1.00  0.00     0.274 A 
ATOM      8  H1  UNL     1      47.850  27.318  43.674  1.00  0.00     0.198 HD
HETATM    9  O2  UNL     1      45.808  28.504  42.454  1.00  0.00    -0.266 OA
ENDBRANCH   1   2
BRANCH   1  10
HETATM   10  C6  UNL     1      45.013  27.006  39.197  1.00  0.00     0.287 C 
BRANCH  10  11
HETATM   11  N2  UNL     1      44.157  28.101  38.806  1.00  0.00    -0.065 N 
ATOM     12  H23 UNL     1      43.195  27.785  38.679  1.00  0.00     0.275 HD
ATOM     13  H22 UNL     1      44.017  28.750  39.581  1.00  0.00     0.275 HD
ATOM     14  H21 UNL     1      44.493  28.591  37.976  1.00  0.00     0.275 HD
ENDBRANCH  10  11
BRANCH  10  15
HETATM   15  C7  UNL     1      44.879  25.896  38.213  1.00  0.00     0.204 C 
HETATM   16  O3  UNL     1      45.918  25.316  37.806  1.00  0.00    -0.646 OA
HETATM   17  O4  UNL     1      43.670  25.451  37.705  1.00  0.00    -0.646 OA
ENDBRANCH  10  15
ENDBRANCH   1  10
TORSDOF 4
ENDMDL
