MODEL 2
REMARK VINA RESULT: -7.531989528      1.713      4.079
REMARK  4 active torsions:
REMARK  status: ('A' for Active; 'I' for Inactive)
REMARK    1  A    between atoms: C4_8  and  C5_9 
REMARK    2  A    between atoms: C5_9  and  C6_10 
REMARK    3  A    between atoms: C6_10  and  N2_11 
REMARK    4  A    between atoms: C6_10  and  C7_15 
ROOT
HETATM    1  C5  UNL     1      44.289  25.771  40.459  1.00  0.00     0.091 C 
ENDROOT
BRANCH   1   2
HETATM    2  C4  UNL     1      45.085  26.470  41.480  1.00  0.00     0.045 A 
HETATM    3  C2  UNL     1      44.890  27.749  41.956  1.00  0.00     0.084 A 
HETATM    4  C1  UNL     1      43.820  28.720  41.541  1.00  0.00     0.079 C 
HETATM    5  O1  UNL     1      45.831  27.945  42.846  1.00  0.00    -0.239 OA
HETATM    6  N1  UNL     1      46.604  26.911  42.981  1.00  0.00    -0.225 N 
HETATM    7  C3  UNL     1      46.174  25.960  42.143  1.00  0.00     0.274 A 
ATOM      8  H1  UNL     1      47.400  26.836  43.615  1.00  0.00     0.198 HD
HETATM    9  O2  UNL     1      46.715  24.819  42.026  1.00  0.00    -0.266 OA
ENDBRANCH   1   2
BRANCH   1  10
HETATM   10  C6  UNL     1      44.365  26.391  39.092  1.00  0.00     0.287 C 
BRANCH  10  11
HETATM   11  N2  UNL     1      43.624  25.650  38.097  1.00  0.00    -0.065 N 
ATOM     12  H23 UNL     1      42.646  25.552  38.369  1.00  0.00     0.275 HD
ATOM     13  H22 UNL     1      43.506  26.199  37.246  1.00  0.00     0.275 HD
ATOM     14  H21 UNL     1      44.038  24.740  37.890  1.00  0.00     0.275 HD
ENDBRANCH  10  11
BRANCH  10  15
HETATM   15  C7  UNL     1      45.805  26.422  38.714  1.00  0.00     0.204 C 
HETATM   16  O3  UNL     1      46.366  27.536  38.550  1.00  0.00    -0.646 OA
HETATM   17  O4  UNL     1      46.583  25.293  38.526  1.00  0.00    -0.646 OA
ENDBRANCH  10  15
ENDBRANCH   1  10
TORSDOF 4
ENDMDL
