MODEL 5
REMARK VINA RESULT: -7.203407491      1.749      4.067
REMARK  4 active torsions:
REMARK  status: ('A' for Active; 'I' for Inactive)
REMARK    1  A    between atoms: C4_8  and  C5_9 
REMARK    2  A    between atoms: C5_9  and  C6_10 
REMARK    3  A    between atoms: C6_10  and  N2_11 
REMARK    4  A    between atoms: C6_10  and  C7_15 
ROOT
HETATM    1  C5  UNL     1      44.412  25.723  40.586  1.00  0.00     0.091 C 
ENDROOT
BRANCH   1   2
HETATM    2  C4  UNL     1      45.165  26.462  41.612  1.00  0.00     0.045 A 
HETATM    3  C2  UNL     1      44.949  27.757  42.031  1.00  0.00     0.084 A 
HETATM    4  C1  UNL     1      43.895  28.708  41.538  1.00  0.00     0.079 C 
HETATM    5  O1  UNL     1      45.854  27.989  42.950  1.00  0.00    -0.239 OA
HETATM    6  N1  UNL     1      46.623  26.963  43.154  1.00  0.00    -0.225 N 
HETATM    7  C3  UNL     1      46.229  25.981  42.336  1.00  0.00     0.274 A 
ATOM      8  H1  UNL     1      47.394  26.915  43.821  1.00  0.00     0.198 HD
HETATM    9  O2  UNL     1      46.776  24.838  42.283  1.00  0.00    -0.266 OA
ENDBRANCH   1   2
BRANCH   1  10
HETATM   10  C6  UNL     1      45.131  25.590  39.273  1.00  0.00     0.287 C 
BRANCH  10  11
HETATM   11  N2  UNL     1      46.498  25.146  39.423  1.00  0.00    -0.065 N 
ATOM     12  H23 UNL     1      46.918  25.538  40.266  1.00  0.00     0.275 HD
ATOM     13  H22 UNL     1      46.536  24.156  39.664  1.00  0.00     0.275 HD
ATOM     14  H21 UNL     1      47.072  25.345  38.603  1.00  0.00     0.275 HD
ENDBRANCH  10  11
BRANCH  10  15
HETATM   15  C7  UNL     1      45.115  26.936  38.637  1.00  0.00     0.204 C 
HETATM   16  O3  UNL     1      46.197  27.569  38.527  1.00  0.00    -0.646 OA
HETATM   17  O4  UNL     1      43.974  27.551  38.150  1.00  0.00    -0.646 OA
ENDBRANCH  10  15
ENDBRANCH   1  10
TORSDOF 4
ENDMDL
