MODEL 1
REMARK VINA RESULT: -7.883249309      0.000      0.000
REMARK  3 active torsions:
REMARK  status: ('A' for Active; 'I' for Inactive)
REMARK    1  A    between atoms: C1_2  and  C2_6 
REMARK    2  A    between atoms: C6_12  and  C7_13 
REMARK    3  A    between atoms: C12_18  and  O1_19 
ROOT
HETATM    1  C2  UNL     1      16.348  -6.149  25.507  1.00  0.00     0.007 A 
HETATM    2  C3  UNL     1      17.433  -6.687  26.186  1.00  0.00     0.017 A 
HETATM    3  C4  UNL     1      17.819  -6.081  27.360  1.00  0.00     0.033 A 
HETATM    4  C5  UNL     1      17.176  -4.976  27.878  1.00  0.00     0.060 A 
HETATM    5  N3  UNL     1      17.347  -4.210  28.981  1.00  0.00    -0.340 N 
ATOM      6  H3  UNL     1      18.073  -4.360  29.681  1.00  0.00     0.167 HD
HETATM    7  C6  UNL     1      16.434  -3.227  29.032  1.00  0.00     0.119 A 
HETATM    8  N4  UNL     1      15.676  -3.384  27.933  1.00  0.00    -0.340 N 
ATOM      9  H4  UNL     1      14.888  -2.787  27.680  1.00  0.00     0.167 HD
HETATM   10  C13 UNL     1      16.097  -4.431  27.215  1.00  0.00     0.061 A 
HETATM   11  C14 UNL     1      15.699  -5.043  26.020  1.00  0.00     0.046 A 
ENDROOT
BRANCH   7  12
HETATM   12  C7  UNL     1      16.281  -2.189  30.061  1.00  0.00     0.041 A 
HETATM   13  C8  UNL     1      16.437  -2.476  31.393  1.00  0.00     0.018 A 
HETATM   14  C9  UNL     1      16.299  -1.520  32.386  1.00  0.00     0.001 A 
HETATM   15  C10 UNL     1      15.993  -0.226  32.029  1.00  0.00     0.003 A 
HETATM   16  C11 UNL     1      15.835   0.069  30.691  1.00  0.00     0.037 A 
HETATM   17  C12 UNL     1      15.976  -0.894  29.717  1.00  0.00     0.079 A 
BRANCH  17  18
HETATM   18  O1  UNL     1      15.819  -0.608  28.359  1.00  0.00    -0.360 OA
ATOM     19  H1  UNL     1      15.204   0.077  28.124  1.00  0.00     0.217 HD
ENDBRANCH  17  18
ENDBRANCH   7  12
BRANCH   1  20
HETATM   20  C1  UNL     1      15.933  -6.790  24.257  1.00  0.00     0.120 C 
HETATM   21  N1  UNL     1      14.658  -6.407  23.688  1.00  0.00    -0.082 NA
HETATM   22  N2  UNL     1      16.640  -7.667  23.648  1.00  0.00    -0.387 N 
ATOM     23  H22 UNL     1      16.351  -8.114  22.777  1.00  0.00     0.157 HD
ATOM     24  H21 UNL     1      17.538  -7.937  24.049  1.00  0.00     0.157 HD
ENDBRANCH   1  20
TORSDOF 3
ENDMDL
