MODEL 4
REMARK VINA RESULT: -7.375635722      2.477      7.045
REMARK  3 active torsions:
REMARK  status: ('A' for Active; 'I' for Inactive)
REMARK    1  A    between atoms: C1_2  and  C2_6 
REMARK    2  A    between atoms: C6_12  and  C7_13 
REMARK    3  A    between atoms: C12_18  and  O1_19 
ROOT
HETATM    1  C2  UNL     1      16.454  -1.716  30.775  1.00  0.00     0.007 A 
HETATM    2  C3  UNL     1      17.150  -2.731  31.417  1.00  0.00     0.017 A 
HETATM    3  C4  UNL     1      17.369  -3.898  30.722  1.00  0.00     0.033 A 
HETATM    4  C5  UNL     1      16.928  -4.092  29.429  1.00  0.00     0.060 A 
HETATM    5  N3  UNL     1      17.008  -5.112  28.543  1.00  0.00    -0.340 N 
ATOM      6  H3  UNL     1      17.466  -6.004  28.729  1.00  0.00     0.167 HD
HETATM    7  C6  UNL     1      16.403  -4.795  27.386  1.00  0.00     0.119 A 
HETATM    8  N4  UNL     1      15.936  -3.547  27.557  1.00  0.00    -0.340 N 
ATOM      9  H4  UNL     1      15.422  -3.017  26.852  1.00  0.00     0.167 HD
HETATM   10  C13 UNL     1      16.236  -3.093  28.778  1.00  0.00     0.061 A 
HETATM   11  C14 UNL     1      16.010  -1.903  29.481  1.00  0.00     0.046 A 
ENDROOT
BRANCH   7  12
HETATM   12  C7  UNL     1      16.270  -5.624  26.181  1.00  0.00     0.041 A 
HETATM   13  C8  UNL     1      15.345  -5.333  25.210  1.00  0.00     0.018 A 
HETATM   14  C9  UNL     1      15.196  -6.095  24.064  1.00  0.00     0.001 A 
HETATM   15  C10 UNL     1      16.007  -7.194  23.883  1.00  0.00     0.003 A 
HETATM   16  C11 UNL     1      16.939  -7.492  24.854  1.00  0.00     0.037 A 
HETATM   17  C12 UNL     1      17.073  -6.723  25.989  1.00  0.00     0.079 A 
BRANCH  17  18
HETATM   18  O1  UNL     1      18.013  -7.015  26.979  1.00  0.00    -0.360 OA
ATOM     19  H1  UNL     1      17.795  -6.782  27.873  1.00  0.00     0.217 HD
ENDBRANCH  17  18
ENDBRANCH   7  12
BRANCH   1  20
HETATM   20  C1  UNL     1      16.219  -0.472  31.512  1.00  0.00     0.120 C 
HETATM   21  N1  UNL     1      14.849  -0.104  31.803  1.00  0.00    -0.082 NA
HETATM   22  N2  UNL     1      17.160   0.301  31.908  1.00  0.00    -0.387 N 
ATOM     23  H22 UNL     1      16.997   1.167  32.421  1.00  0.00     0.157 HD
ATOM     24  H21 UNL     1      18.125   0.041  31.703  1.00  0.00     0.157 HD
ENDBRANCH   1  20
TORSDOF 3
ENDMDL
