MODEL 2
REMARK VINA RESULT: -7.532514638      1.099      1.857
REMARK  3 active torsions:
REMARK  status: ('A' for Active; 'I' for Inactive)
REMARK    1  A    between atoms: C1_2  and  C2_6 
REMARK    2  A    between atoms: C6_12  and  C7_13 
REMARK    3  A    between atoms: C12_18  and  O1_19 
ROOT
HETATM    1  C2  UNL     1      16.533  -6.255  25.363  1.00  0.00     0.007 A 
HETATM    2  C3  UNL     1      15.645  -5.271  24.952  1.00  0.00     0.017 A 
HETATM    3  C4  UNL     1      15.370  -4.247  25.831  1.00  0.00     0.033 A 
HETATM    4  C5  UNL     1      15.938  -4.167  27.085  1.00  0.00     0.060 A 
HETATM    5  N3  UNL     1      15.843  -3.293  28.115  1.00  0.00    -0.340 N 
ATOM      6  H3  UNL     1      15.259  -2.457  28.109  1.00  0.00     0.167 HD
HETATM    7  C6  UNL     1      16.618  -3.673  29.143  1.00  0.00     0.119 A 
HETATM    8  N4  UNL     1      17.210  -4.811  28.744  1.00  0.00    -0.340 N 
ATOM      9  H4  UNL     1      17.866  -5.353  29.308  1.00  0.00     0.167 HD
HETATM   10  C13 UNL     1      16.822  -5.137  27.507  1.00  0.00     0.061 A 
HETATM   11  C14 UNL     1      17.106  -6.181  26.618  1.00  0.00     0.046 A 
ENDROOT
BRANCH   7  12
HETATM   12  C7  UNL     1      16.793  -3.000  30.438  1.00  0.00     0.041 A 
HETATM   13  C8  UNL     1      17.825  -3.327  31.280  1.00  0.00     0.018 A 
HETATM   14  C9  UNL     1      18.016  -2.711  32.506  1.00  0.00     0.001 A 
HETATM   15  C10 UNL     1      17.138  -1.728  32.902  1.00  0.00     0.003 A 
HETATM   16  C11 UNL     1      16.098  -1.394  32.060  1.00  0.00     0.037 A 
HETATM   17  C12 UNL     1      15.923  -2.017  30.845  1.00  0.00     0.079 A 
BRANCH  17  18
HETATM   18  O1  UNL     1      14.875  -1.687  29.983  1.00  0.00    -0.360 OA
ATOM     19  H1  UNL     1      14.028  -2.082  30.152  1.00  0.00     0.217 HD
ENDBRANCH  17  18
ENDBRANCH   7  12
BRANCH   1  20
HETATM   20  C1  UNL     1      16.828  -7.346  24.431  1.00  0.00     0.120 C 
HETATM   21  N1  UNL     1      15.804  -7.722  23.479  1.00  0.00    -0.082 NA
HETATM   22  N2  UNL     1      17.941  -7.980  24.419  1.00  0.00    -0.387 N 
ATOM     23  H22 UNL     1      18.147  -8.740  23.770  1.00  0.00     0.157 HD
ATOM     24  H21 UNL     1      18.663  -7.715  25.089  1.00  0.00     0.157 HD
ENDBRANCH   1  20
TORSDOF 3
ENDMDL
