MODEL 6
REMARK VINA RESULT: -7.300761813      3.389      7.073
REMARK  3 active torsions:
REMARK  status: ('A' for Active; 'I' for Inactive)
REMARK    1  A    between atoms: C1_2  and  C2_6 
REMARK    2  A    between atoms: C6_12  and  C7_13 
REMARK    3  A    between atoms: C12_18  and  O1_19 
ROOT
HETATM    1  C2  UNL     1      18.850  -4.685  30.877  1.00  0.00     0.007 A 
HETATM    2  C3  UNL     1      19.330  -5.987  30.834  1.00  0.00     0.017 A 
HETATM    3  C4  UNL     1      18.958  -6.772  29.766  1.00  0.00     0.033 A 
HETATM    4  C5  UNL     1      18.138  -6.317  28.754  1.00  0.00     0.060 A 
HETATM    5  N3  UNL     1      17.635  -6.865  27.623  1.00  0.00    -0.340 N 
ATOM      6  H3  UNL     1      17.813  -7.822  27.317  1.00  0.00     0.167 HD
HETATM    7  C6  UNL     1      16.870  -5.984  26.958  1.00  0.00     0.119 A 
HETATM    8  N4  UNL     1      16.898  -4.859  27.694  1.00  0.00    -0.340 N 
ATOM      9  H4  UNL     1      16.410  -3.996  27.454  1.00  0.00     0.167 HD
HETATM   10  C13 UNL     1      17.655  -5.026  28.783  1.00  0.00     0.061 A 
HETATM   11  C14 UNL     1      18.030  -4.223  29.867  1.00  0.00     0.046 A 
ENDROOT
BRANCH   7  12
HETATM   12  C7  UNL     1      16.148  -6.188  25.695  1.00  0.00     0.041 A 
HETATM   13  C8  UNL     1      15.005  -5.489  25.404  1.00  0.00     0.018 A 
HETATM   14  C9  UNL     1      14.302  -5.660  24.223  1.00  0.00     0.001 A 
HETATM   15  C10 UNL     1      14.765  -6.568  23.297  1.00  0.00     0.003 A 
HETATM   16  C11 UNL     1      15.914  -7.274  23.583  1.00  0.00     0.037 A 
HETATM   17  C12 UNL     1      16.600  -7.091  24.763  1.00  0.00     0.079 A 
BRANCH  17  18
HETATM   18  O1  UNL     1      17.764  -7.800  25.064  1.00  0.00    -0.360 OA
ATOM     19  H1  UNL     1      18.587  -7.326  25.035  1.00  0.00     0.217 HD
ENDBRANCH  17  18
ENDBRANCH   7  12
BRANCH   1  20
HETATM   20  C1  UNL     1      19.244  -3.846  32.012  1.00  0.00     0.120 C 
HETATM   21  N1  UNL     1      20.587  -3.993  32.532  1.00  0.00    -0.082 NA
HETATM   22  N2  UNL     1      18.462  -2.993  32.562  1.00  0.00    -0.387 N 
ATOM     23  H22 UNL     1      18.736  -2.409  33.352  1.00  0.00     0.157 HD
ATOM     24  H21 UNL     1      17.516  -2.889  32.195  1.00  0.00     0.157 HD
ENDBRANCH   1  20
TORSDOF 3
ENDMDL
