MODEL 5
REMARK VINA RESULT: -7.342563167      3.116      6.958
REMARK  3 active torsions:
REMARK  status: ('A' for Active; 'I' for Inactive)
REMARK    1  A    between atoms: C1_2  and  C2_6 
REMARK    2  A    between atoms: C6_12  and  C7_13 
REMARK    3  A    between atoms: C12_18  and  O1_19 
ROOT
HETATM    1  C2  UNL     1      19.008  -4.679  31.282  1.00  0.00     0.007 A 
HETATM    2  C3  UNL     1      19.422  -6.004  31.311  1.00  0.00     0.017 A 
HETATM    3  C4  UNL     1      19.068  -6.810  30.253  1.00  0.00     0.033 A 
HETATM    4  C5  UNL     1      18.328  -6.355  29.181  1.00  0.00     0.060 A 
HETATM    5  N3  UNL     1      17.859  -6.921  28.045  1.00  0.00    -0.340 N 
ATOM      6  H3  UNL     1      18.004  -7.896  27.783  1.00  0.00     0.167 HD
HETATM    7  C6  UNL     1      17.177  -6.029  27.307  1.00  0.00     0.119 A 
HETATM    8  N4  UNL     1      17.224  -4.880  28.003  1.00  0.00    -0.340 N 
ATOM      9  H4  UNL     1      16.793  -4.004  27.705  1.00  0.00     0.167 HD
HETATM   10  C13 UNL     1      17.911  -5.042  29.138  1.00  0.00     0.061 A 
HETATM   11  C14 UNL     1      18.269  -4.216  30.211  1.00  0.00     0.046 A 
ENDROOT
BRANCH   7  12
HETATM   12  C7  UNL     1      16.515  -6.246  26.014  1.00  0.00     0.041 A 
HETATM   13  C8  UNL     1      16.983  -7.172  25.117  1.00  0.00     0.018 A 
HETATM   14  C9  UNL     1      16.381  -7.399  23.891  1.00  0.00     0.001 A 
HETATM   15  C10 UNL     1      15.264  -6.669  23.551  1.00  0.00     0.003 A 
HETATM   16  C11 UNL     1      14.787  -5.737  24.449  1.00  0.00     0.037 A 
HETATM   17  C12 UNL     1      15.399  -5.524  25.664  1.00  0.00     0.079 A 
BRANCH  17  18
HETATM   18  O1  UNL     1      14.926  -4.584  26.581  1.00  0.00    -0.360 OA
ATOM     19  H1  UNL     1      15.331  -3.725  26.577  1.00  0.00     0.217 HD
ENDBRANCH  17  18
ENDBRANCH   7  12
BRANCH   1  20
HETATM   20  C1  UNL     1      19.383  -3.817  32.405  1.00  0.00     0.120 C 
HETATM   21  N1  UNL     1      20.775  -3.789  32.804  1.00  0.00    -0.082 NA
HETATM   22  N2  UNL     1      18.544  -3.093  33.047  1.00  0.00    -0.387 N 
ATOM     23  H22 UNL     1      18.805  -2.493  33.830  1.00  0.00     0.157 HD
ATOM     24  H21 UNL     1      17.564  -3.113  32.766  1.00  0.00     0.157 HD
ENDBRANCH   1  20
TORSDOF 3
ENDMDL
