MODEL 6
REMARK VINA RESULT: -6.510223919      2.758      6.792
REMARK  20 active torsions:
REMARK  status: ('A' for Active; 'I' for Inactive)
REMARK    1  A    between atoms: C2_2  and  C3_3 
REMARK    2  A    between atoms: C3_3  and  C4_4 
REMARK    3  A    between atoms: C4_4  and  C5_5 
REMARK    4  A    between atoms: C5_5  and  C6_6 
REMARK    5  A    between atoms: C6_6  and  O2_8 
REMARK    6  A    between atoms: O2_8  and  C7_9 
REMARK    7  A    between atoms: C7_9  and  C8_10 
REMARK    8  A    between atoms: C8_10  and  C9_11 
REMARK    9  A    between atoms: C8_10  and  O6_23 
REMARK   10  A    between atoms: C9_11  and  C10_12 
REMARK   11  A    between atoms: C10_12  and  P1_13 
REMARK   12  A    between atoms: P1_13  and  O5_16 
REMARK   13  A    between atoms: O5_16  and  C11_17 
REMARK   14  A    between atoms: C11_17  and  C12_18 
REMARK   15  A    between atoms: C12_18  and  N1_19 
REMARK   16  A    between atoms: O6_23  and  C16_24 
REMARK   17  A    between atoms: C16_24  and  C17_26 
REMARK   18  A    between atoms: C17_26  and  C18_27 
REMARK   19  A    between atoms: C18_27  and  C19_28 
REMARK   20  A    between atoms: C19_28  and  C20_29 
ROOT
HETATM    1  C8  UNL     1      38.914  24.330   1.796  1.00  0.00     0.156 C 
ENDROOT
BRANCH   1   2
HETATM    2  C7  UNL     1      39.426  25.653   1.271  1.00  0.00     0.211 C 
BRANCH   2   3
HETATM    3  O2  UNL     1      38.384  26.601   1.383  1.00  0.00    -0.319 OA
BRANCH   3   4
HETATM    4  C6  UNL     1      37.133  26.400   0.774  1.00  0.00     0.258 C 
HETATM    5  O1  UNL     1      36.170  26.331   1.581  1.00  0.00    -0.265 OA
BRANCH   4   6
HETATM    6  C5  UNL     1      36.976  26.281  -0.677  1.00  0.00     0.111 C 
BRANCH   6   7
HETATM    7  C4  UNL     1      35.573  26.183  -1.159  1.00  0.00     0.010 C 
BRANCH   7   8
HETATM    8  C3  UNL     1      35.037  24.803  -1.334  1.00  0.00     0.000 C 
BRANCH   8   9
HETATM    9  C2  UNL     1      34.140  24.758  -2.567  1.00  0.00    -0.005 C 
HETATM   10  C1  UNL     1      32.681  24.811  -2.206  1.00  0.00     0.005 C 
ENDBRANCH   8   9
ENDBRANCH   7   8
ENDBRANCH   6   7
ENDBRANCH   4   6
ENDBRANCH   3   4
ENDBRANCH   2   3
ENDBRANCH   1   2
BRANCH   1  11
HETATM   11  C9  UNL     1      39.095  24.159   3.283  1.00  0.00     0.047 C 
BRANCH  11  12
HETATM   12  C10 UNL     1      40.472  24.398   3.793  1.00  0.00     0.138 C 
BRANCH  12  13
HETATM   13  P1  UNL     1      40.761  23.157   5.119  1.00  0.00     0.249 P 
HETATM   14  O3  UNL     1      41.750  23.683   6.126  1.00  0.00    -0.646 OA
HETATM   15  O4  UNL     1      39.330  22.794   5.937  1.00  0.00    -0.646 OA
BRANCH  13  16
HETATM   16  O5  UNL     1      41.411  21.753   4.435  1.00  0.00    -0.310 OA
BRANCH  16  17
HETATM   17  C11 UNL     1      42.737  22.006   4.088  1.00  0.00     0.207 C 
BRANCH  17  18
HETATM   18  C12 UNL     1      43.166  20.917   3.137  1.00  0.00     0.262 C 
BRANCH  18  19
HETATM   19  N1  UNL     1      43.932  21.462   2.017  1.00  0.00    -0.077 N 
HETATM   20  C13 UNL     1      43.290  22.694   1.591  1.00  0.00     0.271 C 
HETATM   21  C14 UNL     1      45.276  21.743   2.446  1.00  0.00     0.271 C 
HETATM   22  C15 UNL     1      43.910  20.489   0.959  1.00  0.00     0.271 C 
ENDBRANCH  18  19
ENDBRANCH  17  18
ENDBRANCH  16  17
ENDBRANCH  13  16
ENDBRANCH  12  13
ENDBRANCH  11  12
ENDBRANCH   1  11
BRANCH   1  23
HETATM   23  O6  UNL     1      39.746  23.323   1.191  1.00  0.00    -0.314 OA
BRANCH  23  24
HETATM   24  C16 UNL     1      39.321  22.609   0.076  1.00  0.00     0.259 C 
HETATM   25  O7  UNL     1      38.217  22.950  -0.447  1.00  0.00    -0.265 OA
BRANCH  24  26
HETATM   26  C17 UNL     1      40.118  21.483  -0.499  1.00  0.00     0.111 C 
BRANCH  26  27
HETATM   27  C18 UNL     1      40.231  20.424   0.570  1.00  0.00     0.010 C 
BRANCH  27  28
HETATM   28  C19 UNL     1      40.536  19.077  -0.053  1.00  0.00     0.000 C 
BRANCH  28  29
HETATM   29  C20 UNL     1      40.180  17.986   0.939  1.00  0.00    -0.005 C 
HETATM   30  C21 UNL     1      40.824  18.305   2.253  1.00  0.00     0.005 C 
ENDBRANCH  28  29
ENDBRANCH  27  28
ENDBRANCH  26  27
ENDBRANCH  24  26
ENDBRANCH  23  24
ENDBRANCH   1  23
TORSDOF 20
ENDMDL
