MODEL 8
REMARK VINA RESULT: -8.124173858      1.634      2.487
REMARK  10 active torsions:
REMARK  status: ('A' for Active; 'I' for Inactive)
REMARK    1  A    between atoms: N5_13  and  C6_14 
REMARK    2  A    between atoms: C7_16  and  C8_17 
REMARK    3  A    between atoms: C8_17  and  S1_18 
REMARK    4  A    between atoms: S1_18  and  C9_19 
REMARK    5  A    between atoms: C9_19  and  C10_20 
REMARK    6  A    between atoms: C10_20  and  C11_21 
REMARK    7  A    between atoms: C11_21  and  N6_22 
REMARK    8  A    between atoms: C11_21  and  C12_26 
REMARK    9  A    between atoms: C13_29  and  O4_30 
REMARK   10  A    between atoms: C14_32  and  O5_33 
ROOT
HETATM    1  C6  UNL     1      33.569  44.425  38.907  1.00  0.00     0.262 C 
HETATM    2  O1  UNL     1      34.894  44.074  38.634  1.00  0.00    -0.355 OA
HETATM    3  C7  UNL     1      35.596  44.371  39.825  1.00  0.00     0.165 C 
HETATM    4  C13 UNL     1      34.679  43.718  40.838  1.00  0.00     0.180 C 
HETATM    5  C14 UNL     1      33.353  44.303  40.373  1.00  0.00     0.198 C 
ENDROOT
BRANCH   1   6
HETATM    6  N5  UNL     1      32.642  43.714  38.085  1.00  0.00    -0.297 N 
HETATM    7  C3  UNL     1      31.297  43.756  38.050  1.00  0.00     0.142 A 
HETATM    8  N3  UNL     1      30.453  44.494  38.792  1.00  0.00    -0.336 N 
HETATM    9  C4  UNL     1      30.807  42.897  37.096  1.00  0.00     0.119 A 
HETATM   10  C2  UNL     1      29.136  44.354  38.562  1.00  0.00     0.183 A 
ATOM     11  H3  UNL     1      30.800  45.136  39.504  1.00  0.00     0.168 HD
HETATM   12  N2  UNL     1      28.637  43.509  37.625  1.00  0.00    -0.339 N 
HETATM   13  C1  UNL     1      29.444  42.757  36.864  1.00  0.00     0.148 A 
ATOM     14  H2  UNL     1      27.626  43.445  37.497  1.00  0.00     0.167 HD
HETATM   15  N1  UNL     1      29.008  41.856  35.869  1.00  0.00    -0.080 NA
HETATM   16  N4  UNL     1      31.894  42.315  36.535  1.00  0.00    -0.346 N 
HETATM   17  C5  UNL     1      32.995  42.805  37.130  1.00  0.00     0.188 A 
ATOM     18  H4  UNL     1      31.879  41.621  35.788  1.00  0.00     0.167 HD
ENDBRANCH   1   6
BRANCH   5  19
HETATM   19  O5  UNL     1      33.257  45.561  40.995  1.00  0.00    -0.388 OA
ATOM     20  H5  UNL     1      33.890  45.660  41.695  1.00  0.00     0.210 HD
ENDBRANCH   5  19
BRANCH   3  21
HETATM   21  C8  UNL     1      36.969  43.768  39.795  1.00  0.00     0.108 C 
BRANCH  21  22
HETATM   22  S1  UNL     1      36.781  42.084  39.094  1.00  0.00    -0.166 SA
BRANCH  22  23
HETATM   23  C9  UNL     1      36.825  40.885  40.474  1.00  0.00     0.076 C 
BRANCH  23  24
HETATM   24  C10 UNL     1      35.453  40.415  40.805  1.00  0.00     0.054 C 
BRANCH  24  25
HETATM   25  C11 UNL     1      35.344  39.851  42.196  1.00  0.00     0.284 C 
BRANCH  25  26
HETATM   26  N6  UNL     1      34.900  38.464  42.172  1.00  0.00    -0.065 N 
ATOM     27  H63 UNL     1      34.441  38.233  41.291  1.00  0.00     0.275 HD
ATOM     28  H62 UNL     1      35.688  37.820  42.112  1.00  0.00     0.275 HD
ATOM     29  H61 UNL     1      34.304  38.253  42.972  1.00  0.00     0.275 HD
ENDBRANCH  25  26
BRANCH  25  30
HETATM   30  C12 UNL     1      34.433  40.599  43.087  1.00  0.00     0.204 C 
HETATM   31  O2  UNL     1      34.561  40.531  44.359  1.00  0.00    -0.646 OA
HETATM   32  O3  UNL     1      33.403  41.411  42.651  1.00  0.00    -0.646 OA
ENDBRANCH  25  30
ENDBRANCH  24  25
ENDBRANCH  23  24
ENDBRANCH  22  23
ENDBRANCH  21  22
ENDBRANCH   3  21
BRANCH   4  33
HETATM   33  O4  UNL     1      34.978  44.118  42.137  1.00  0.00    -0.390 OA
ATOM     34  H4  UNL     1      34.310  43.841  42.753  1.00  0.00     0.210 HD
ENDBRANCH   4  33
TORSDOF 10
ENDMDL
