MODEL 6
REMARK VINA RESULT: -8.165197074      1.521      2.018
REMARK  10 active torsions:
REMARK  status: ('A' for Active; 'I' for Inactive)
REMARK    1  A    between atoms: N5_13  and  C6_14 
REMARK    2  A    between atoms: C7_16  and  C8_17 
REMARK    3  A    between atoms: C8_17  and  S1_18 
REMARK    4  A    between atoms: S1_18  and  C9_19 
REMARK    5  A    between atoms: C9_19  and  C10_20 
REMARK    6  A    between atoms: C10_20  and  C11_21 
REMARK    7  A    between atoms: C11_21  and  N6_22 
REMARK    8  A    between atoms: C11_21  and  C12_26 
REMARK    9  A    between atoms: C13_29  and  O4_30 
REMARK   10  A    between atoms: C14_32  and  O5_33 
ROOT
HETATM    1  C6  UNL     1      33.099  44.706  39.513  1.00  0.00     0.262 C 
HETATM    2  O1  UNL     1      34.276  44.248  38.913  1.00  0.00    -0.355 OA
HETATM    3  C7  UNL     1      35.237  44.267  39.950  1.00  0.00     0.165 C 
HETATM    4  C13 UNL     1      34.453  43.575  41.045  1.00  0.00     0.180 C 
HETATM    5  C14 UNL     1      33.164  44.381  40.961  1.00  0.00     0.198 C 
ENDROOT
BRANCH   1   6
HETATM    6  N5  UNL     1      31.931  44.249  38.828  1.00  0.00    -0.297 N 
HETATM    7  C3  UNL     1      31.796  43.339  37.845  1.00  0.00     0.142 A 
HETATM    8  N3  UNL     1      32.742  42.603  37.238  1.00  0.00    -0.336 N 
HETATM    9  C4  UNL     1      30.478  43.210  37.478  1.00  0.00     0.119 A 
HETATM   10  C2  UNL     1      32.346  41.753  36.274  1.00  0.00     0.183 A 
ATOM     11  H3  UNL     1      33.725  42.686  37.498  1.00  0.00     0.168 HD
HETATM   12  N2  UNL     1      31.049  41.615  35.899  1.00  0.00    -0.339 N 
HETATM   13  C1  UNL     1      30.076  42.330  36.481  1.00  0.00     0.148 A 
ATOM     14  H2  UNL     1      30.809  40.954  35.160  1.00  0.00     0.167 HD
HETATM   15  N1  UNL     1      28.706  42.248  36.152  1.00  0.00    -0.080 NA
HETATM   16  N4  UNL     1      29.793  44.074  38.266  1.00  0.00    -0.346 N 
HETATM   17  C5  UNL     1      30.666  44.698  39.076  1.00  0.00     0.188 A 
ATOM     18  H4  UNL     1      28.785  44.225  38.248  1.00  0.00     0.167 HD
ENDBRANCH   1   6
BRANCH   5  19
HETATM   19  O5  UNL     1      33.382  45.527  41.748  1.00  0.00    -0.388 OA
ATOM     20  H5  UNL     1      32.716  46.188  41.602  1.00  0.00     0.210 HD
ENDBRANCH   5  19
BRANCH   3  21
HETATM   21  C8  UNL     1      36.470  43.518  39.543  1.00  0.00     0.108 C 
BRANCH  21  22
HETATM   22  S1  UNL     1      35.943  41.795  39.203  1.00  0.00    -0.166 SA
BRANCH  22  23
HETATM   23  C9  UNL     1      36.383  40.769  40.652  1.00  0.00     0.076 C 
BRANCH  23  24
HETATM   24  C10 UNL     1      35.213  39.969  41.104  1.00  0.00     0.054 C 
BRANCH  24  25
HETATM   25  C11 UNL     1      35.270  39.618  42.566  1.00  0.00     0.284 C 
BRANCH  25  26
HETATM   26  N6  UNL     1      34.948  38.215  42.786  1.00  0.00    -0.065 N 
ATOM     27  H63 UNL     1      35.066  37.666  41.935  1.00  0.00     0.275 HD
ATOM     28  H62 UNL     1      35.650  37.757  43.367  1.00  0.00     0.275 HD
ATOM     29  H61 UNL     1      34.012  38.106  43.175  1.00  0.00     0.275 HD
ENDBRANCH  25  26
BRANCH  25  30
HETATM   30  C12 UNL     1      34.375  40.424  43.421  1.00  0.00     0.204 C 
HETATM   31  O2  UNL     1      33.386  41.060  42.915  1.00  0.00    -0.646 OA
HETATM   32  O3  UNL     1      34.512  40.562  44.789  1.00  0.00    -0.646 OA
ENDBRANCH  25  30
ENDBRANCH  24  25
ENDBRANCH  23  24
ENDBRANCH  22  23
ENDBRANCH  21  22
ENDBRANCH   3  21
BRANCH   4  33
HETATM   33  O4  UNL     1      35.061  43.726  42.288  1.00  0.00    -0.390 OA
ATOM     34  H4  UNL     1      34.826  44.551  42.697  1.00  0.00     0.210 HD
ENDBRANCH   4  33
TORSDOF 10
ENDMDL
