MODEL 13
REMARK VINA RESULT: -7.929743966      2.011      2.903
REMARK  10 active torsions:
REMARK  status: ('A' for Active; 'I' for Inactive)
REMARK    1  A    between atoms: N5_13  and  C6_14 
REMARK    2  A    between atoms: C7_16  and  C8_17 
REMARK    3  A    between atoms: C8_17  and  S1_18 
REMARK    4  A    between atoms: S1_18  and  C9_19 
REMARK    5  A    between atoms: C9_19  and  C10_20 
REMARK    6  A    between atoms: C10_20  and  C11_21 
REMARK    7  A    between atoms: C11_21  and  N6_22 
REMARK    8  A    between atoms: C11_21  and  C12_26 
REMARK    9  A    between atoms: C13_29  and  O4_30 
REMARK   10  A    between atoms: C14_32  and  O5_33 
ROOT
HETATM    1  C6  UNL     1      33.565  44.401  38.973  1.00  0.00     0.262 C 
HETATM    2  O1  UNL     1      34.898  44.132  38.653  1.00  0.00    -0.355 OA
HETATM    3  C7  UNL     1      35.612  44.388  39.847  1.00  0.00     0.165 C 
HETATM    4  C13 UNL     1      34.748  43.630  40.834  1.00  0.00     0.180 C 
HETATM    5  C14 UNL     1      33.387  44.179  40.431  1.00  0.00     0.198 C 
ENDROOT
BRANCH   1   6
HETATM    6  N5  UNL     1      32.654  43.698  38.125  1.00  0.00    -0.297 N 
HETATM    7  C3  UNL     1      31.310  43.741  38.064  1.00  0.00     0.142 A 
HETATM    8  N3  UNL     1      30.452  44.471  38.797  1.00  0.00    -0.336 N 
HETATM    9  C4  UNL     1      30.839  42.892  37.092  1.00  0.00     0.119 A 
HETATM   10  C2  UNL     1      29.140  44.333  38.540  1.00  0.00     0.183 A 
ATOM     11  H3  UNL     1      30.785  45.106  39.522  1.00  0.00     0.168 HD
HETATM   12  N2  UNL     1      28.659  43.498  37.584  1.00  0.00    -0.339 N 
HETATM   13  C1  UNL     1      29.482  42.755  36.831  1.00  0.00     0.148 A 
ATOM     14  H2  UNL     1      27.651  43.435  37.435  1.00  0.00     0.167 HD
HETATM   15  N1  UNL     1      29.065  41.863  35.818  1.00  0.00    -0.080 NA
HETATM   16  N4  UNL     1      31.938  42.316  36.546  1.00  0.00    -0.346 N 
HETATM   17  C5  UNL     1      33.027  42.800  37.167  1.00  0.00     0.188 A 
ATOM     18  H4  UNL     1      31.938  41.630  35.792  1.00  0.00     0.167 HD
ENDBRANCH   1   6
BRANCH   5  19
HETATM   19  O5  UNL     1      33.245  45.390  41.133  1.00  0.00    -0.388 OA
ATOM     20  H5  UNL     1      33.277  45.261  42.073  1.00  0.00     0.210 HD
ENDBRANCH   5  19
BRANCH   3  21
HETATM   21  C8  UNL     1      37.010  43.854  39.754  1.00  0.00     0.108 C 
BRANCH  21  22
HETATM   22  S1  UNL     1      36.879  42.179  39.022  1.00  0.00    -0.166 SA
BRANCH  22  23
HETATM   23  C9  UNL     1      36.858  40.962  40.387  1.00  0.00     0.076 C 
BRANCH  23  24
HETATM   24  C10 UNL     1      35.732  40.003  40.219  1.00  0.00     0.054 C 
BRANCH  24  25
HETATM   25  C11 UNL     1      34.987  39.742  41.500  1.00  0.00     0.284 C 
BRANCH  25  26
HETATM   26  N6  UNL     1      35.351  40.706  42.530  1.00  0.00    -0.065 N 
ATOM     27  H63 UNL     1      36.186  40.414  43.038  1.00  0.00     0.275 HD
ATOM     28  H62 UNL     1      35.709  41.570  42.124  1.00  0.00     0.275 HD
ATOM     29  H61 UNL     1      34.572  40.883  43.163  1.00  0.00     0.275 HD
ENDBRANCH  25  26
BRANCH  25  30
HETATM   30  C12 UNL     1      35.191  38.390  42.058  1.00  0.00     0.204 C 
HETATM   31  O2  UNL     1      35.180  37.360  41.297  1.00  0.00    -0.646 OA
HETATM   32  O3  UNL     1      35.405  38.118  43.396  1.00  0.00    -0.646 OA
ENDBRANCH  25  30
ENDBRANCH  24  25
ENDBRANCH  23  24
ENDBRANCH  22  23
ENDBRANCH  21  22
ENDBRANCH   3  21
BRANCH   4  33
HETATM   33  O4  UNL     1      35.057  43.963  42.150  1.00  0.00    -0.390 OA
ATOM     34  H4  UNL     1      35.708  44.654  42.194  1.00  0.00     0.210 HD
ENDBRANCH   4  33
TORSDOF 10
ENDMDL
