MODEL 16
REMARK VINA RESULT: -7.758581622      2.607      3.510
REMARK  10 active torsions:
REMARK  status: ('A' for Active; 'I' for Inactive)
REMARK    1  A    between atoms: N5_13  and  C6_14 
REMARK    2  A    between atoms: C7_16  and  C8_17 
REMARK    3  A    between atoms: C8_17  and  S1_18 
REMARK    4  A    between atoms: S1_18  and  C9_19 
REMARK    5  A    between atoms: C9_19  and  C10_20 
REMARK    6  A    between atoms: C10_20  and  C11_21 
REMARK    7  A    between atoms: C11_21  and  N6_22 
REMARK    8  A    between atoms: C11_21  and  C12_26 
REMARK    9  A    between atoms: C13_29  and  O4_30 
REMARK   10  A    between atoms: C14_32  and  O5_33 
ROOT
HETATM    1  C6  UNL     1      33.574  44.303  38.862  1.00  0.00     0.262 C 
HETATM    2  O1  UNL     1      34.891  43.914  38.606  1.00  0.00    -0.355 OA
HETATM    3  C7  UNL     1      35.591  44.214  39.798  1.00  0.00     0.165 C 
HETATM    4  C13 UNL     1      34.649  43.602  40.815  1.00  0.00     0.180 C 
HETATM    5  C14 UNL     1      33.343  44.214  40.328  1.00  0.00     0.198 C 
ENDROOT
BRANCH   1   6
HETATM    6  N5  UNL     1      32.635  43.602  38.045  1.00  0.00    -0.297 N 
HETATM    7  C3  UNL     1      31.290  43.665  38.011  1.00  0.00     0.142 A 
HETATM    8  N3  UNL     1      30.459  44.420  38.749  1.00  0.00    -0.336 N 
HETATM    9  C4  UNL     1      30.786  42.808  37.062  1.00  0.00     0.119 A 
HETATM   10  C2  UNL     1      29.140  44.300  38.520  1.00  0.00     0.183 A 
ATOM     11  H3  UNL     1      30.817  45.062  39.457  1.00  0.00     0.168 HD
HETATM   12  N2  UNL     1      28.627  43.457  37.588  1.00  0.00    -0.339 N 
HETATM   13  C1  UNL     1      29.422  42.688  36.831  1.00  0.00     0.148 A 
ATOM     14  H2  UNL     1      27.615  43.408  37.461  1.00  0.00     0.167 HD
HETATM   15  N1  UNL     1      28.971  41.787  35.842  1.00  0.00    -0.080 NA
HETATM   16  N4  UNL     1      31.864  42.205  36.504  1.00  0.00    -0.346 N 
HETATM   17  C5  UNL     1      32.974  42.682  37.095  1.00  0.00     0.188 A 
ATOM     18  H4  UNL     1      31.838  41.507  35.761  1.00  0.00     0.167 HD
ENDBRANCH   1   6
BRANCH   5  19
HETATM   19  O5  UNL     1      33.274  45.484  40.927  1.00  0.00    -0.388 OA
ATOM     20  H5  UNL     1      33.498  45.454  41.850  1.00  0.00     0.210 HD
ENDBRANCH   5  19
BRANCH   3  21
HETATM   21  C8  UNL     1      36.948  43.575  39.790  1.00  0.00     0.108 C 
BRANCH  21  22
HETATM   22  S1  UNL     1      36.676  41.776  40.015  1.00  0.00    -0.166 SA
BRANCH  22  23
HETATM   23  C9  UNL     1      37.749  40.886  38.830  1.00  0.00     0.076 C 
BRANCH  23  24
HETATM   24  C10 UNL     1      37.626  39.414  39.014  1.00  0.00     0.054 C 
BRANCH  24  25
HETATM   25  C11 UNL     1      36.837  39.038  40.238  1.00  0.00     0.284 C 
BRANCH  25  26
HETATM   26  N6  UNL     1      37.663  38.322  41.201  1.00  0.00    -0.065 N 
ATOM     27  H63 UNL     1      38.083  37.489  40.788  1.00  0.00     0.275 HD
ATOM     28  H62 UNL     1      38.516  38.837  41.418  1.00  0.00     0.275 HD
ATOM     29  H61 UNL     1      37.137  38.096  42.044  1.00  0.00     0.275 HD
ENDBRANCH  25  26
BRANCH  25  30
HETATM   30  C12 UNL     1      35.646  38.209  39.963  1.00  0.00     0.204 C 
HETATM   31  O2  UNL     1      34.946  37.732  40.923  1.00  0.00    -0.646 OA
HETATM   32  O3  UNL     1      35.190  37.885  38.699  1.00  0.00    -0.646 OA
ENDBRANCH  25  30
ENDBRANCH  24  25
ENDBRANCH  23  24
ENDBRANCH  22  23
ENDBRANCH  21  22
ENDBRANCH   3  21
BRANCH   4  33
HETATM   33  O4  UNL     1      34.948  44.017  42.109  1.00  0.00    -0.390 OA
ATOM     34  H4  UNL     1      34.857  43.309  42.735  1.00  0.00     0.210 HD
ENDBRANCH   4  33
TORSDOF 10
ENDMDL
