MODEL 10
REMARK VINA RESULT: -8.005244852      3.014      5.255
REMARK  10 active torsions:
REMARK  status: ('A' for Active; 'I' for Inactive)
REMARK    1  A    between atoms: N5_13  and  C6_14 
REMARK    2  A    between atoms: C7_16  and  C8_17 
REMARK    3  A    between atoms: C8_17  and  S1_18 
REMARK    4  A    between atoms: S1_18  and  C9_19 
REMARK    5  A    between atoms: C9_19  and  C10_20 
REMARK    6  A    between atoms: C10_20  and  C11_21 
REMARK    7  A    between atoms: C11_21  and  N6_22 
REMARK    8  A    between atoms: C11_21  and  C12_26 
REMARK    9  A    between atoms: C13_29  and  O4_30 
REMARK   10  A    between atoms: C14_32  and  O5_33 
ROOT
HETATM    1  C6  UNL     1      34.779  43.696  39.007  1.00  0.00     0.262 C 
HETATM    2  O1  UNL     1      35.109  42.342  39.105  1.00  0.00    -0.355 OA
HETATM    3  C7  UNL     1      36.363  42.325  39.758  1.00  0.00     0.165 C 
HETATM    4  C13 UNL     1      36.071  43.269  40.906  1.00  0.00     0.180 C 
HETATM    5  C14 UNL     1      35.451  44.416  40.121  1.00  0.00     0.198 C 
ENDROOT
BRANCH   1   6
HETATM    6  N5  UNL     1      33.369  43.903  38.899  1.00  0.00    -0.297 N 
HETATM    7  C3  UNL     1      32.475  43.382  38.038  1.00  0.00     0.142 A 
HETATM    8  N3  UNL     1      32.674  42.511  37.035  1.00  0.00    -0.336 N 
HETATM    9  C4  UNL     1      31.213  43.860  38.297  1.00  0.00     0.119 A 
HETATM   10  C2  UNL     1      31.604  42.139  36.311  1.00  0.00     0.183 A 
ATOM     11  H3  UNL     1      33.604  42.145  36.829  1.00  0.00     0.168 HD
HETATM   12  N2  UNL     1      30.352  42.603  36.553  1.00  0.00    -0.339 N 
HETATM   13  C1  UNL     1      30.112  43.472  37.546  1.00  0.00     0.148 A 
ATOM     14  H2  UNL     1      29.578  42.285  35.969  1.00  0.00     0.167 HD
HETATM   15  N1  UNL     1      28.843  44.003  37.864  1.00  0.00    -0.080 NA
HETATM   16  N4  UNL     1      31.350  44.701  39.351  1.00  0.00    -0.346 N 
HETATM   17  C5  UNL     1      32.645  44.727  39.712  1.00  0.00     0.188 A 
ATOM     18  H4  UNL     1      30.598  45.226  39.796  1.00  0.00     0.167 HD
ENDBRANCH   1   6
BRANCH   5  19
HETATM   19  O5  UNL     1      36.533  45.192  39.667  1.00  0.00    -0.388 OA
ATOM     20  H5  UNL     1      36.504  46.076  40.014  1.00  0.00     0.210 HD
ENDBRANCH   5  19
BRANCH   3  21
HETATM   21  C8  UNL     1      36.706  40.936  40.208  1.00  0.00     0.108 C 
BRANCH  21  22
HETATM   22  S1  UNL     1      37.850  40.250  38.950  1.00  0.00    -0.166 SA
BRANCH  22  23
HETATM   23  C9  UNL     1      38.554  41.645  38.001  1.00  0.00     0.076 C 
BRANCH  23  24
HETATM   24  C10 UNL     1      39.791  41.224  37.288  1.00  0.00     0.054 C 
BRANCH  24  25
HETATM   25  C11 UNL     1      40.526  42.375  36.657  1.00  0.00     0.284 C 
BRANCH  25  26
HETATM   26  N6  UNL     1      41.388  41.922  35.573  1.00  0.00    -0.065 N 
ATOM     27  H63 UNL     1      42.349  42.239  35.702  1.00  0.00     0.275 HD
ATOM     28  H62 UNL     1      41.547  40.916  35.617  1.00  0.00     0.275 HD
ATOM     29  H61 UNL     1      41.020  42.205  34.665  1.00  0.00     0.275 HD
ENDBRANCH  25  26
BRANCH  25  30
HETATM   30  C12 UNL     1      41.358  43.155  37.596  1.00  0.00     0.204 C 
HETATM   31  O2  UNL     1      42.461  42.682  38.040  1.00  0.00    -0.646 OA
HETATM   32  O3  UNL     1      41.040  44.416  38.064  1.00  0.00    -0.646 OA
ENDBRANCH  25  30
ENDBRANCH  24  25
ENDBRANCH  23  24
ENDBRANCH  22  23
ENDBRANCH  21  22
ENDBRANCH   3  21
BRANCH   4  33
HETATM   33  O4  UNL     1      37.237  43.672  41.550  1.00  0.00    -0.390 OA
ATOM     34  H4  UNL     1      37.843  44.092  40.951  1.00  0.00     0.210 HD
ENDBRANCH   4  33
TORSDOF 10
ENDMDL
