MODEL 3
REMARK VINA RESULT: -8.341851254      2.922      6.661
REMARK  10 active torsions:
REMARK  status: ('A' for Active; 'I' for Inactive)
REMARK    1  A    between atoms: N5_13  and  C6_14 
REMARK    2  A    between atoms: C7_16  and  C8_17 
REMARK    3  A    between atoms: C8_17  and  S1_18 
REMARK    4  A    between atoms: S1_18  and  C9_19 
REMARK    5  A    between atoms: C9_19  and  C10_20 
REMARK    6  A    between atoms: C10_20  and  C11_21 
REMARK    7  A    between atoms: C11_21  and  N6_22 
REMARK    8  A    between atoms: C11_21  and  C12_26 
REMARK    9  A    between atoms: C13_29  and  O4_30 
REMARK   10  A    between atoms: C14_32  and  O5_33 
ROOT
HETATM    1  C6  UNL     1      35.301  42.512  41.919  1.00  0.00     0.262 C 
HETATM    2  O1  UNL     1      34.102  43.161  41.611  1.00  0.00    -0.355 OA
HETATM    3  C7  UNL     1      34.497  44.422  41.107  1.00  0.00     0.165 C 
HETATM    4  C13 UNL     1      35.568  43.989  40.128  1.00  0.00     0.180 C 
HETATM    5  C14 UNL     1      36.363  43.063  41.038  1.00  0.00     0.198 C 
ENDROOT
BRANCH   1   6
HETATM    6  N5  UNL     1      35.163  41.090  41.907  1.00  0.00    -0.297 N 
HETATM    7  C3  UNL     1      35.636  40.176  41.039  1.00  0.00     0.142 A 
HETATM    8  N3  UNL     1      36.378  40.362  39.934  1.00  0.00    -0.336 N 
HETATM    9  C4  UNL     1      35.261  38.908  41.414  1.00  0.00     0.119 A 
HETATM   10  C2  UNL     1      36.728  39.273  39.228  1.00  0.00     0.183 A 
ATOM     11  H3  UNL     1      36.665  41.296  39.642  1.00  0.00     0.168 HD
HETATM   12  N2  UNL     1      36.364  38.014  39.584  1.00  0.00    -0.339 N 
HETATM   13  C1  UNL     1      35.626  37.787  40.679  1.00  0.00     0.148 A 
ATOM     14  H2  UNL     1      36.659  37.226  39.007  1.00  0.00     0.167 HD
HETATM   15  N1  UNL     1      35.205  36.513  41.120  1.00  0.00    -0.080 NA
HETATM   16  N4  UNL     1      34.535  39.062  42.548  1.00  0.00    -0.346 N 
HETATM   17  C5  UNL     1      34.477  40.372  42.843  1.00  0.00     0.188 A 
ATOM     18  H4  UNL     1      34.106  38.310  43.087  1.00  0.00     0.167 HD
ENDBRANCH   1   6
BRANCH   5  19
HETATM   19  O5  UNL     1      37.250  43.897  41.743  1.00  0.00    -0.388 OA
ATOM     20  H5  UNL     1      38.156  43.656  41.596  1.00  0.00     0.210 HD
ENDBRANCH   5  19
BRANCH   3  21
HETATM   21  C8  UNL     1      33.341  45.115  40.450  1.00  0.00     0.108 C 
BRANCH  21  22
HETATM   22  S1  UNL     1      32.487  43.851  39.434  1.00  0.00    -0.166 SA
BRANCH  22  23
HETATM   23  C9  UNL     1      32.890  44.166  37.678  1.00  0.00     0.076 C 
BRANCH  23  24
HETATM   24  C10 UNL     1      31.688  43.978  36.821  1.00  0.00     0.054 C 
BRANCH  24  25
HETATM   25  C11 UNL     1      30.977  42.678  37.081  1.00  0.00     0.284 C 
BRANCH  25  26
HETATM   26  N6  UNL     1      31.332  41.673  36.088  1.00  0.00    -0.065 N 
ATOM     27  H63 UNL     1      32.336  41.659  35.911  1.00  0.00     0.275 HD
ATOM     28  H62 UNL     1      31.224  40.729  36.456  1.00  0.00     0.275 HD
ATOM     29  H61 UNL     1      30.802  41.802  35.226  1.00  0.00     0.275 HD
ENDBRANCH  25  26
BRANCH  25  30
HETATM   30  C12 UNL     1      29.505  42.783  37.108  1.00  0.00     0.204 C 
HETATM   31  O2  UNL     1      28.923  43.614  37.890  1.00  0.00    -0.646 OA
HETATM   32  O3  UNL     1      28.650  42.030  36.325  1.00  0.00    -0.646 OA
ENDBRANCH  25  30
ENDBRANCH  24  25
ENDBRANCH  23  24
ENDBRANCH  22  23
ENDBRANCH  21  22
ENDBRANCH   3  21
BRANCH   4  33
HETATM   33  O4  UNL     1      36.342  45.064  39.702  1.00  0.00    -0.390 OA
ATOM     34  H4  UNL     1      35.811  45.833  39.529  1.00  0.00     0.210 HD
ENDBRANCH   4  33
TORSDOF 10
ENDMDL
