MODEL 2
REMARK VINA RESULT: -8.359489305      2.519      7.101
REMARK  10 active torsions:
REMARK  status: ('A' for Active; 'I' for Inactive)
REMARK    1  A    between atoms: N5_13  and  C6_14 
REMARK    2  A    between atoms: C7_16  and  C8_17 
REMARK    3  A    between atoms: C8_17  and  S1_18 
REMARK    4  A    between atoms: S1_18  and  C9_19 
REMARK    5  A    between atoms: C9_19  and  C10_20 
REMARK    6  A    between atoms: C10_20  and  C11_21 
REMARK    7  A    between atoms: C11_21  and  N6_22 
REMARK    8  A    between atoms: C11_21  and  C12_26 
REMARK    9  A    between atoms: C13_29  and  O4_30 
REMARK   10  A    between atoms: C14_32  and  O5_33 
ROOT
HETATM    1  C6  UNL     1      35.284  42.297  41.580  1.00  0.00     0.262 C 
HETATM    2  O1  UNL     1      34.155  42.789  40.919  1.00  0.00    -0.355 OA
HETATM    3  C7  UNL     1      34.519  44.093  40.511  1.00  0.00     0.165 C 
HETATM    4  C13 UNL     1      35.873  43.806  39.896  1.00  0.00     0.180 C 
HETATM    5  C14 UNL     1      36.479  42.985  41.025  1.00  0.00     0.198 C 
ENDROOT
BRANCH   1   6
HETATM    6  N5  UNL     1      35.334  40.869  41.574  1.00  0.00    -0.297 N 
HETATM    7  C3  UNL     1      35.188  39.987  42.581  1.00  0.00     0.142 A 
HETATM    8  N3  UNL     1      34.949  40.220  43.882  1.00  0.00    -0.336 N 
HETATM    9  C4  UNL     1      35.314  38.698  42.121  1.00  0.00     0.119 A 
HETATM   10  C2  UNL     1      34.843  39.156  44.696  1.00  0.00     0.183 A 
ATOM     11  H3  UNL     1      34.853  41.171  44.240  1.00  0.00     0.168 HD
HETATM   12  N2  UNL     1      34.966  37.877  44.258  1.00  0.00    -0.339 N 
HETATM   13  C1  UNL     1      35.202  37.603  42.968  1.00  0.00     0.148 A 
ATOM     14  H2  UNL     1      34.876  37.109  44.924  1.00  0.00     0.167 HD
HETATM   15  N1  UNL     1      35.344  36.305  42.430  1.00  0.00    -0.080 NA
HETATM   16  N4  UNL     1      35.545  38.806  40.790  1.00  0.00    -0.346 N 
HETATM   17  C5  UNL     1      35.558  40.109  40.463  1.00  0.00     0.188 A 
ATOM     18  H4  UNL     1      35.686  38.028  40.145  1.00  0.00     0.167 HD
ENDBRANCH   1   6
BRANCH   5  19
HETATM   19  O5  UNL     1      37.013  43.921  41.929  1.00  0.00    -0.388 OA
ATOM     20  H5  UNL     1      37.778  44.358  41.576  1.00  0.00     0.210 HD
ENDBRANCH   5  19
BRANCH   3  21
HETATM   21  C8  UNL     1      33.526  44.637  39.527  1.00  0.00     0.108 C 
BRANCH  21  22
HETATM   22  S1  UNL     1      33.478  43.451  38.130  1.00  0.00    -0.166 SA
BRANCH  22  23
HETATM   23  C9  UNL     1      32.168  43.989  36.973  1.00  0.00     0.076 C 
BRANCH  23  24
HETATM   24  C10 UNL     1      31.480  42.813  36.374  1.00  0.00     0.054 C 
BRANCH  24  25
HETATM   25  C11 UNL     1      30.195  42.464  37.074  1.00  0.00     0.284 C 
BRANCH  25  26
HETATM   26  N6  UNL     1      29.208  41.941  36.139  1.00  0.00    -0.065 N 
ATOM     27  H63 UNL     1      28.639  42.687  35.739  1.00  0.00     0.275 HD
ATOM     28  H62 UNL     1      29.647  41.602  35.283  1.00  0.00     0.275 HD
ATOM     29  H61 UNL     1      28.631  41.222  36.574  1.00  0.00     0.275 HD
ENDBRANCH  25  26
BRANCH  25  30
HETATM   30  C12 UNL     1      29.573  43.590  37.800  1.00  0.00     0.204 C 
HETATM   31  O2  UNL     1      28.479  44.110  37.387  1.00  0.00    -0.646 OA
HETATM   32  O3  UNL     1      30.089  44.164  38.947  1.00  0.00    -0.646 OA
ENDBRANCH  25  30
ENDBRANCH  24  25
ENDBRANCH  23  24
ENDBRANCH  22  23
ENDBRANCH  21  22
ENDBRANCH   3  21
BRANCH   4  33
HETATM   33  O4  UNL     1      36.598  44.973  39.677  1.00  0.00    -0.390 OA
ATOM     34  H4  UNL     1      36.604  45.533  40.444  1.00  0.00     0.210 HD
ENDBRANCH   4  33
TORSDOF 10
ENDMDL
