MODEL 3
REMARK VINA RESULT: -5.877219125      0.879      1.341
REMARK  4 active torsions:
REMARK  status: ('A' for Active; 'I' for Inactive)
REMARK    1  A    between atoms: N1_2  and  C1_4 
REMARK    2  A    between atoms: C4_7  and  O3_8 
REMARK    3  A    between atoms: C5_10  and  O4_11 
REMARK    4  A    between atoms: O4_11  and  S1_12 
ROOT
HETATM    1  C1  UNL     1       2.144 -12.229  72.843  1.00  0.00     0.105 A 
HETATM    2  C2  UNL     1       0.822 -11.911  73.074  1.00  0.00     0.039 A 
HETATM    3  C3  UNL     1       0.503 -10.731  73.723  1.00  0.00     0.042 A 
HETATM    4  C4  UNL     1       1.539  -9.903  74.120  1.00  0.00     0.100 A 
HETATM    5  C5  UNL     1       2.867 -10.203  73.898  1.00  0.00     0.127 A 
HETATM    6  C6  UNL     1       3.154 -11.387  73.249  1.00  0.00     0.077 A 
ENDROOT
BRANCH   5   7
HETATM    7  O4  UNL     1       3.912  -9.376  74.294  1.00  0.00    -0.211 OA
BRANCH   7   8
HETATM    8  S1  UNL     1       5.310  -9.272  73.271  1.00  0.00     0.257 S 
HETATM    9  O5  UNL     1       5.811  -7.578  74.429  1.00  0.00    -0.572 OA
HETATM   10  O6  UNL     1       5.145  -8.723  72.095  1.00  0.00    -0.572 OA
HETATM   11  O7  UNL     1       6.473 -10.078  73.929  1.00  0.00    -0.572 OA
ENDBRANCH   7   8
ENDBRANCH   5   7
BRANCH   4  12
HETATM   12  O3  UNL     1       1.247  -8.702  74.779  1.00  0.00    -0.358 OA
ATOM     13  H3  UNL     1       1.494  -7.877  74.377  1.00  0.00     0.217 HD
ENDBRANCH   4  12
BRANCH   1  14
HETATM   14  N1  UNL     1       2.461 -13.460  72.168  1.00  0.00    -0.116 N 
HETATM   15  O1  UNL     1       1.597 -14.326  71.981  1.00  0.00    -0.532 OA
HETATM   16  O2  UNL     1       3.722 -13.697  71.721  1.00  0.00    -0.532 OA
ENDBRANCH   1  14
TORSDOF 4
ENDMDL
