MODEL 1
REMARK VINA RESULT: -6.818398371      0.000      0.000
REMARK  4 active torsions:
REMARK  status: ('A' for Active; 'I' for Inactive)
REMARK    1  A    between atoms: N1_2  and  C1_4 
REMARK    2  A    between atoms: C4_7  and  O3_8 
REMARK    3  A    between atoms: C5_10  and  O4_11 
REMARK    4  A    between atoms: O4_11  and  S1_12 
ROOT
HETATM    1  C1  UNL     1       2.300 -12.422  72.958  1.00  0.00     0.105 A 
HETATM    2  C2  UNL     1       1.356 -12.095  73.909  1.00  0.00     0.039 A 
HETATM    3  C3  UNL     1       1.381 -10.842  74.497  1.00  0.00     0.042 A 
HETATM    4  C4  UNL     1       2.364  -9.953  74.100  1.00  0.00     0.100 A 
HETATM    5  C5  UNL     1       3.316 -10.261  73.151  1.00  0.00     0.127 A 
HETATM    6  C6  UNL     1       3.267 -11.519  72.583  1.00  0.00     0.077 A 
ENDROOT
BRANCH   5   7
HETATM    7  O4  UNL     1       4.307  -9.374  72.749  1.00  0.00    -0.211 OA
BRANCH   7   8
HETATM    8  S1  UNL     1       5.654  -9.109  73.812  1.00  0.00     0.257 S 
HETATM    9  O5  UNL     1       6.239  -7.637  72.415  1.00  0.00    -0.572 OA
HETATM   10  O6  UNL     1       6.656  -9.945  73.719  1.00  0.00    -0.572 OA
HETATM   11  O7  UNL     1       5.271  -7.998  74.838  1.00  0.00    -0.572 OA
ENDBRANCH   7   8
ENDBRANCH   5   7
BRANCH   4  12
HETATM   12  O3  UNL     1       2.414  -8.678  74.677  1.00  0.00    -0.358 OA
ATOM     13  H3  UNL     1       2.513  -8.594  75.618  1.00  0.00     0.217 HD
ENDBRANCH   4  12
BRANCH   1  14
HETATM   14  N1  UNL     1       2.263 -13.729  72.355  1.00  0.00    -0.116 N 
HETATM   15  O1  UNL     1       1.297 -14.484  72.526  1.00  0.00    -0.532 OA
HETATM   16  O2  UNL     1       3.294 -14.163  71.584  1.00  0.00    -0.532 OA
ENDBRANCH   1  14
TORSDOF 4
ENDMDL
