MODEL 5
REMARK VINA RESULT: -5.401505765      2.590      5.136
REMARK  4 active torsions:
REMARK  status: ('A' for Active; 'I' for Inactive)
REMARK    1  A    between atoms: N1_2  and  C1_4 
REMARK    2  A    between atoms: C4_7  and  O3_8 
REMARK    3  A    between atoms: C5_10  and  O4_11 
REMARK    4  A    between atoms: O4_11  and  S1_12 
ROOT
HETATM    1  C1  UNL     1       3.636  -9.766  73.847  1.00  0.00     0.105 A 
HETATM    2  C2  UNL     1       2.739  -9.399  74.829  1.00  0.00     0.039 A 
HETATM    3  C3  UNL     1       1.465  -9.940  74.832  1.00  0.00     0.042 A 
HETATM    4  C4  UNL     1       1.136 -10.843  73.835  1.00  0.00     0.100 A 
HETATM    5  C5  UNL     1       2.018 -11.222  72.845  1.00  0.00     0.127 A 
HETATM    6  C6  UNL     1       3.281 -10.665  72.867  1.00  0.00     0.077 A 
ENDROOT
BRANCH   5   7
HETATM    7  O4  UNL     1       1.694 -12.126  71.841  1.00  0.00    -0.211 OA
BRANCH   7   8
HETATM    8  S1  UNL     1       1.845 -13.822  72.182  1.00  0.00     0.257 S 
HETATM    9  O5  UNL     1       0.915 -14.100  70.306  1.00  0.00    -0.572 OA
HETATM   10  O6  UNL     1       0.951 -14.349  72.978  1.00  0.00    -0.572 OA
HETATM   11  O7  UNL     1       3.200 -14.331  71.597  1.00  0.00    -0.572 OA
ENDBRANCH   7   8
ENDBRANCH   5   7
BRANCH   4  12
HETATM   12  O3  UNL     1      -0.146 -11.407  73.813  1.00  0.00    -0.358 OA
ATOM     13  H3  UNL     1      -0.241 -12.347  73.716  1.00  0.00     0.217 HD
ENDBRANCH   4  12
BRANCH   1  14
HETATM   14  N1  UNL     1       4.956  -9.194  73.855  1.00  0.00    -0.116 N 
HETATM   15  O1  UNL     1       5.238  -8.249  74.603  1.00  0.00    -0.532 OA
HETATM   16  O2  UNL     1       5.925  -9.682  73.037  1.00  0.00    -0.532 OA
ENDBRANCH   1  14
TORSDOF 4
ENDMDL
