MODEL 4
REMARK VINA RESULT: -5.735501779      3.122      5.394
REMARK  4 active torsions:
REMARK  status: ('A' for Active; 'I' for Inactive)
REMARK    1  A    between atoms: N1_2  and  C1_4 
REMARK    2  A    between atoms: C4_7  and  O3_8 
REMARK    3  A    between atoms: C5_10  and  O4_11 
REMARK    4  A    between atoms: O4_11  and  S1_12 
ROOT
HETATM    1  C1  UNL     1       3.982  -9.687  73.678  1.00  0.00     0.105 A 
HETATM    2  C2  UNL     1       4.064 -10.855  72.950  1.00  0.00     0.039 A 
HETATM    3  C3  UNL     1       2.974 -11.707  72.895  1.00  0.00     0.042 A 
HETATM    4  C4  UNL     1       1.828 -11.347  73.582  1.00  0.00     0.100 A 
HETATM    5  C5  UNL     1       1.726 -10.183  74.315  1.00  0.00     0.127 A 
HETATM    6  C6  UNL     1       2.830  -9.354  74.352  1.00  0.00     0.077 A 
ENDROOT
BRANCH   5   7
HETATM    7  O4  UNL     1       0.579  -9.815  75.008  1.00  0.00    -0.211 OA
BRANCH   7   8
HETATM    8  S1  UNL     1      -0.770  -9.207  74.100  1.00  0.00     0.257 S 
HETATM    9  O5  UNL     1      -1.754 -10.970  74.720  1.00  0.00    -0.572 OA
HETATM   10  O6  UNL     1      -0.742  -9.386  72.805  1.00  0.00    -0.572 OA
HETATM   11  O7  UNL     1      -1.671  -8.358  75.051  1.00  0.00    -0.572 OA
ENDBRANCH   7   8
ENDBRANCH   5   7
BRANCH   4  12
HETATM   12  O3  UNL     1       0.709 -12.188  73.544  1.00  0.00    -0.358 OA
ATOM     13  H3  UNL     1       0.808 -13.107  73.764  1.00  0.00     0.217 HD
ENDBRANCH   4  12
BRANCH   1  14
HETATM   14  N1  UNL     1       5.124  -8.811  73.727  1.00  0.00    -0.116 N 
HETATM   15  O1  UNL     1       5.336  -8.095  74.715  1.00  0.00    -0.532 OA
HETATM   16  O2  UNL     1       5.994  -8.752  72.686  1.00  0.00    -0.532 OA
ENDBRANCH   1  14
TORSDOF 4
ENDMDL
