MODEL 6
REMARK VINA RESULT: -5.352334712      3.207      5.397
REMARK  4 active torsions:
REMARK  status: ('A' for Active; 'I' for Inactive)
REMARK    1  A    between atoms: N1_2  and  C1_4 
REMARK    2  A    between atoms: C4_7  and  O3_8 
REMARK    3  A    between atoms: C5_10  and  O4_11 
REMARK    4  A    between atoms: O4_11  and  S1_12 
ROOT
HETATM    1  C1  UNL     1       3.781  -9.775  73.762  1.00  0.00     0.105 A 
HETATM    2  C2  UNL     1       3.710 -10.970  73.076  1.00  0.00     0.039 A 
HETATM    3  C3  UNL     1       2.530 -11.694  73.080  1.00  0.00     0.042 A 
HETATM    4  C4  UNL     1       1.451 -11.183  73.780  1.00  0.00     0.100 A 
HETATM    5  C5  UNL     1       1.502  -9.990  74.472  1.00  0.00     0.127 A 
HETATM    6  C6  UNL     1       2.693  -9.291  74.451  1.00  0.00     0.077 A 
ENDROOT
BRANCH   5   7
HETATM    7  O4  UNL     1       0.423  -9.472  75.178  1.00  0.00    -0.211 OA
BRANCH   7   8
HETATM    8  S1  UNL     1      -1.167  -9.672  74.512  1.00  0.00     0.257 S 
HETATM    9  O5  UNL     1      -1.485  -7.679  75.133  1.00  0.00    -0.572 OA
HETATM   10  O6  UNL     1      -2.045 -10.300  75.251  1.00  0.00    -0.572 OA
HETATM   11  O7  UNL     1      -1.147  -9.215  73.020  1.00  0.00    -0.572 OA
ENDBRANCH   7   8
ENDBRANCH   5   7
BRANCH   4  12
HETATM   12  O3  UNL     1       0.244 -11.893  73.800  1.00  0.00    -0.358 OA
ATOM     13  H3  UNL     1       0.019 -12.410  74.565  1.00  0.00     0.217 HD
ENDBRANCH   4  12
BRANCH   1  14
HETATM   14  N1  UNL     1       5.014  -9.034  73.752  1.00  0.00    -0.116 N 
HETATM   15  O1  UNL     1       5.261  -8.194  74.627  1.00  0.00    -0.532 OA
HETATM   16  O2  UNL     1       5.936  -9.241  72.776  1.00  0.00    -0.532 OA
ENDBRANCH   1  14
TORSDOF 4
ENDMDL
