MODEL 4
REMARK VINA RESULT: -3.931450847      1.189      1.502
REMARK  4 active torsions:
REMARK  status: ('A' for Active; 'I' for Inactive)
REMARK    1  A    between atoms: N1_1  and  C1_5 
REMARK    2  A    between atoms: C1_5  and  C2_6 
REMARK    3  A    between atoms: C1_5  and  C3_9 
REMARK    4  A    between atoms: C2_6  and  O1_7 
ROOT
HETATM    1  C1  UNL     1      21.044  39.859  40.099  1.00  0.00     0.306 C 
ENDROOT
BRANCH   1   2
HETATM    2  N1  UNL     1      19.804  40.596  40.096  1.00  0.00    -0.063 N 
ATOM      3  H13 UNL     1      19.085  40.131  40.651  1.00  0.00     0.275 HD
ATOM      4  H12 UNL     1      19.877  41.460  40.633  1.00  0.00     0.275 HD
ATOM      5  H11 UNL     1      19.492  40.769  39.140  1.00  0.00     0.275 HD
ENDBRANCH   1   2
BRANCH   1   6
HETATM    6  C2  UNL     1      21.227  39.130  41.416  1.00  0.00     0.208 C 
BRANCH   6   7
HETATM    7  O1  UNL     1      21.663  40.005  42.392  1.00  0.00    -0.398 OA
ATOM      8  H1  UNL     1      21.526  40.904  42.115  1.00  0.00     0.209 HD
ENDBRANCH   6   7
ENDBRANCH   1   6
BRANCH   1   9
HETATM    9  C3  UNL     1      22.181  40.796  39.935  1.00  0.00     0.206 C 
HETATM   10  O2  UNL     1      22.027  41.985  40.246  1.00  0.00    -0.646 OA
HETATM   11  O3  UNL     1      23.386  40.348  39.445  1.00  0.00    -0.646 OA
ENDBRANCH   1   9
TORSDOF 4
ENDMDL
