MODEL 1
REMARK VINA RESULT: -5.138142432      0.000      0.000
REMARK  4 active torsions:
REMARK  status: ('A' for Active; 'I' for Inactive)
REMARK    1  A    between atoms: N1_1  and  C1_5 
REMARK    2  A    between atoms: C1_5  and  C2_6 
REMARK    3  A    between atoms: C1_5  and  C3_9 
REMARK    4  A    between atoms: C2_6  and  O1_7 
ROOT
HETATM    1  C1  UNL     1      21.332  40.450  40.060  1.00  0.00     0.306 C 
ENDROOT
BRANCH   1   2
HETATM    2  N1  UNL     1      21.167  41.807  40.520  1.00  0.00    -0.063 N 
ATOM      3  H13 UNL     1      20.310  41.922  41.061  1.00  0.00     0.275 HD
ATOM      4  H12 UNL     1      21.841  42.045  41.247  1.00  0.00     0.275 HD
ATOM      5  H11 UNL     1      21.210  42.459  39.736  1.00  0.00     0.275 HD
ENDBRANCH   1   2
BRANCH   1   6
HETATM    6  C2  UNL     1      21.087  39.471  41.191  1.00  0.00     0.208 C 
BRANCH   6   7
HETATM    7  O1  UNL     1      21.629  39.951  42.368  1.00  0.00    -0.398 OA
ATOM      8  H1  UNL     1      21.553  39.300  43.056  1.00  0.00     0.209 HD
ENDBRANCH   6   7
ENDBRANCH   1   6
BRANCH   1   9
HETATM    9  C3  UNL     1      22.721  40.252  39.580  1.00  0.00     0.206 C 
HETATM   10  O2  UNL     1      23.250  39.140  39.718  1.00  0.00    -0.646 OA
HETATM   11  O3  UNL     1      23.408  41.287  38.992  1.00  0.00    -0.646 OA
ENDBRANCH   1   9
TORSDOF 4
ENDMDL
