MODEL 2
REMARK VINA RESULT: -5.042129675      0.122      1.218
REMARK  4 active torsions:
REMARK  status: ('A' for Active; 'I' for Inactive)
REMARK    1  A    between atoms: N1_1  and  C1_5 
REMARK    2  A    between atoms: C1_5  and  C2_6 
REMARK    3  A    between atoms: C1_5  and  C3_9 
REMARK    4  A    between atoms: C2_6  and  O1_7 
ROOT
HETATM    1  C1  UNL     1      21.334  40.572  40.099  1.00  0.00     0.306 C 
ENDROOT
BRANCH   1   2
HETATM    2  N1  UNL     1      21.263  41.909  40.636  1.00  0.00    -0.063 N 
ATOM      3  H13 UNL     1      21.322  42.616  39.903  1.00  0.00     0.275 HD
ATOM      4  H12 UNL     1      20.330  42.128  40.985  1.00  0.00     0.275 HD
ATOM      5  H11 UNL     1      21.977  42.046  41.352  1.00  0.00     0.275 HD
ENDBRANCH   1   2
BRANCH   1   6
HETATM    6  C2  UNL     1      21.023  39.550  41.173  1.00  0.00     0.208 C 
BRANCH   6   7
HETATM    7  O1  UNL     1      21.612  39.915  42.369  1.00  0.00    -0.398 OA
ATOM      8  H1  UNL     1      21.197  40.696  42.716  1.00  0.00     0.209 HD
ENDBRANCH   6   7
ENDBRANCH   1   6
BRANCH   1   9
HETATM    9  C3  UNL     1      22.706  40.308  39.601  1.00  0.00     0.206 C 
HETATM   10  O2  UNL     1      23.365  41.246  39.134  1.00  0.00    -0.646 OA
HETATM   11  O3  UNL     1      23.234  39.039  39.659  1.00  0.00    -0.646 OA
ENDBRANCH   1   9
TORSDOF 4
ENDMDL
