MODEL 3
REMARK VINA RESULT: -4.007416754      1.835      1.900
REMARK  4 active torsions:
REMARK  status: ('A' for Active; 'I' for Inactive)
REMARK    1  A    between atoms: N1_1  and  C1_5 
REMARK    2  A    between atoms: C1_5  and  C2_6 
REMARK    3  A    between atoms: C1_5  and  C3_9 
REMARK    4  A    between atoms: C2_6  and  O1_7 
ROOT
HETATM    1  C1  UNL     1      21.647  40.032  40.876  1.00  0.00     0.306 C 
ENDROOT
BRANCH   1   2
HETATM    2  N1  UNL     1      21.542  38.725  41.476  1.00  0.00    -0.063 N 
ATOM      3  H13 UNL     1      20.654  38.601  41.961  1.00  0.00     0.275 HD
ATOM      4  H12 UNL     1      21.436  37.993  40.773  1.00  0.00     0.275 HD
ATOM      5  H11 UNL     1      22.337  38.547  42.090  1.00  0.00     0.275 HD
ENDBRANCH   1   2
BRANCH   1   6
HETATM    6  C2  UNL     1      20.338  40.425  40.222  1.00  0.00     0.208 C 
BRANCH   6   7
HETATM    7  O1  UNL     1      20.320  41.781  39.959  1.00  0.00    -0.398 OA
ATOM      8  H1  UNL     1      19.687  42.218  40.518  1.00  0.00     0.209 HD
ENDBRANCH   6   7
ENDBRANCH   1   6
BRANCH   1   9
HETATM    9  C3  UNL     1      22.694  40.016  39.826  1.00  0.00     0.206 C 
HETATM   10  O2  UNL     1      23.069  38.927  39.371  1.00  0.00    -0.646 OA
HETATM   11  O3  UNL     1      23.239  41.193  39.369  1.00  0.00    -0.646 OA
ENDBRANCH   1   9
TORSDOF 4
ENDMDL
