MODEL 8
REMARK VINA RESULT: -3.626719433      6.871      7.513
REMARK  4 active torsions:
REMARK  status: ('A' for Active; 'I' for Inactive)
REMARK    1  A    between atoms: N1_1  and  C1_5 
REMARK    2  A    between atoms: C1_5  and  C2_6 
REMARK    3  A    between atoms: C1_5  and  C3_9 
REMARK    4  A    between atoms: C2_6  and  O1_7 
ROOT
HETATM    1  C1  UNL     1      26.516  39.185  45.464  1.00  0.00     0.306 C 
ENDROOT
BRANCH   1   2
HETATM    2  N1  UNL     1      26.886  37.798  45.320  1.00  0.00    -0.063 N 
ATOM      3  H13 UNL     1      26.087  37.217  45.070  1.00  0.00     0.275 HD
ATOM      4  H12 UNL     1      27.455  37.643  44.488  1.00  0.00     0.275 HD
ATOM      5  H11 UNL     1      27.350  37.461  46.165  1.00  0.00     0.275 HD
ENDBRANCH   1   2
BRANCH   1   6
HETATM    6  C2  UNL     1      27.428  39.880  46.455  1.00  0.00     0.208 C 
BRANCH   6   7
HETATM    7  O1  UNL     1      27.496  41.232  46.177  1.00  0.00    -0.398 OA
ATOM      8  H1  UNL     1      27.191  41.738  46.922  1.00  0.00     0.209 HD
ENDBRANCH   6   7
ENDBRANCH   1   6
BRANCH   1   9
HETATM    9  C3  UNL     1      25.128  39.279  45.977  1.00  0.00     0.206 C 
HETATM   10  O2  UNL     1      24.394  38.285  45.903  1.00  0.00    -0.646 OA
HETATM   11  O3  UNL     1      24.668  40.453  46.526  1.00  0.00    -0.646 OA
ENDBRANCH   1   9
TORSDOF 4
ENDMDL
