MODEL 5
REMARK VINA RESULT: -3.730454034      7.675      8.182
REMARK  4 active torsions:
REMARK  status: ('A' for Active; 'I' for Inactive)
REMARK    1  A    between atoms: N1_1  and  C1_5 
REMARK    2  A    between atoms: C1_5  and  C2_6 
REMARK    3  A    between atoms: C1_5  and  C3_9 
REMARK    4  A    between atoms: C2_6  and  O1_7 
ROOT
HETATM    1  C1  UNL     1      27.652  37.966  46.364  1.00  0.00     0.306 C 
ENDROOT
BRANCH   1   2
HETATM    2  N1  UNL     1      28.535  38.917  46.994  1.00  0.00    -0.063 N 
ATOM      3  H13 UNL     1      29.210  39.303  46.332  1.00  0.00     0.275 HD
ATOM      4  H12 UNL     1      28.050  39.780  47.238  1.00  0.00     0.275 HD
ATOM      5  H11 UNL     1      28.995  38.499  47.803  1.00  0.00     0.275 HD
ENDBRANCH   1   2
BRANCH   1   6
HETATM    6  C2  UNL     1      28.430  37.042  45.450  1.00  0.00     0.208 C 
BRANCH   6   7
HETATM    7  O1  UNL     1      27.793  36.928  44.228  1.00  0.00    -0.398 OA
ATOM      8  H1  UNL     1      28.027  36.108  43.809  1.00  0.00     0.209 HD
ENDBRANCH   6   7
ENDBRANCH   1   6
BRANCH   1   9
HETATM    9  C3  UNL     1      26.651  38.686  45.541  1.00  0.00     0.206 C 
HETATM   10  O2  UNL     1      27.042  39.535  44.729  1.00  0.00    -0.646 OA
HETATM   11  O3  UNL     1      25.310  38.412  45.680  1.00  0.00    -0.646 OA
ENDBRANCH   1   9
TORSDOF 4
ENDMDL
