MODEL 7
REMARK VINA RESULT: -3.691694607      8.602      8.932
REMARK  4 active torsions:
REMARK  status: ('A' for Active; 'I' for Inactive)
REMARK    1  A    between atoms: N1_1  and  C1_5 
REMARK    2  A    between atoms: C1_5  and  C2_6 
REMARK    3  A    between atoms: C1_5  and  C3_9 
REMARK    4  A    between atoms: C2_6  and  O1_7 
ROOT
HETATM    1  C1  UNL     1      27.505  37.658  46.070  1.00  0.00     0.306 C 
ENDROOT
BRANCH   1   2
HETATM    2  N1  UNL     1      26.688  38.387  45.131  1.00  0.00    -0.063 N 
ATOM      3  H13 UNL     1      26.273  39.217  45.554  1.00  0.00     0.275 HD
ATOM      4  H12 UNL     1      27.252  38.846  44.415  1.00  0.00     0.275 HD
ATOM      5  H11 UNL     1      25.981  37.776  44.721  1.00  0.00     0.275 HD
ENDBRANCH   1   2
BRANCH   1   6
HETATM    6  C2  UNL     1      28.337  38.612  46.904  1.00  0.00     0.208 C 
BRANCH   6   7
HETATM    7  O1  UNL     1      29.674  38.497  46.574  1.00  0.00    -0.398 OA
ATOM      8  H1  UNL     1      30.061  39.358  46.463  1.00  0.00     0.209 HD
ENDBRANCH   6   7
ENDBRANCH   1   6
BRANCH   1   9
HETATM    9  C3  UNL     1      28.434  36.766  45.336  1.00  0.00     0.206 C 
HETATM   10  O2  UNL     1      28.541  36.894  44.108  1.00  0.00    -0.646 OA
HETATM   11  O3  UNL     1      29.162  35.814  46.009  1.00  0.00    -0.646 OA
ENDBRANCH   1   9
TORSDOF 4
ENDMDL
