MODEL 5
REMARK VINA RESULT: -3.511693154      6.745      7.069
REMARK  1 active torsions:
REMARK  status: ('A' for Active; 'I' for Inactive)
REMARK    1  A    between atoms: N1_1  and  C1_5 
ROOT
HETATM    1  C1  UNL     1      26.192  38.176  46.195  1.00  0.00     0.302 C 
HETATM    2  C2  UNL     1      24.700  37.936  45.956  1.00  0.00     0.244 C 
HETATM    3  O1  UNL     1      24.233  39.112  45.366  1.00  0.00    -0.275 OA
HETATM    4  N2  UNL     1      24.928  40.131  45.923  1.00  0.00    -0.233 N 
ATOM      5  H2  UNL     1      24.571  41.046  46.194  1.00  0.00     0.197 HD
HETATM    6  C3  UNL     1      26.261  39.653  46.050  1.00  0.00     0.274 C 
HETATM    7  O2  UNL     1      27.286  40.408  46.034  1.00  0.00    -0.269 OA
ENDROOT
BRANCH   1   8
HETATM    8  N1  UNL     1      26.975  37.473  45.226  1.00  0.00    -0.064 N 
ATOM      9  H13 UNL     1      27.371  36.614  45.610  1.00  0.00     0.275 HD
ATOM     10  H12 UNL     1      26.394  37.060  44.497  1.00  0.00     0.275 HD
ATOM     11  H11 UNL     1      27.695  38.081  44.837  1.00  0.00     0.275 HD
ENDBRANCH   1   8
TORSDOF 1
ENDMDL
