MODEL 2
REMARK VINA RESULT: -3.901645332      1.864      1.958
REMARK  1 active torsions:
REMARK  status: ('A' for Active; 'I' for Inactive)
REMARK    1  A    between atoms: N1_1  and  C1_5 
ROOT
HETATM    1  C1  UNL     1      21.377  40.772  39.969  1.00  0.00     0.302 C 
HETATM    2  C2  UNL     1      20.945  39.562  40.798  1.00  0.00     0.244 C 
HETATM    3  O1  UNL     1      22.114  38.831  41.012  1.00  0.00    -0.275 OA
HETATM    4  N2  UNL     1      22.867  38.964  39.895  1.00  0.00    -0.233 N 
ATOM      5  H2  UNL     1      23.428  38.246  39.438  1.00  0.00     0.197 HD
HETATM    6  C3  UNL     1      22.711  40.320  39.495  1.00  0.00     0.274 C 
HETATM    7  O2  UNL     1      23.594  40.972  38.849  1.00  0.00    -0.269 OA
ENDROOT
BRANCH   1   8
HETATM    8  N1  UNL     1      21.431  41.946  40.784  1.00  0.00    -0.064 N 
ATOM      9  H13 UNL     1      20.604  42.530  40.662  1.00  0.00     0.275 HD
ATOM     10  H12 UNL     1      21.319  41.726  41.773  1.00  0.00     0.275 HD
ATOM     11  H11 UNL     1      22.291  42.466  40.607  1.00  0.00     0.275 HD
ENDBRANCH   1   8
TORSDOF 1
ENDMDL
