MODEL 3
REMARK VINA RESULT: -3.569916231      8.406      8.935
REMARK  1 active torsions:
REMARK  status: ('A' for Active; 'I' for Inactive)
REMARK    1  A    between atoms: N1_1  and  C1_5 
ROOT
HETATM    1  C1  UNL     1      27.791  37.072  45.804  1.00  0.00     0.302 C 
HETATM    2  C2  UNL     1      26.753  38.162  45.538  1.00  0.00     0.244 C 
HETATM    3  O1  UNL     1      27.449  39.365  45.662  1.00  0.00    -0.275 OA
HETATM    4  N2  UNL     1      28.369  39.184  46.638  1.00  0.00    -0.233 N 
ATOM      5  H2  UNL     1      28.645  39.850  47.359  1.00  0.00     0.197 HD
HETATM    6  C3  UNL     1      28.870  37.868  46.443  1.00  0.00     0.274 C 
HETATM    7  O2  UNL     1      30.043  37.501  46.779  1.00  0.00    -0.269 OA
ENDROOT
BRANCH   1   8
HETATM    8  N1  UNL     1      28.192  36.450  44.579  1.00  0.00    -0.064 N 
ATOM      9  H13 UNL     1      28.987  36.928  44.154  1.00  0.00     0.275 HD
ATOM     10  H12 UNL     1      28.628  35.543  44.740  1.00  0.00     0.275 HD
ATOM     11  H11 UNL     1      27.403  36.383  43.937  1.00  0.00     0.275 HD
ENDBRANCH   1   8
TORSDOF 1
ENDMDL
