MODEL 4
REMARK VINA RESULT: -3.561634066      7.651      7.983
REMARK  1 active torsions:
REMARK  status: ('A' for Active; 'I' for Inactive)
REMARK    1  A    between atoms: N1_1  and  C1_5 
ROOT
HETATM    1  C1  UNL     1      27.508  38.992  46.460  1.00  0.00     0.302 C 
HETATM    2  C2  UNL     1      28.812  38.225  46.238  1.00  0.00     0.244 C 
HETATM    3  O1  UNL     1      28.615  37.508  45.057  1.00  0.00    -0.275 OA
HETATM    4  N2  UNL     1      27.313  37.141  45.036  1.00  0.00    -0.233 N 
ATOM      5  H2  UNL     1      26.926  36.251  44.724  1.00  0.00     0.197 HD
HETATM    6  C3  UNL     1      26.598  38.262  45.540  1.00  0.00     0.274 C 
HETATM    7  O2  UNL     1      25.396  38.535  45.221  1.00  0.00    -0.269 OA
ENDROOT
BRANCH   1   8
HETATM    8  N1  UNL     1      27.673  40.372  46.120  1.00  0.00    -0.064 N 
ATOM      9  H13 UNL     1      26.795  40.886  46.187  1.00  0.00     0.275 HD
ATOM     10  H12 UNL     1      28.200  40.877  46.831  1.00  0.00     0.275 HD
ATOM     11  H11 UNL     1      28.096  40.466  45.197  1.00  0.00     0.275 HD
ENDBRANCH   1   8
TORSDOF 1
ENDMDL
