MODEL 1
REMARK VINA RESULT: -4.031510685      0.000      0.000
REMARK  1 active torsions:
REMARK  status: ('A' for Active; 'I' for Inactive)
REMARK    1  A    between atoms: N1_1  and  C1_5 
ROOT
HETATM    1  C1  UNL     1      21.308  39.734  40.623  1.00  0.00     0.302 C 
HETATM    2  C2  UNL     1      22.177  38.646  39.992  1.00  0.00     0.244 C 
HETATM    3  O1  UNL     1      23.348  39.298  39.600  1.00  0.00    -0.275 OA
HETATM    4  N2  UNL     1      22.988  40.540  39.202  1.00  0.00    -0.233 N 
ATOM      5  H2  UNL     1      23.356  41.065  38.409  1.00  0.00     0.197 HD
HETATM    6  C3  UNL     1      21.989  40.956  40.124  1.00  0.00     0.274 C 
HETATM    7  O2  UNL     1      21.768  42.174  40.424  1.00  0.00    -0.269 OA
ENDROOT
BRANCH   1   8
HETATM    8  N1  UNL     1      21.317  39.621  42.049  1.00  0.00    -0.064 N 
ATOM      9  H13 UNL     1      20.515  39.092  42.393  1.00  0.00     0.275 HD
ATOM     10  H12 UNL     1      22.059  39.001  42.375  1.00  0.00     0.275 HD
ATOM     11  H11 UNL     1      21.376  40.542  42.481  1.00  0.00     0.275 HD
ENDBRANCH   1   8
TORSDOF 1
ENDMDL
