MODEL 1
REMARK VINA RESULT: -8.530759972      0.000      0.000
REMARK  2 active torsions:
REMARK  status: ('A' for Active; 'I' for Inactive)
REMARK    1  A    between atoms: C1_2  and  C2_4 
REMARK    2  A    between atoms: C4_6  and  O3_7 
ROOT
HETATM    1  C2  UNL     1       6.560  36.323 -17.922  1.00  0.00     0.113 A 
HETATM    2  C3  UNL     1       7.078  36.573 -16.690  1.00  0.00     0.074 A 
HETATM    3  C4  UNL     1       6.645  37.631 -15.845  1.00  0.00     0.082 A 
HETATM    4  C5  UNL     1       5.632  38.433 -16.348  1.00  0.00     0.046 A 
HETATM    5  C6  UNL     1       5.105  39.489 -15.664  1.00  0.00     0.051 A 
HETATM    6 CL1  UNL     1       5.687  39.897 -14.088  1.00  0.00    -0.083 Cl
HETATM    7  C7  UNL     1       4.091  40.253 -16.225  1.00  0.00     0.048 A 
HETATM    8  C8  UNL     1       3.611  39.956 -17.468  1.00  0.00     0.037 A 
HETATM    9 CL2  UNL     1       2.320  40.940 -18.163  1.00  0.00    -0.084 Cl
HETATM   10  C9  UNL     1       4.123  38.907 -18.164  1.00  0.00     0.054 A 
HETATM   11  C10 UNL     1       5.133  38.147 -17.605  1.00  0.00     0.049 A 
HETATM   12  N1  UNL     1       5.582  37.124 -18.369  1.00  0.00    -0.350 N 
ATOM     13  H1  UNL     1       5.175  36.962 -19.290  1.00  0.00     0.166 HD
ENDROOT
BRANCH   1  14
HETATM   14  C1  UNL     1       7.066  35.208 -18.727  1.00  0.00     0.227 C 
HETATM   15  O1  UNL     1       6.455  34.748 -19.708  1.00  0.00    -0.643 OA
HETATM   16  O2  UNL     1       8.282  34.626 -18.398  1.00  0.00    -0.643 OA
ENDBRANCH   1  14
BRANCH   3  17
HETATM   17  O3  UNL     1       7.197  37.806 -14.663  1.00  0.00    -0.360 OA
ATOM     18  H3  UNL     1       6.697  37.650 -13.871  1.00  0.00     0.217 HD
ENDBRANCH   3  17
TORSDOF 2
ENDMDL
