MODEL 4
REMARK VINA RESULT: -6.999055183      3.152      5.713
REMARK  2 active torsions:
REMARK  status: ('A' for Active; 'I' for Inactive)
REMARK    1  A    between atoms: C1_2  and  C2_4 
REMARK    2  A    between atoms: C4_6  and  O3_7 
ROOT
HETATM    1  C2  UNL     1       5.141  39.229 -16.120  1.00  0.00     0.113 A 
HETATM    2  C3  UNL     1       5.075  38.767 -17.397  1.00  0.00     0.074 A 
HETATM    3  C4  UNL     1       5.761  37.612 -17.860  1.00  0.00     0.082 A 
HETATM    4  C5  UNL     1       6.534  36.947 -16.920  1.00  0.00     0.046 A 
HETATM    5  C6  UNL     1       7.253  35.824 -17.204  1.00  0.00     0.051 A 
HETATM    6 CL1  UNL     1       7.243  35.148 -18.794  1.00  0.00    -0.083 Cl
HETATM    7  C7  UNL     1       8.007  35.205 -16.215  1.00  0.00     0.048 A 
HETATM    8  C8  UNL     1       8.035  35.716 -14.949  1.00  0.00     0.037 A 
HETATM    9 CL2  UNL     1       8.999  34.913 -13.707  1.00  0.00    -0.084 Cl
HETATM   10  C9  UNL     1       7.324  36.833 -14.649  1.00  0.00     0.054 A 
HETATM   11  C10 UNL     1       6.574  37.449 -15.633  1.00  0.00     0.049 A 
HETATM   12  N1  UNL     1       5.899  38.556 -15.243  1.00  0.00    -0.350 N 
ATOM     13  H1  UNL     1       5.968  38.879 -14.279  1.00  0.00     0.166 HD
ENDROOT
BRANCH   1  14
HETATM   14  C1  UNL     1       4.398  40.431 -15.727  1.00  0.00     0.227 C 
HETATM   15  O1  UNL     1       3.430  40.870 -16.371  1.00  0.00    -0.643 OA
HETATM   16  O2  UNL     1       4.778  41.124 -14.585  1.00  0.00    -0.643 OA
ENDBRANCH   1  14
BRANCH   3  17
HETATM   17  O3  UNL     1       5.646  37.229 -19.114  1.00  0.00    -0.360 OA
ATOM     18  H3  UNL     1       6.401  37.236 -19.690  1.00  0.00     0.217 HD
ENDBRANCH   3  17
TORSDOF 2
ENDMDL
