MODEL 2
REMARK VINA RESULT: -7.127747134      3.137      5.373
REMARK  2 active torsions:
REMARK  status: ('A' for Active; 'I' for Inactive)
REMARK    1  A    between atoms: C1_2  and  C2_4 
REMARK    2  A    between atoms: C4_6  and  O3_7 
ROOT
HETATM    1  C2  UNL     1       4.260  39.360 -17.055  1.00  0.00     0.113 A 
HETATM    2  C3  UNL     1       4.577  38.543 -18.095  1.00  0.00     0.074 A 
HETATM    3  C4  UNL     1       5.543  37.503 -18.021  1.00  0.00     0.082 A 
HETATM    4  C5  UNL     1       6.177  37.348 -16.797  1.00  0.00     0.046 A 
HETATM    5  C6  UNL     1       7.126  36.398 -16.562  1.00  0.00     0.051 A 
HETATM    6 CL1  UNL     1       7.607  35.304 -17.810  1.00  0.00    -0.083 Cl
HETATM    7  C7  UNL     1       7.722  36.295 -15.312  1.00  0.00     0.048 A 
HETATM    8  C8  UNL     1       7.363  37.146 -14.306  1.00  0.00     0.037 A 
HETATM    9 CL2  UNL     1       8.133  36.999 -12.723  1.00  0.00    -0.084 Cl
HETATM   10  C9  UNL     1       6.418  38.098 -14.522  1.00  0.00     0.054 A 
HETATM   11  C10 UNL     1       5.826  38.199 -15.767  1.00  0.00     0.049 A 
HETATM   12  N1  UNL     1       4.896  39.176 -15.890  1.00  0.00    -0.350 N 
ATOM     13  H1  UNL     1       4.680  39.774 -15.093  1.00  0.00     0.166 HD
ENDROOT
BRANCH   1  14
HETATM   14  C1  UNL     1       3.250  40.410 -17.219  1.00  0.00     0.227 C 
HETATM   15  O1  UNL     1       2.981  41.236 -16.330  1.00  0.00    -0.643 OA
HETATM   16  O2  UNL     1       2.550  40.503 -18.415  1.00  0.00    -0.643 OA
ENDBRANCH   1  14
BRANCH   3  17
HETATM   17  O3  UNL     1       5.794  36.752 -19.073  1.00  0.00    -0.360 OA
ATOM     18  H3  UNL     1       6.460  36.077 -19.033  1.00  0.00     0.217 HD
ENDBRANCH   3  17
TORSDOF 2
ENDMDL
