MODEL 6
REMARK VINA RESULT: -6.820076256      3.397      4.907
REMARK  2 active torsions:
REMARK  status: ('A' for Active; 'I' for Inactive)
REMARK    1  A    between atoms: C1_2  and  C2_4 
REMARK    2  A    between atoms: C4_6  and  O3_7 
ROOT
HETATM    1  C2  UNL     1       3.660  39.962 -17.196  1.00  0.00     0.113 A 
HETATM    2  C3  UNL     1       4.223  40.292 -16.003  1.00  0.00     0.074 A 
HETATM    3  C4  UNL     1       5.306  39.586 -15.413  1.00  0.00     0.082 A 
HETATM    4  C5  UNL     1       5.787  38.502 -16.131  1.00  0.00     0.046 A 
HETATM    5  C6  UNL     1       6.821  37.721 -15.705  1.00  0.00     0.051 A 
HETATM    6 CL1  UNL     1       7.611  38.048 -14.203  1.00  0.00    -0.083 Cl
HETATM    7  C7  UNL     1       7.254  36.649 -16.473  1.00  0.00     0.048 A 
HETATM    8  C8  UNL     1       6.649  36.365 -17.663  1.00  0.00     0.037 A 
HETATM    9 CL2  UNL     1       7.216  34.998 -18.626  1.00  0.00    -0.084 Cl
HETATM   10  C9  UNL     1       5.619  37.132 -18.105  1.00  0.00     0.054 A 
HETATM   11  C10 UNL     1       5.187  38.200 -17.339  1.00  0.00     0.049 A 
HETATM   12  N1  UNL     1       4.156  38.907 -17.857  1.00  0.00    -0.350 N 
ATOM     13  H1  UNL     1       3.754  38.636 -18.754  1.00  0.00     0.166 HD
ENDROOT
BRANCH   1  14
HETATM   14  C1  UNL     1       2.544  40.747 -17.731  1.00  0.00     0.227 C 
HETATM   15  O1  UNL     1       2.390  40.966 -18.946  1.00  0.00    -0.643 OA
HETATM   16  O2  UNL     1       1.603  41.279 -16.859  1.00  0.00    -0.643 OA
ENDBRANCH   1  14
BRANCH   3  17
HETATM   17  O3  UNL     1       5.797  39.969 -14.253  1.00  0.00    -0.360 OA
ATOM     18  H3  UNL     1       6.357  39.388 -13.753  1.00  0.00     0.217 HD
ENDBRANCH   3  17
TORSDOF 2
ENDMDL
