MODEL 1
REMARK VINA RESULT: -5.428355238      0.000      0.000
REMARK  3 active torsions:
REMARK  status: ('A' for Active; 'I' for Inactive)
REMARK    1  A    between atoms: C1_2  and  C2_4 
REMARK    2  A    between atoms: C2_4  and  O3_5 
REMARK    3  A    between atoms: O3_5  and  P1_6 
ROOT
HETATM    1  O3  UNL     1      29.300  69.480  11.713  1.00  0.00    -0.272 OA
ENDROOT
BRANCH   1   2
HETATM    2  C2  UNL     1      29.336  70.222  10.575  1.00  0.00     0.295 C 
BRANCH   2   3
HETATM    3  C1  UNL     1      28.035  70.933  10.464  1.00  0.00     0.198 C 
HETATM    4  O1  UNL     1      27.117  70.550   9.674  1.00  0.00    -0.646 OA
HETATM    5  O2  UNL     1      27.745  72.059  11.219  1.00  0.00    -0.646 OA
ENDBRANCH   2   3
ENDBRANCH   1   2
BRANCH   1   6
HETATM    6  P1  UNL     1      30.687  69.803  12.579  1.00  0.00     0.422 P 
HETATM    7  O4  UNL     1      29.875  69.912  13.861  1.00  0.00    -0.617 OA
HETATM    8  O5  UNL     1      31.643  68.617  13.128  1.00  0.00    -0.617 OA
HETATM    9  O6  UNL     1      31.210  71.382  12.712  1.00  0.00    -0.617 OA
ENDBRANCH   1   6
TORSDOF 3
ENDMDL
