MODEL 2
REMARK VINA RESULT: -5.407474815      0.429      1.354
REMARK  3 active torsions:
REMARK  status: ('A' for Active; 'I' for Inactive)
REMARK    1  A    between atoms: C1_2  and  C2_4 
REMARK    2  A    between atoms: C2_4  and  O3_5 
REMARK    3  A    between atoms: O3_5  and  P1_6 
ROOT
HETATM    1  O3  UNL     1      29.602  69.445  11.551  1.00  0.00    -0.272 OA
ENDROOT
BRANCH   1   2
HETATM    2  C2  UNL     1      29.539  70.344  10.534  1.00  0.00     0.295 C 
BRANCH   2   3
HETATM    3  C1  UNL     1      28.155  70.890  10.507  1.00  0.00     0.198 C 
HETATM    4  O1  UNL     1      27.243  70.391   9.778  1.00  0.00    -0.646 OA
HETATM    5  O2  UNL     1      27.779  71.979  11.277  1.00  0.00    -0.646 OA
ENDBRANCH   2   3
ENDBRANCH   1   2
BRANCH   1   6
HETATM    6  P1  UNL     1      30.585  70.084  12.738  1.00  0.00     0.422 P 
HETATM    7  O4  UNL     1      31.313  68.755  12.866  1.00  0.00    -0.617 OA
HETATM    8  O5  UNL     1      31.916  70.930  12.374  1.00  0.00    -0.617 OA
HETATM    9  O6  UNL     1      30.080  70.024  14.327  1.00  0.00    -0.617 OA
ENDBRANCH   1   6
TORSDOF 3
ENDMDL
