MODEL 1
REMARK VINA RESULT: -4.030256735      0.000      0.000
REMARK  5 active torsions:
REMARK  status: ('A' for Active; 'I' for Inactive)
REMARK    1  A    between atoms: S1_2  and  C2_3 
REMARK    2  A    between atoms: C2_3  and  C3_4 
REMARK    3  A    between atoms: C3_4  and  C4_5 
REMARK    4  A    between atoms: C4_5  and  N1_6 
REMARK    5  A    between atoms: C4_5  and  P1_10 
ROOT
HETATM    1  C4  UNL     1      14.235  11.599  25.821  1.00  0.00     0.312 C 
ENDROOT
BRANCH   1   2
HETATM    2  C3  UNL     1      13.695  12.666  24.929  1.00  0.00     0.057 C 
BRANCH   2   3
HETATM    3  C2  UNL     1      14.660  13.565  24.265  1.00  0.00     0.076 C 
BRANCH   3   4
HETATM    4  S1  UNL     1      14.226  15.322  24.604  1.00  0.00    -0.173 SA
HETATM    5  C1  UNL     1      15.237  15.973  25.953  1.00  0.00     0.089 C 
ENDBRANCH   3   4
ENDBRANCH   2   3
ENDBRANCH   1   2
BRANCH   1   6
HETATM    6  N1  UNL     1      13.269  10.495  26.003  1.00  0.00    -0.062 N 
ATOM      7  H13 UNL     1      12.375  10.837  26.356  1.00  0.00     0.275 HD
ATOM      8  H12 UNL     1      12.955  10.125  25.106  1.00  0.00     0.275 HD
ATOM      9  H11 UNL     1      13.646   9.756  26.597  1.00  0.00     0.275 HD
ENDBRANCH   1   6
BRANCH   1  10
HETATM   10  P1  UNL     1      14.656  12.212  27.371  1.00  0.00     0.290 P 
HETATM   11  O1  UNL     1      16.031  11.545  28.153  1.00  0.00    -0.638 OA
HETATM   12  O2  UNL     1      13.847  13.441  28.053  1.00  0.00    -0.638 OA
HETATM   13  O3  UNL     1      13.855  11.164  28.171  1.00  0.00    -0.638 OA
ENDBRANCH   1  10
TORSDOF 5
ENDMDL
