MODEL 2
REMARK VINA RESULT: -3.934470656      1.202      1.862
REMARK  5 active torsions:
REMARK  status: ('A' for Active; 'I' for Inactive)
REMARK    1  A    between atoms: S1_2  and  C2_3 
REMARK    2  A    between atoms: C2_3  and  C3_4 
REMARK    3  A    between atoms: C3_4  and  C4_5 
REMARK    4  A    between atoms: C4_5  and  N1_6 
REMARK    5  A    between atoms: C4_5  and  P1_10 
ROOT
HETATM    1  C4  UNL     1      14.088  12.056  26.045  1.00  0.00     0.312 C 
ENDROOT
BRANCH   1   2
HETATM    2  C3  UNL     1      13.352  13.227  25.486  1.00  0.00     0.057 C 
BRANCH   2   3
HETATM    3  C2  UNL     1      14.123  14.225  24.718  1.00  0.00     0.076 C 
BRANCH   3   4
HETATM    4  S1  UNL     1      15.373  13.383  23.661  1.00  0.00    -0.173 SA
HETATM    5  C1  UNL     1      14.559  12.353  22.419  1.00  0.00     0.089 C 
ENDBRANCH   3   4
ENDBRANCH   2   3
ENDBRANCH   1   2
BRANCH   1   6
HETATM    6  N1  UNL     1      13.218  10.867  26.165  1.00  0.00    -0.062 N 
ATOM      7  H13 UNL     1      12.533  10.830  25.410  1.00  0.00     0.275 HD
ATOM      8  H12 UNL     1      13.730  10.009  25.958  1.00  0.00     0.275 HD
ATOM      9  H11 UNL     1      12.767  10.818  27.078  1.00  0.00     0.275 HD
ENDBRANCH   1   6
BRANCH   1  10
HETATM   10  P1  UNL     1      14.757  12.397  27.590  1.00  0.00     0.290 P 
HETATM   11  O1  UNL     1      16.108  11.472  28.105  1.00  0.00    -0.638 OA
HETATM   12  O2  UNL     1      14.200  13.611  28.513  1.00  0.00    -0.638 OA
HETATM   13  O3  UNL     1      13.916  11.354  28.354  1.00  0.00    -0.638 OA
ENDBRANCH   1  10
TORSDOF 5
ENDMDL
