MODEL 4
REMARK VINA RESULT: -3.902913850      1.382      1.441
REMARK  5 active torsions:
REMARK  status: ('A' for Active; 'I' for Inactive)
REMARK    1  A    between atoms: S1_2  and  C2_3 
REMARK    2  A    between atoms: C2_3  and  C3_4 
REMARK    3  A    between atoms: C3_4  and  C4_5 
REMARK    4  A    between atoms: C4_5  and  N1_6 
REMARK    5  A    between atoms: C4_5  and  P1_10 
ROOT
HETATM    1  C4  UNL     1      14.414  12.309  25.772  1.00  0.00     0.312 C 
ENDROOT
BRANCH   1   2
HETATM    2  C3  UNL     1      15.135  13.518  25.275  1.00  0.00     0.057 C 
BRANCH   2   3
HETATM    3  C2  UNL     1      14.387  14.791  25.216  1.00  0.00     0.076 C 
BRANCH   3   4
HETATM    4  S1  UNL     1      15.231  16.068  26.240  1.00  0.00    -0.173 SA
HETATM    5  C1  UNL     1      14.856  15.823  27.990  1.00  0.00     0.089 C 
ENDBRANCH   3   4
ENDBRANCH   2   3
ENDBRANCH   1   2
BRANCH   1   6
HETATM    6  N1  UNL     1      12.953  12.426  25.585  1.00  0.00    -0.062 N 
ATOM      7  H13 UNL     1      12.455  12.302  26.467  1.00  0.00     0.275 HD
ATOM      8  H12 UNL     1      12.680  13.388  25.382  1.00  0.00     0.275 HD
ATOM      9  H11 UNL     1      12.609  11.785  24.871  1.00  0.00     0.275 HD
ENDBRANCH   1   6
BRANCH   1  10
HETATM   10  P1  UNL     1      14.728  12.015  27.435  1.00  0.00     0.290 P 
HETATM   11  O1  UNL     1      16.188  11.215  27.850  1.00  0.00    -0.638 OA
HETATM   12  O2  UNL     1      13.730  12.547  28.600  1.00  0.00    -0.638 OA
HETATM   13  O3  UNL     1      14.100  10.606  27.462  1.00  0.00    -0.638 OA
ENDBRANCH   1  10
TORSDOF 5
ENDMDL
