MODEL 3
REMARK VINA RESULT: -3.927024316      6.324      6.881
REMARK  5 active torsions:
REMARK  status: ('A' for Active; 'I' for Inactive)
REMARK    1  A    between atoms: S1_2  and  C2_3 
REMARK    2  A    between atoms: C2_3  and  C3_4 
REMARK    3  A    between atoms: C3_4  and  C4_5 
REMARK    4  A    between atoms: C4_5  and  N1_6 
REMARK    5  A    between atoms: C4_5  and  P1_10 
ROOT
HETATM    1  C4  UNL     1      14.378  10.760  20.291  1.00  0.00     0.312 C 
ENDROOT
BRANCH   1   2
HETATM    2  C3  UNL     1      12.900  10.778  20.497  1.00  0.00     0.057 C 
BRANCH   2   3
HETATM    3  C2  UNL     1      12.062  10.020  19.546  1.00  0.00     0.076 C 
BRANCH   3   4
HETATM    4  S1  UNL     1      10.297  10.515  19.724  1.00  0.00    -0.173 SA
HETATM    5  C1  UNL     1       9.298   9.776  18.412  1.00  0.00     0.089 C 
ENDBRANCH   3   4
ENDBRANCH   2   3
ENDBRANCH   1   2
BRANCH   1   6
HETATM    6  N1  UNL     1      14.807   9.595  19.489  1.00  0.00    -0.062 N 
ATOM      7  H13 UNL     1      14.018   9.170  19.000  1.00  0.00     0.275 HD
ATOM      8  H12 UNL     1      15.358   9.883  18.681  1.00  0.00     0.275 HD
ATOM      9  H11 UNL     1      15.306   8.909  20.054  1.00  0.00     0.275 HD
ENDBRANCH   1   6
BRANCH   1  10
HETATM   10  P1  UNL     1      15.232  10.736  21.782  1.00  0.00     0.290 P 
HETATM   11  O1  UNL     1      15.926   9.250  22.288  1.00  0.00    -0.638 OA
HETATM   12  O2  UNL     1      15.463  12.083  22.657  1.00  0.00    -0.638 OA
HETATM   13  O3  UNL     1      14.024  10.315  22.643  1.00  0.00    -0.638 OA
ENDBRANCH   1  10
TORSDOF 5
ENDMDL
