MODEL 8
REMARK VINA RESULT: -7.912973234      3.668      9.699
REMARK  12 active torsions:
REMARK  status: ('A' for Active; 'I' for Inactive)
REMARK    1  A    between atoms: S1_2  and  C2_3 
REMARK    2  A    between atoms: C2_3  and  C3_4 
REMARK    3  A    between atoms: C3_4  and  C4_5 
REMARK    4  A    between atoms: C4_5  and  N1_6 
REMARK    5  A    between atoms: C4_5  and  C5_10 
REMARK       I    between atoms: C5_10  and  N2_12 
REMARK    6  A    between atoms: N2_12  and  S2_14 
REMARK    7  A    between atoms: S2_14  and  O4_17 
REMARK    8  A    between atoms: O4_17  and  C6_18 
REMARK    9  A    between atoms: C6_18  and  C7_19 
REMARK   10  A    between atoms: C8_21  and  N3_22 
REMARK   11  A    between atoms: C14_35  and  O6_36 
REMARK   12  A    between atoms: C15_38  and  O7_39 
ROOT
HETATM    1  C7  UNL     1      15.356  12.677  27.221  1.00  0.00     0.180 C 
HETATM    2  O5  UNL     1      15.038  11.502  26.537  1.00  0.00    -0.354 OA
HETATM    3  C8  UNL     1      15.260  11.876  25.185  1.00  0.00     0.258 C 
HETATM    4  C14 UNL     1      14.349  13.092  25.132  1.00  0.00     0.198 C 
HETATM    5  C15 UNL     1      14.789  13.809  26.418  1.00  0.00     0.182 C 
ENDROOT
BRANCH   1   6
HETATM    6  C6  UNL     1      14.810  12.738  28.613  1.00  0.00     0.226 C 
BRANCH   6   7
HETATM    7  O4  UNL     1      15.824  12.891  29.526  1.00  0.00    -0.257 OA
BRANCH   7   8
HETATM    8  S2  UNL     1      15.816  14.376  30.289  1.00  0.00     0.364 S 
HETATM    9  O2  UNL     1      14.932  15.288  29.469  1.00  0.00    -0.175 OA
HETATM   10  O3  UNL     1      15.226  14.285  31.677  1.00  0.00    -0.175 OA
BRANCH   8  11
HETATM   11  N2  UNL     1      17.394  15.072  30.343  1.00  0.00    -0.230 N 
HETATM   12  C5  UNL     1      18.223  15.210  29.208  1.00  0.00     0.263 C 
HETATM   13  O1  UNL     1      17.796  14.801  28.076  1.00  0.00    -0.270 OA
ATOM     14  H2  UNL     1      17.746  15.402  31.242  1.00  0.00     0.183 HD
BRANCH  12  15
HETATM   15  C4  UNL     1      19.575  15.822  29.330  1.00  0.00     0.276 C 
BRANCH  15  16
HETATM   16  C3  UNL     1      19.847  16.252  30.760  1.00  0.00     0.053 C 
BRANCH  16  17
HETATM   17  C2  UNL     1      21.224  16.899  30.843  1.00  0.00     0.076 C 
BRANCH  17  18
HETATM   18  S1  UNL     1      21.022  18.501  31.640  1.00  0.00    -0.173 SA
HETATM   19  C1  UNL     1      21.091  19.855  30.462  1.00  0.00     0.089 C 
ENDBRANCH  17  18
ENDBRANCH  16  17
ENDBRANCH  15  16
BRANCH  15  20
HETATM   20  N1  UNL     1      19.692  17.003  28.507  1.00  0.00    -0.066 N 
ATOM     21  H13 UNL     1      19.789  16.793  27.514  1.00  0.00     0.275 HD
ATOM     22  H12 UNL     1      18.824  17.535  28.442  1.00  0.00     0.275 HD
ATOM     23  H11 UNL     1      20.469  17.549  28.879  1.00  0.00     0.275 HD
ENDBRANCH  15  20
ENDBRANCH  12  15
ENDBRANCH   8  11
ENDBRANCH   7   8
ENDBRANCH   6   7
ENDBRANCH   1   6
BRANCH   5  24
HETATM   24  O7  UNL     1      15.811  14.692  26.091  1.00  0.00    -0.390 OA
ATOM     25  H7  UNL     1      16.549  14.201  25.749  1.00  0.00     0.210 HD
ENDBRANCH   5  24
BRANCH   3  26
HETATM   26  N3  UNL     1      14.923  10.899  24.247  1.00  0.00    -0.321 N 
HETATM   27  C9  UNL     1      14.035   9.757  24.401  1.00  0.00     0.183 C 
HETATM   28  N4  UNL     1      13.531   9.447  23.223  1.00  0.00    -0.350 N 
HETATM   29  C10 UNL     1      14.047  10.359  22.235  1.00  0.00     0.094 A 
ATOM     30  H4  UNL     1      12.879   8.683  23.040  1.00  0.00     0.166 HD
HETATM   31  C11 UNL     1      13.707  10.864  21.105  1.00  0.00     0.143 A 
HETATM   32  C13 UNL     1      15.364  10.743  22.879  1.00  0.00     0.242 A 
HETATM   33  N5  UNL     1      12.462  10.483  20.538  1.00  0.00    -0.080 NA
HETATM   34  N6  UNL     1      14.499  11.867  20.434  1.00  0.00    -0.339 N 
HETATM   35  C12 UNL     1      15.693  12.260  21.095  1.00  0.00     0.179 A 
ATOM     36  H6  UNL     1      14.218  12.269  19.540  1.00  0.00     0.167 HD
HETATM   37  N7  UNL     1      16.034  11.727  22.201  1.00  0.00    -0.360 N 
ATOM     38  H7  UNL     1      16.896  12.069  22.625  1.00  0.00     0.162 HD
ENDBRANCH   3  26
BRANCH   4  39
HETATM   39  O6  UNL     1      14.532  13.865  24.019  1.00  0.00    -0.388 OA
ATOM     40  H6  UNL     1      14.341  13.411  23.206  1.00  0.00     0.210 HD
ENDBRANCH   4  39
TORSDOF 12
ENDMDL
