MODEL 7
REMARK VINA RESULT: -7.919583201      3.168      5.126
REMARK  12 active torsions:
REMARK  status: ('A' for Active; 'I' for Inactive)
REMARK    1  A    between atoms: S1_2  and  C2_3 
REMARK    2  A    between atoms: C2_3  and  C3_4 
REMARK    3  A    between atoms: C3_4  and  C4_5 
REMARK    4  A    between atoms: C4_5  and  N1_6 
REMARK    5  A    between atoms: C4_5  and  C5_10 
REMARK       I    between atoms: C5_10  and  N2_12 
REMARK    6  A    between atoms: N2_12  and  S2_14 
REMARK    7  A    between atoms: S2_14  and  O4_17 
REMARK    8  A    between atoms: O4_17  and  C6_18 
REMARK    9  A    between atoms: C6_18  and  C7_19 
REMARK   10  A    between atoms: C8_21  and  N3_22 
REMARK   11  A    between atoms: C14_35  and  O6_36 
REMARK   12  A    between atoms: C15_38  and  O7_39 
ROOT
HETATM    1  C7  UNL     1      16.146  11.900  25.656  1.00  0.00     0.180 C 
HETATM    2  O5  UNL     1      16.700  12.720  26.640  1.00  0.00    -0.354 OA
HETATM    3  C8  UNL     1      15.622  12.853  27.557  1.00  0.00     0.258 C 
HETATM    4  C14 UNL     1      14.568  13.376  26.594  1.00  0.00     0.198 C 
HETATM    5  C15 UNL     1      14.739  12.374  25.442  1.00  0.00     0.182 C 
ENDROOT
BRANCH   1   6
HETATM    6  C6  UNL     1      16.880  11.934  24.352  1.00  0.00     0.226 C 
BRANCH   6   7
HETATM    7  O4  UNL     1      16.116  11.386  23.350  1.00  0.00    -0.257 OA
BRANCH   7   8
HETATM    8  S2  UNL     1      16.396   9.758  23.113  1.00  0.00     0.364 S 
HETATM    9  O2  UNL     1      15.761   9.027  24.275  1.00  0.00    -0.175 OA
HETATM   10  O3  UNL     1      15.747   9.261  21.843  1.00  0.00    -0.175 OA
BRANCH   8  11
HETATM   11  N2  UNL     1      18.083   9.395  23.116  1.00  0.00    -0.230 N 
HETATM   12  C5  UNL     1      18.607   8.132  23.467  1.00  0.00     0.263 C 
HETATM   13  O1  UNL     1      17.802   7.199  23.803  1.00  0.00    -0.270 OA
ATOM     14  H2  UNL     1      18.737  10.132  22.850  1.00  0.00     0.183 HD
BRANCH  12  15
HETATM   15  C4  UNL     1      20.076   7.890  23.446  1.00  0.00     0.276 C 
BRANCH  15  16
HETATM   16  C3  UNL     1      20.800   9.021  22.739  1.00  0.00     0.053 C 
BRANCH  16  17
HETATM   17  C2  UNL     1      22.149   9.258  23.406  1.00  0.00     0.076 C 
BRANCH  17  18
HETATM   18  S1  UNL     1      21.907   9.107  25.184  1.00  0.00    -0.173 SA
HETATM   19  C1  UNL     1      22.909   7.795  25.893  1.00  0.00     0.089 C 
ENDBRANCH  17  18
ENDBRANCH  16  17
ENDBRANCH  15  16
BRANCH  15  20
HETATM   20  N1  UNL     1      20.399   6.675  22.734  1.00  0.00    -0.066 N 
ATOM     21  H13 UNL     1      21.399   6.483  22.702  1.00  0.00     0.275 HD
ATOM     22  H12 UNL     1      20.121   5.832  23.235  1.00  0.00     0.275 HD
ATOM     23  H11 UNL     1      19.975   6.751  21.810  1.00  0.00     0.275 HD
ENDBRANCH  15  20
ENDBRANCH  12  15
ENDBRANCH   8  11
ENDBRANCH   7   8
ENDBRANCH   6   7
ENDBRANCH   1   6
BRANCH   5  24
HETATM   24  O7  UNL     1      13.865  11.314  25.659  1.00  0.00    -0.390 OA
ATOM     25  H7  UNL     1      14.106  10.591  25.092  1.00  0.00     0.210 HD
ENDBRANCH   5  24
BRANCH   3  26
HETATM   26  N3  UNL     1      15.867  13.720  28.622  1.00  0.00    -0.321 N 
HETATM   27  C9  UNL     1      15.231  13.756  29.930  1.00  0.00     0.183 C 
HETATM   28  N4  UNL     1      16.078  14.265  30.803  1.00  0.00    -0.350 N 
HETATM   29  C10 UNL     1      17.311  14.585  30.130  1.00  0.00     0.094 A 
ATOM     30  H4  UNL     1      15.891  14.409  31.796  1.00  0.00     0.166 HD
HETATM   31  C11 UNL     1      18.562  14.694  30.393  1.00  0.00     0.143 A 
HETATM   32  C13 UNL     1      16.801  14.818  28.723  1.00  0.00     0.242 A 
HETATM   33  N5  UNL     1      18.999  14.462  31.724  1.00  0.00    -0.080 NA
HETATM   34  N6  UNL     1      19.549  14.960  29.373  1.00  0.00    -0.339 N 
HETATM   35  C12 UNL     1      19.051  15.104  28.051  1.00  0.00     0.179 A 
ATOM     36  H6  UNL     1      20.542  15.038  29.589  1.00  0.00     0.167 HD
HETATM   37  N7  UNL     1      17.802  15.023  27.810  1.00  0.00    -0.360 N 
ATOM     38  H7  UNL     1      17.519  15.123  26.835  1.00  0.00     0.162 HD
ENDBRANCH   3  26
BRANCH   4  39
HETATM   39  O6  UNL     1      13.301  13.362  27.109  1.00  0.00    -0.388 OA
ATOM     40  H6  UNL     1      12.654  12.997  26.517  1.00  0.00     0.210 HD
ENDBRANCH   4  39
TORSDOF 12
ENDMDL
