MODEL 6
REMARK VINA RESULT: -7.955141390      3.538      9.505
REMARK  12 active torsions:
REMARK  status: ('A' for Active; 'I' for Inactive)
REMARK    1  A    between atoms: S1_2  and  C2_3 
REMARK    2  A    between atoms: C2_3  and  C3_4 
REMARK    3  A    between atoms: C3_4  and  C4_5 
REMARK    4  A    between atoms: C4_5  and  N1_6 
REMARK    5  A    between atoms: C4_5  and  C5_10 
REMARK       I    between atoms: C5_10  and  N2_12 
REMARK    6  A    between atoms: N2_12  and  S2_14 
REMARK    7  A    between atoms: S2_14  and  O4_17 
REMARK    8  A    between atoms: O4_17  and  C6_18 
REMARK    9  A    between atoms: C6_18  and  C7_19 
REMARK   10  A    between atoms: C8_21  and  N3_22 
REMARK   11  A    between atoms: C14_35  and  O6_36 
REMARK   12  A    between atoms: C15_38  and  O7_39 
ROOT
HETATM    1  C7  UNL     1      15.213  12.564  27.134  1.00  0.00     0.180 C 
HETATM    2  O5  UNL     1      14.918  11.420  26.390  1.00  0.00    -0.354 OA
HETATM    3  C8  UNL     1      15.257  11.828  25.072  1.00  0.00     0.258 C 
HETATM    4  C14 UNL     1      14.388  13.072  24.988  1.00  0.00     0.198 C 
HETATM    5  C15 UNL     1      14.743  13.737  26.326  1.00  0.00     0.182 C 
ENDROOT
BRANCH   1   6
HETATM    6  C6  UNL     1      14.560  12.600  28.480  1.00  0.00     0.226 C 
BRANCH   6   7
HETATM    7  O4  UNL     1      15.499  12.741  29.473  1.00  0.00    -0.257 OA
BRANCH   7   8
HETATM    8  S2  UNL     1      15.497  14.253  30.181  1.00  0.00     0.364 S 
HETATM    9  O2  UNL     1      14.867  15.204  29.189  1.00  0.00    -0.175 OA
HETATM   10  O3  UNL     1      14.663  14.277  31.440  1.00  0.00    -0.175 OA
BRANCH   8  11
HETATM   11  N2  UNL     1      17.100  14.806  30.503  1.00  0.00    -0.230 N 
HETATM   12  C5  UNL     1      18.126  14.824  29.533  1.00  0.00     0.263 C 
HETATM   13  O1  UNL     1      17.870  14.413  28.352  1.00  0.00    -0.270 OA
ATOM     14  H2  UNL     1      17.318  15.136  31.443  1.00  0.00     0.183 HD
BRANCH  12  15
HETATM   15  C4  UNL     1      19.488  15.316  29.883  1.00  0.00     0.276 C 
BRANCH  15  16
HETATM   16  C3  UNL     1      20.518  14.214  29.726  1.00  0.00     0.053 C 
BRANCH  16  17
HETATM   17  C2  UNL     1      21.597  14.661  28.747  1.00  0.00     0.076 C 
BRANCH  17  18
HETATM   18  S1  UNL     1      22.984  13.525  28.913  1.00  0.00    -0.173 SA
HETATM   19  C1  UNL     1      24.250  14.163  30.016  1.00  0.00     0.089 C 
ENDBRANCH  17  18
ENDBRANCH  16  17
ENDBRANCH  15  16
BRANCH  15  20
HETATM   20  N1  UNL     1      19.550  15.758  31.257  1.00  0.00    -0.066 N 
ATOM     21  H13 UNL     1      18.734  15.484  31.804  1.00  0.00     0.275 HD
ATOM     22  H12 UNL     1      20.248  15.258  31.807  1.00  0.00     0.275 HD
ATOM     23  H11 UNL     1      19.700  16.766  31.239  1.00  0.00     0.275 HD
ENDBRANCH  15  20
ENDBRANCH  12  15
ENDBRANCH   8  11
ENDBRANCH   7   8
ENDBRANCH   6   7
ENDBRANCH   1   6
BRANCH   5  24
HETATM   24  O7  UNL     1      15.813  14.598  26.110  1.00  0.00    -0.390 OA
ATOM     25  H7  UNL     1      16.353  14.625  26.892  1.00  0.00     0.210 HD
ENDBRANCH   5  24
BRANCH   3  26
HETATM   26  N3  UNL     1      14.969  10.891  24.080  1.00  0.00    -0.321 N 
HETATM   27  C9  UNL     1      14.075   9.745  24.141  1.00  0.00     0.183 C 
HETATM   28  N4  UNL     1      13.632   9.483  22.927  1.00  0.00    -0.350 N 
HETATM   29  C10 UNL     1      14.197  10.434  22.005  1.00  0.00     0.094 A 
ATOM     30  H4  UNL     1      12.991   8.728  22.681  1.00  0.00     0.166 HD
HETATM   31  C11 UNL     1      13.914  10.986  20.882  1.00  0.00     0.143 A 
HETATM   32  C13 UNL     1      15.479  10.790  22.731  1.00  0.00     0.242 A 
HETATM   33  N5  UNL     1      12.700  10.629  20.237  1.00  0.00    -0.080 NA
HETATM   34  N6  UNL     1      14.739  12.014  20.292  1.00  0.00    -0.339 N 
HETATM   35  C12 UNL     1      15.897  12.378  21.029  1.00  0.00     0.179 A 
ATOM     36  H6  UNL     1      14.503  12.453  19.402  1.00  0.00     0.167 HD
HETATM   37  N7  UNL     1      16.182  11.800  22.128  1.00  0.00    -0.360 N 
ATOM     38  H7  UNL     1      17.021  12.123  22.609  1.00  0.00     0.162 HD
ENDBRANCH   3  26
BRANCH   4  39
HETATM   39  O6  UNL     1      14.681  13.872  23.918  1.00  0.00    -0.388 OA
ATOM     40  H6  UNL     1      15.499  13.649  23.490  1.00  0.00     0.210 HD
ENDBRANCH   4  39
TORSDOF 12
ENDMDL
