MODEL 17
REMARK VINA RESULT: -6.518863174      2.389      6.030
REMARK  11 active torsions:
REMARK  status: ('A' for Active; 'I' for Inactive)
REMARK    1  A    between atoms: C1_2  and  C2_4 
REMARK    2  A    between atoms: C2_4  and  O3_5 
REMARK    3  A    between atoms: C2_4  and  C3_7 
REMARK    4  A    between atoms: C3_7  and  O4_8 
REMARK    5  A    between atoms: C3_7  and  C4_10 
REMARK    6  A    between atoms: C4_10  and  O5_11 
REMARK    7  A    between atoms: C4_10  and  C5_13 
REMARK    8  A    between atoms: C5_13  and  O6_14 
REMARK    9  A    between atoms: C5_13  and  C6_16 
REMARK   10  A    between atoms: C6_16  and  O7_17 
REMARK   11  A    between atoms: O7_17  and  P1_18 
ROOT
HETATM    1  C4  UNL     1      23.169  28.436  39.112  1.00  0.00     0.180 C 
ENDROOT
BRANCH   1   2
HETATM    2  C3  UNL     1      21.877  28.783  39.741  1.00  0.00     0.188 C 
BRANCH   2   3
HETATM    3  C2  UNL     1      21.162  30.025  39.323  1.00  0.00     0.250 C 
BRANCH   3   4
HETATM    4  C1  UNL     1      19.845  30.001  38.779  1.00  0.00     0.205 C 
HETATM    5  O1  UNL     1      18.807  30.058  39.474  1.00  0.00    -0.646 OA
HETATM    6  O2  UNL     1      19.631  29.909  37.389  1.00  0.00    -0.646 OA
ENDBRANCH   3   4
BRANCH   3   7
HETATM    7  O3  UNL     1      22.046  30.561  38.306  1.00  0.00    -0.382 OA
ATOM      8  H3  UNL     1      22.348  31.411  38.607  1.00  0.00     0.210 HD
ENDBRANCH   3   7
ENDBRANCH   2   3
BRANCH   2   9
HETATM    9  O4  UNL     1      20.927  27.773  39.241  1.00  0.00    -0.390 OA
ATOM     10  H4  UNL     1      21.331  26.989  39.591  1.00  0.00     0.210 HD
ENDBRANCH   2   9
ENDBRANCH   1   2
BRANCH   1  11
HETATM   11  O5  UNL     1      22.831  27.380  38.145  1.00  0.00    -0.390 OA
ATOM     12  H5  UNL     1      23.598  26.819  38.132  1.00  0.00     0.210 HD
ENDBRANCH   1  11
BRANCH   1  13
HETATM   13  C5  UNL     1      24.085  27.597  40.026  1.00  0.00     0.173 C 
BRANCH  13  14
HETATM   14  O6  UNL     1      24.010  28.007  41.317  1.00  0.00    -0.391 OA
ATOM     15  H6  UNL     1      24.765  28.531  41.561  1.00  0.00     0.210 HD
ENDBRANCH  13  14
BRANCH  13  16
HETATM   16  C6  UNL     1      25.517  27.739  39.569  1.00  0.00     0.217 C 
BRANCH  16  17
HETATM   17  O7  UNL     1      25.538  28.848  38.752  1.00  0.00    -0.280 OA
BRANCH  17  18
HETATM   18  P1  UNL     1      26.484  30.020  38.966  1.00  0.00     0.422 P 
HETATM   19  O8  UNL     1      26.168  29.978  40.612  1.00  0.00    -0.617 OA
HETATM   20  O9  UNL     1      27.800  29.356  38.358  1.00  0.00    -0.617 OA
HETATM   21  O10 UNL     1      25.485  30.963  37.993  1.00  0.00    -0.617 OA
ENDBRANCH  17  18
ENDBRANCH  16  17
ENDBRANCH  13  16
ENDBRANCH   1  13
TORSDOF 11
ENDMDL
