MODEL 16
REMARK VINA RESULT: -6.555833731      2.467      6.036
REMARK  11 active torsions:
REMARK  status: ('A' for Active; 'I' for Inactive)
REMARK    1  A    between atoms: C1_2  and  C2_4 
REMARK    2  A    between atoms: C2_4  and  O3_5 
REMARK    3  A    between atoms: C2_4  and  C3_7 
REMARK    4  A    between atoms: C3_7  and  O4_8 
REMARK    5  A    between atoms: C3_7  and  C4_10 
REMARK    6  A    between atoms: C4_10  and  O5_11 
REMARK    7  A    between atoms: C4_10  and  C5_13 
REMARK    8  A    between atoms: C5_13  and  O6_14 
REMARK    9  A    between atoms: C5_13  and  C6_16 
REMARK   10  A    between atoms: C6_16  and  O7_17 
REMARK   11  A    between atoms: O7_17  and  P1_18 
ROOT
HETATM    1  C4  UNL     1      22.930  27.997  40.315  1.00  0.00     0.180 C 
ENDROOT
BRANCH   1   2
HETATM    2  C3  UNL     1      21.745  28.305  39.486  1.00  0.00     0.188 C 
BRANCH   2   3
HETATM    3  C2  UNL     1      21.264  29.715  39.381  1.00  0.00     0.250 C 
BRANCH   3   4
HETATM    4  C1  UNL     1      19.937  30.040  38.978  1.00  0.00     0.205 C 
HETATM    5  O1  UNL     1      18.948  29.987  39.741  1.00  0.00    -0.646 OA
HETATM    6  O2  UNL     1      19.654  30.452  37.659  1.00  0.00    -0.646 OA
ENDBRANCH   3   4
BRANCH   3   7
HETATM    7  O3  UNL     1      22.170  30.276  38.399  1.00  0.00    -0.382 OA
ATOM      8  H3  UNL     1      22.044  31.218  38.395  1.00  0.00     0.210 HD
ENDBRANCH   3   7
ENDBRANCH   2   3
BRANCH   2   9
HETATM    9  O4  UNL     1      22.186  28.093  38.096  1.00  0.00    -0.390 OA
ATOM     10  H4  UNL     1      21.382  27.749  37.726  1.00  0.00     0.210 HD
ENDBRANCH   2   9
ENDBRANCH   1   2
BRANCH   1  11
HETATM   11  O5  UNL     1      23.516  29.313  40.615  1.00  0.00    -0.390 OA
ATOM     12  H5  UNL     1      24.440  29.207  40.423  1.00  0.00     0.210 HD
ENDBRANCH   1  11
BRANCH   1  13
HETATM   13  C5  UNL     1      24.108  27.425  39.502  1.00  0.00     0.173 C 
BRANCH  13  14
HETATM   14  O6  UNL     1      24.089  26.068  39.485  1.00  0.00    -0.391 OA
ATOM     15  H6  UNL     1      23.696  25.735  38.686  1.00  0.00     0.210 HD
ENDBRANCH  13  14
BRANCH  13  16
HETATM   16  C6  UNL     1      25.411  27.869  40.123  1.00  0.00     0.217 C 
BRANCH  16  17
HETATM   17  O7  UNL     1      26.111  28.489  39.112  1.00  0.00    -0.280 OA
BRANCH  17  18
HETATM   18  P1  UNL     1      26.511  29.956  39.156  1.00  0.00     0.422 P 
HETATM   19  O8  UNL     1      27.923  29.599  38.326  1.00  0.00    -0.617 OA
HETATM   20  O9  UNL     1      25.239  30.555  38.406  1.00  0.00    -0.617 OA
HETATM   21  O10 UNL     1      26.537  29.865  40.837  1.00  0.00    -0.617 OA
ENDBRANCH  17  18
ENDBRANCH  16  17
ENDBRANCH  13  16
ENDBRANCH   1  13
TORSDOF 11
ENDMDL
