MODEL 20
REMARK VINA RESULT: -6.483802126      2.443      6.085
REMARK  11 active torsions:
REMARK  status: ('A' for Active; 'I' for Inactive)
REMARK    1  A    between atoms: C1_2  and  C2_4 
REMARK    2  A    between atoms: C2_4  and  O3_5 
REMARK    3  A    between atoms: C2_4  and  C3_7 
REMARK    4  A    between atoms: C3_7  and  O4_8 
REMARK    5  A    between atoms: C3_7  and  C4_10 
REMARK    6  A    between atoms: C4_10  and  O5_11 
REMARK    7  A    between atoms: C4_10  and  C5_13 
REMARK    8  A    between atoms: C5_13  and  O6_14 
REMARK    9  A    between atoms: C5_13  and  C6_16 
REMARK   10  A    between atoms: C6_16  and  O7_17 
REMARK   11  A    between atoms: O7_17  and  P1_18 
ROOT
HETATM    1  C4  UNL     1      23.138  28.660  40.164  1.00  0.00     0.180 C 
ENDROOT
BRANCH   1   2
HETATM    2  C3  UNL     1      22.221  29.316  39.208  1.00  0.00     0.188 C 
BRANCH   2   3
HETATM    3  C2  UNL     1      21.080  30.132  39.720  1.00  0.00     0.250 C 
BRANCH   3   4
HETATM    4  C1  UNL     1      19.789  30.100  39.119  1.00  0.00     0.205 C 
HETATM    5  O1  UNL     1      18.730  29.921  39.759  1.00  0.00    -0.646 OA
HETATM    6  O2  UNL     1      19.626  30.275  37.729  1.00  0.00    -0.646 OA
ENDBRANCH   3   4
BRANCH   3   7
HETATM    7  O3  UNL     1      21.589  31.483  39.594  1.00  0.00    -0.382 OA
ATOM      8  H3  UNL     1      21.826  31.784  40.464  1.00  0.00     0.210 HD
ENDBRANCH   3   7
ENDBRANCH   2   3
BRANCH   2   9
HETATM    9  O4  UNL     1      23.023  30.382  38.581  1.00  0.00    -0.390 OA
ATOM     10  H4  UNL     1      23.737  29.859  38.234  1.00  0.00     0.210 HD
ENDBRANCH   2   9
ENDBRANCH   1   2
BRANCH   1  11
HETATM   11  O5  UNL     1      24.019  29.744  40.625  1.00  0.00    -0.390 OA
ATOM     12  H5  UNL     1      24.481  29.372  41.367  1.00  0.00     0.210 HD
ENDBRANCH   1  11
BRANCH   1  13
HETATM   13  C5  UNL     1      24.213  27.793  39.479  1.00  0.00     0.173 C 
BRANCH  13  14
HETATM   14  O6  UNL     1      24.032  26.475  39.743  1.00  0.00    -0.391 OA
ATOM     15  H6  UNL     1      23.114  26.269  39.880  1.00  0.00     0.210 HD
ENDBRANCH  13  14
BRANCH  13  16
HETATM   16  C6  UNL     1      25.578  28.191  39.987  1.00  0.00     0.217 C 
BRANCH  16  17
HETATM   17  O7  UNL     1      26.236  28.725  38.901  1.00  0.00    -0.280 OA
BRANCH  17  18
HETATM   18  P1  UNL     1      26.953  30.066  38.942  1.00  0.00     0.422 P 
HETATM   19  O8  UNL     1      25.662  30.784  38.149  1.00  0.00    -0.617 OA
HETATM   20  O9  UNL     1      27.120  30.180  40.523  1.00  0.00    -0.617 OA
HETATM   21  O10 UNL     1      28.185  29.400  38.007  1.00  0.00    -0.617 OA
ENDBRANCH  17  18
ENDBRANCH  16  17
ENDBRANCH  13  16
ENDBRANCH   1  13
TORSDOF 11
ENDMDL
