MODEL 13
REMARK VINA RESULT: -6.613388691      2.481      6.061
REMARK  11 active torsions:
REMARK  status: ('A' for Active; 'I' for Inactive)
REMARK    1  A    between atoms: C1_2  and  C2_4 
REMARK    2  A    between atoms: C2_4  and  O3_5 
REMARK    3  A    between atoms: C2_4  and  C3_7 
REMARK    4  A    between atoms: C3_7  and  O4_8 
REMARK    5  A    between atoms: C3_7  and  C4_10 
REMARK    6  A    between atoms: C4_10  and  O5_11 
REMARK    7  A    between atoms: C4_10  and  C5_13 
REMARK    8  A    between atoms: C5_13  and  O6_14 
REMARK    9  A    between atoms: C5_13  and  C6_16 
REMARK   10  A    between atoms: C6_16  and  O7_17 
REMARK   11  A    between atoms: O7_17  and  P1_18 
ROOT
HETATM    1  C4  UNL     1      22.899  27.930  40.332  1.00  0.00     0.180 C 
ENDROOT
BRANCH   1   2
HETATM    2  C3  UNL     1      21.722  28.247  39.495  1.00  0.00     0.188 C 
BRANCH   2   3
HETATM    3  C2  UNL     1      21.286  29.667  39.341  1.00  0.00     0.250 C 
BRANCH   3   4
HETATM    4  C1  UNL     1      19.980  30.019  38.893  1.00  0.00     0.205 C 
HETATM    5  O1  UNL     1      19.723  30.385  37.725  1.00  0.00    -0.646 OA
HETATM    6  O2  UNL     1      18.872  29.972  39.763  1.00  0.00    -0.646 OA
ENDBRANCH   3   4
BRANCH   3   7
HETATM    7  O3  UNL     1      22.235  30.175  38.370  1.00  0.00    -0.382 OA
ATOM      8  H3  UNL     1      23.105  29.925  38.660  1.00  0.00     0.210 HD
ENDBRANCH   3   7
ENDBRANCH   2   3
BRANCH   2   9
HETATM    9  O4  UNL     1      22.152  27.971  38.113  1.00  0.00    -0.390 OA
ATOM     10  H4  UNL     1      22.766  27.266  38.276  1.00  0.00     0.210 HD
ENDBRANCH   2   9
ENDBRANCH   1   2
BRANCH   1  11
HETATM   11  O5  UNL     1      23.489  29.242  40.641  1.00  0.00    -0.390 OA
ATOM     12  H5  UNL     1      24.142  29.372  39.963  1.00  0.00     0.210 HD
ENDBRANCH   1  11
BRANCH   1  13
HETATM   13  C5  UNL     1      24.081  27.355  39.526  1.00  0.00     0.173 C 
BRANCH  13  14
HETATM   14  O6  UNL     1      24.092  25.999  39.558  1.00  0.00    -0.391 OA
ATOM     15  H6  UNL     1      24.282  25.631  38.703  1.00  0.00     0.210 HD
ENDBRANCH  13  14
BRANCH  13  16
HETATM   16  C6  UNL     1      25.380  27.850  40.115  1.00  0.00     0.217 C 
BRANCH  16  17
HETATM   17  O7  UNL     1      26.040  28.478  39.082  1.00  0.00    -0.280 OA
BRANCH  17  18
HETATM   18  P1  UNL     1      26.604  29.886  39.192  1.00  0.00     0.422 P 
HETATM   19  O8  UNL     1      26.575  29.771  40.865  1.00  0.00    -0.617 OA
HETATM   20  O9  UNL     1      27.949  29.650  38.370  1.00  0.00    -0.617 OA
HETATM   21  O10 UNL     1      25.228  30.465  38.414  1.00  0.00    -0.617 OA
ENDBRANCH  17  18
ENDBRANCH  16  17
ENDBRANCH  13  16
ENDBRANCH   1  13
TORSDOF 11
ENDMDL
