MODEL 2
REMARK VINA RESULT: -7.072733165      1.063      1.966
REMARK  11 active torsions:
REMARK  status: ('A' for Active; 'I' for Inactive)
REMARK    1  A    between atoms: C1_2  and  C2_4 
REMARK    2  A    between atoms: C2_4  and  O3_5 
REMARK    3  A    between atoms: C2_4  and  C3_7 
REMARK    4  A    between atoms: C3_7  and  O4_8 
REMARK    5  A    between atoms: C3_7  and  C4_10 
REMARK    6  A    between atoms: C4_10  and  O5_11 
REMARK    7  A    between atoms: C4_10  and  C5_13 
REMARK    8  A    between atoms: C5_13  and  O6_14 
REMARK    9  A    between atoms: C5_13  and  C6_16 
REMARK   10  A    between atoms: C6_16  and  O7_17 
REMARK   11  A    between atoms: O7_17  and  P1_18 
ROOT
HETATM    1  C4  UNL     1      23.771  30.122  39.507  1.00  0.00     0.180 C 
ENDROOT
BRANCH   1   2
HETATM    2  C3  UNL     1      25.072  30.822  39.443  1.00  0.00     0.188 C 
BRANCH   2   3
HETATM    3  C2  UNL     1      26.303  30.140  39.942  1.00  0.00     0.250 C 
BRANCH   3   4
HETATM    4  C1  UNL     1      27.546  30.210  39.249  1.00  0.00     0.205 C 
HETATM    5  O1  UNL     1      27.838  29.484  38.274  1.00  0.00    -0.646 OA
HETATM    6  O2  UNL     1      28.546  31.127  39.634  1.00  0.00    -0.646 OA
ENDBRANCH   3   4
BRANCH   3   7
HETATM    7  O3  UNL     1      25.894  28.750  39.971  1.00  0.00    -0.382 OA
ATOM      8  H3  UNL     1      25.216  28.663  40.631  1.00  0.00     0.210 HD
ENDBRANCH   3   7
ENDBRANCH   2   3
BRANCH   2   9
HETATM    9  O4  UNL     1      25.396  30.892  38.006  1.00  0.00    -0.390 OA
ATOM     10  H4  UNL     1      25.188  31.804  37.842  1.00  0.00     0.210 HD
ENDBRANCH   2   9
ENDBRANCH   1   2
BRANCH   1  11
HETATM   11  O5  UNL     1      23.011  30.662  38.370  1.00  0.00    -0.390 OA
ATOM     12  H5  UNL     1      23.272  31.574  38.325  1.00  0.00     0.210 HD
ENDBRANCH   1  11
BRANCH   1  13
HETATM   13  C5  UNL     1      22.857  30.639  40.635  1.00  0.00     0.173 C 
BRANCH  13  14
HETATM   14  O6  UNL     1      22.759  29.742  41.648  1.00  0.00    -0.391 OA
ATOM     15  H6  UNL     1      21.862  29.455  41.774  1.00  0.00     0.210 HD
ENDBRANCH  13  14
BRANCH  13  16
HETATM   16  C6  UNL     1      21.471  30.883  40.087  1.00  0.00     0.217 C 
BRANCH  16  17
HETATM   17  O7  UNL     1      20.928  29.634  39.882  1.00  0.00    -0.280 OA
BRANCH  17  18
HETATM   18  P1  UNL     1      19.615  29.409  39.148  1.00  0.00     0.422 P 
HETATM   19  O8  UNL     1      18.768  29.951  40.490  1.00  0.00    -0.617 OA
HETATM   20  O9  UNL     1      19.892  30.364  37.902  1.00  0.00    -0.617 OA
HETATM   21  O10 UNL     1      19.984  27.769  39.055  1.00  0.00    -0.617 OA
ENDBRANCH  17  18
ENDBRANCH  16  17
ENDBRANCH  13  16
ENDBRANCH   1  13
TORSDOF 11
ENDMDL
