MODEL 3
REMARK VINA RESULT: -7.049783869      1.258      2.205
REMARK  11 active torsions:
REMARK  status: ('A' for Active; 'I' for Inactive)
REMARK    1  A    between atoms: C1_2  and  C2_4 
REMARK    2  A    between atoms: C2_4  and  O3_5 
REMARK    3  A    between atoms: C2_4  and  C3_7 
REMARK    4  A    between atoms: C3_7  and  O4_8 
REMARK    5  A    between atoms: C3_7  and  C4_10 
REMARK    6  A    between atoms: C4_10  and  O5_11 
REMARK    7  A    between atoms: C4_10  and  C5_13 
REMARK    8  A    between atoms: C5_13  and  O6_14 
REMARK    9  A    between atoms: C5_13  and  C6_16 
REMARK   10  A    between atoms: C6_16  and  O7_17 
REMARK   11  A    between atoms: O7_17  and  P1_18 
ROOT
HETATM    1  C4  UNL     1      23.758  29.925  39.791  1.00  0.00     0.180 C 
ENDROOT
BRANCH   1   2
HETATM    2  C3  UNL     1      25.189  30.176  40.069  1.00  0.00     0.188 C 
BRANCH   2   3
HETATM    3  C2  UNL     1      26.079  30.664  38.974  1.00  0.00     0.250 C 
BRANCH   3   4
HETATM    4  C1  UNL     1      27.458  30.312  38.899  1.00  0.00     0.205 C 
HETATM    5  O1  UNL     1      27.895  29.367  38.207  1.00  0.00    -0.646 OA
HETATM    6  O2  UNL     1      28.435  31.030  39.618  1.00  0.00    -0.646 OA
ENDBRANCH   3   4
BRANCH   3   7
HETATM    7  O3  UNL     1      26.002  32.102  39.133  1.00  0.00    -0.382 OA
ATOM      8  H3  UNL     1      25.287  32.288  39.732  1.00  0.00     0.210 HD
ENDBRANCH   3   7
ENDBRANCH   2   3
BRANCH   2   9
HETATM    9  O4  UNL     1      25.204  31.362  40.943  1.00  0.00    -0.390 OA
ATOM     10  H4  UNL     1      24.670  31.038  41.659  1.00  0.00     0.210 HD
ENDBRANCH   2   9
ENDBRANCH   1   2
BRANCH   1  11
HETATM   11  O5  UNL     1      23.503  30.637  38.529  1.00  0.00    -0.390 OA
ATOM     12  H5  UNL     1      22.885  30.082  38.068  1.00  0.00     0.210 HD
ENDBRANCH   1  11
BRANCH   1  13
HETATM   13  C5  UNL     1      22.811  30.745  40.689  1.00  0.00     0.173 C 
BRANCH  13  14
HETATM   14  O6  UNL     1      22.576  30.117  41.868  1.00  0.00    -0.391 OA
ATOM     15  H6  UNL     1      21.736  29.673  41.866  1.00  0.00     0.210 HD
ENDBRANCH  13  14
BRANCH  13  16
HETATM   16  C6  UNL     1      21.489  30.933  39.985  1.00  0.00     0.217 C 
BRANCH  16  17
HETATM   17  O7  UNL     1      20.994  29.665  39.778  1.00  0.00    -0.280 OA
BRANCH  17  18
HETATM   18  P1  UNL     1      19.649  29.395  39.121  1.00  0.00     0.422 P 
HETATM   19  O8  UNL     1      18.864  29.926  40.504  1.00  0.00    -0.617 OA
HETATM   20  O9  UNL     1      19.827  30.345  37.853  1.00  0.00    -0.617 OA
HETATM   21  O10 UNL     1      20.061  27.765  39.022  1.00  0.00    -0.617 OA
ENDBRANCH  17  18
ENDBRANCH  16  17
ENDBRANCH  13  16
ENDBRANCH   1  13
TORSDOF 11
ENDMDL
