MODEL 15
REMARK VINA RESULT: -6.577368484      2.378      6.294
REMARK  11 active torsions:
REMARK  status: ('A' for Active; 'I' for Inactive)
REMARK    1  A    between atoms: C1_2  and  C2_4 
REMARK    2  A    between atoms: C2_4  and  O3_5 
REMARK    3  A    between atoms: C2_4  and  C3_7 
REMARK    4  A    between atoms: C3_7  and  O4_8 
REMARK    5  A    between atoms: C3_7  and  C4_10 
REMARK    6  A    between atoms: C4_10  and  O5_11 
REMARK    7  A    between atoms: C4_10  and  C5_13 
REMARK    8  A    between atoms: C5_13  and  O6_14 
REMARK    9  A    between atoms: C5_13  and  C6_16 
REMARK   10  A    between atoms: C6_16  and  O7_17 
REMARK   11  A    between atoms: O7_17  and  P1_18 
ROOT
HETATM    1  C4  UNL     1      22.514  30.441  39.580  1.00  0.00     0.180 C 
ENDROOT
BRANCH   1   2
HETATM    2  C3  UNL     1      22.013  29.050  39.541  1.00  0.00     0.188 C 
BRANCH   2   3
HETATM    3  C2  UNL     1      20.628  28.751  40.013  1.00  0.00     0.250 C 
BRANCH   3   4
HETATM    4  C1  UNL     1      19.514  29.574  39.678  1.00  0.00     0.205 C 
HETATM    5  O1  UNL     1      18.644  29.932  40.502  1.00  0.00    -0.646 OA
HETATM    6  O2  UNL     1      19.324  30.045  38.363  1.00  0.00    -0.646 OA
ENDBRANCH   3   4
BRANCH   3   7
HETATM    7  O3  UNL     1      20.781  28.786  41.454  1.00  0.00    -0.382 OA
ATOM      8  H3  UNL     1      21.442  29.438  41.658  1.00  0.00     0.210 HD
ENDBRANCH   3   7
ENDBRANCH   2   3
BRANCH   2   9
HETATM    9  O4  UNL     1      21.854  28.743  38.108  1.00  0.00    -0.390 OA
ATOM     10  H4  UNL     1      21.427  29.542  37.822  1.00  0.00     0.210 HD
ENDBRANCH   2   9
ENDBRANCH   1   2
BRANCH   1  11
HETATM   11  O5  UNL     1      22.973  30.700  38.207  1.00  0.00    -0.390 OA
ATOM     12  H5  UNL     1      23.269  31.603  38.225  1.00  0.00     0.210 HD
ENDBRANCH   1  11
BRANCH   1  13
HETATM   13  C5  UNL     1      23.878  30.576  40.285  1.00  0.00     0.173 C 
BRANCH  13  14
HETATM   14  O6  UNL     1      24.377  31.832  40.169  1.00  0.00    -0.391 OA
ATOM     15  H6  UNL     1      25.142  31.956  40.719  1.00  0.00     0.210 HD
ENDBRANCH  13  14
BRANCH  13  16
HETATM   16  C6  UNL     1      24.864  29.618  39.661  1.00  0.00     0.217 C 
BRANCH  16  17
HETATM   17  O7  UNL     1      25.891  30.402  39.184  1.00  0.00    -0.280 OA
BRANCH  17  18
HETATM   18  P1  UNL     1      27.311  30.329  39.724  1.00  0.00     0.422 P 
HETATM   19  O8  UNL     1      27.399  32.004  39.725  1.00  0.00    -0.617 OA
HETATM   20  O9  UNL     1      26.999  29.515  41.059  1.00  0.00    -0.617 OA
HETATM   21  O10 UNL     1      27.769  29.514  38.323  1.00  0.00    -0.617 OA
ENDBRANCH  17  18
ENDBRANCH  16  17
ENDBRANCH  13  16
ENDBRANCH   1  13
TORSDOF 11
ENDMDL
