MODEL 1
REMARK VINA RESULT: -7.140919963      0.000      0.000
REMARK  11 active torsions:
REMARK  status: ('A' for Active; 'I' for Inactive)
REMARK    1  A    between atoms: C1_2  and  C2_4 
REMARK    2  A    between atoms: C2_4  and  O3_5 
REMARK    3  A    between atoms: C2_4  and  C3_7 
REMARK    4  A    between atoms: C3_7  and  O4_8 
REMARK    5  A    between atoms: C3_7  and  C4_10 
REMARK    6  A    between atoms: C4_10  and  O5_11 
REMARK    7  A    between atoms: C4_10  and  C5_13 
REMARK    8  A    between atoms: C5_13  and  O6_14 
REMARK    9  A    between atoms: C5_13  and  C6_16 
REMARK   10  A    between atoms: C6_16  and  O7_17 
REMARK   11  A    between atoms: O7_17  and  P1_18 
ROOT
HETATM    1  C4  UNL     1      24.419  29.355  39.604  1.00  0.00     0.180 C 
ENDROOT
BRANCH   1   2
HETATM    2  C3  UNL     1      25.168  30.630  39.604  1.00  0.00     0.188 C 
BRANCH   2   3
HETATM    3  C2  UNL     1      26.541  30.680  40.187  1.00  0.00     0.250 C 
BRANCH   3   4
HETATM    4  C1  UNL     1      27.714  30.542  39.389  1.00  0.00     0.205 C 
HETATM    5  O1  UNL     1      28.715  31.285  39.494  1.00  0.00    -0.646 OA
HETATM    6  O2  UNL     1      27.817  29.533  38.410  1.00  0.00    -0.646 OA
ENDBRANCH   3   4
BRANCH   3   7
HETATM    7  O3  UNL     1      26.517  29.575  41.125  1.00  0.00    -0.382 OA
ATOM      8  H3  UNL     1      27.137  28.924  40.819  1.00  0.00     0.210 HD
ENDBRANCH   3   7
ENDBRANCH   2   3
BRANCH   2   9
HETATM    9  O4  UNL     1      25.494  30.879  38.188  1.00  0.00    -0.390 OA
ATOM     10  H4  UNL     1      25.194  30.060  37.810  1.00  0.00     0.210 HD
ENDBRANCH   2   9
ENDBRANCH   1   2
BRANCH   1  11
HETATM   11  O5  UNL     1      25.068  28.552  38.557  1.00  0.00    -0.390 OA
ATOM     12  H5  UNL     1      24.922  27.652  38.826  1.00  0.00     0.210 HD
ENDBRANCH   1  11
BRANCH   1  13
HETATM   13  C5  UNL     1      23.027  29.466  38.951  1.00  0.00     0.173 C 
BRANCH  13  14
HETATM   14  O6  UNL     1      22.754  30.741  38.577  1.00  0.00    -0.391 OA
ATOM     15  H6  UNL     1      23.405  31.074  37.970  1.00  0.00     0.210 HD
ENDBRANCH  13  14
BRANCH  13  16
HETATM   16  C6  UNL     1      21.972  29.029  39.939  1.00  0.00     0.217 C 
BRANCH  16  17
HETATM   17  O7  UNL     1      20.899  29.867  39.730  1.00  0.00    -0.280 OA
BRANCH  17  18
HETATM   18  P1  UNL     1      19.547  29.377  39.234  1.00  0.00     0.422 P 
HETATM   19  O8  UNL     1      20.127  27.804  39.198  1.00  0.00    -0.617 OA
HETATM   20  O9  UNL     1      18.661  29.905  40.449  1.00  0.00    -0.617 OA
HETATM   21  O10 UNL     1      19.745  30.325  37.856  1.00  0.00    -0.617 OA
ENDBRANCH  17  18
ENDBRANCH  16  17
ENDBRANCH  13  16
ENDBRANCH   1  13
TORSDOF 11
ENDMDL
