MODEL 3
REMARK VINA RESULT: -6.017189444      2.305      3.569
REMARK  5 active torsions:
REMARK  status: ('A' for Active; 'I' for Inactive)
REMARK    1  A    between atoms: O1_1  and  C1_3 
REMARK    2  A    between atoms: C2_4  and  O2_5 
REMARK    3  A    between atoms: C4_9  and  C5_10 
REMARK    4  A    between atoms: C5_10  and  O4_11 
REMARK    5  A    between atoms: O4_11  and  P1_12 
ROOT
HETATM    1  C1  UNL     1       5.452  -8.432  36.862  1.00  0.00     0.180 C 
HETATM    2  C2  UNL     1       6.135  -7.204  37.356  1.00  0.00     0.173 C 
HETATM    3  C3  UNL     1       5.514  -7.007  38.727  1.00  0.00     0.202 C 
HETATM    4  O3  UNL     1       4.359  -7.788  38.737  1.00  0.00    -0.378 OA
HETATM    5  C4  UNL     1       4.689  -8.955  38.049  1.00  0.00     0.177 C 
ENDROOT
BRANCH   5   6
HETATM    6  C5  UNL     1       5.488  -9.893  38.894  1.00  0.00     0.217 C 
BRANCH   6   7
HETATM    7  O4  UNL     1       6.051 -10.888  38.146  1.00  0.00    -0.280 OA
BRANCH   7   8
HETATM    8  P1  UNL     1       7.696 -10.950  38.579  1.00  0.00     0.422 P 
HETATM    9  O5  UNL     1       8.398 -12.411  38.654  1.00  0.00    -0.617 OA
HETATM   10  O6  UNL     1       8.420  -9.588  39.112  1.00  0.00    -0.617 OA
HETATM   11  O7  UNL     1       8.006 -10.753  37.097  1.00  0.00    -0.617 OA
ENDBRANCH   7   8
ENDBRANCH   6   7
ENDBRANCH   5   6
BRANCH   1  12
HETATM   12  O1  UNL     1       4.511  -8.032  35.892  1.00  0.00    -0.390 OA
ATOM     13  H1  UNL     1       3.884  -8.739  35.793  1.00  0.00     0.210 HD
ENDBRANCH   1  12
BRANCH   2  14
HETATM   14  O2  UNL     1       7.509  -7.282  37.393  1.00  0.00    -0.391 OA
ATOM     15  H2  UNL     1       7.862  -8.156  37.273  1.00  0.00     0.210 HD
ENDBRANCH   2  14
TORSDOF 5
ENDMDL
