MODEL 2
REMARK VINA RESULT: -6.180482758      1.144      1.687
REMARK  5 active torsions:
REMARK  status: ('A' for Active; 'I' for Inactive)
REMARK    1  A    between atoms: O1_1  and  C1_3 
REMARK    2  A    between atoms: C2_4  and  O2_5 
REMARK    3  A    between atoms: C4_9  and  C5_10 
REMARK    4  A    between atoms: C5_10  and  O4_11 
REMARK    5  A    between atoms: O4_11  and  P1_12 
ROOT
HETATM    1  C1  UNL     1       5.302 -11.030  37.550  1.00  0.00     0.180 C 
HETATM    2  C2  UNL     1       4.030 -10.402  38.002  1.00  0.00     0.173 C 
HETATM    3  C3  UNL     1       4.404  -9.829  39.357  1.00  0.00     0.202 C 
HETATM    4  O3  UNL     1       5.591 -10.463  39.723  1.00  0.00    -0.378 OA
HETATM    5  C4  UNL     1       6.334 -10.578  38.548  1.00  0.00     0.177 C 
ENDROOT
BRANCH   5   6
HETATM    6  C5  UNL     1       6.986  -9.286  38.175  1.00  0.00     0.217 C 
BRANCH   6   7
HETATM    7  O4  UNL     1       7.130  -9.168  36.821  1.00  0.00    -0.280 OA
BRANCH   7   8
HETATM    8  P1  UNL     1       6.630  -7.593  36.415  1.00  0.00     0.422 P 
HETATM    9  O5  UNL     1       5.293  -7.022  37.136  1.00  0.00    -0.617 OA
HETATM   10  O6  UNL     1       7.366  -6.830  35.176  1.00  0.00    -0.617 OA
HETATM   11  O7  UNL     1       7.568  -7.103  37.515  1.00  0.00    -0.617 OA
ENDBRANCH   7   8
ENDBRANCH   6   7
ENDBRANCH   5   6
BRANCH   1  12
HETATM   12  O1  UNL     1       5.158 -12.425  37.688  1.00  0.00    -0.390 OA
ATOM     13  H1  UNL     1       4.696 -12.741  36.921  1.00  0.00     0.210 HD
ENDBRANCH   1  12
BRANCH   2  14
HETATM   14  O2  UNL     1       3.514  -9.458  37.143  1.00  0.00    -0.391 OA
ATOM     15  H2  UNL     1       2.627  -9.181  37.341  1.00  0.00     0.210 HD
ENDBRANCH   2  14
TORSDOF 5
ENDMDL
