MODEL 1
REMARK VINA RESULT: -6.219453190      0.000      0.000
REMARK  5 active torsions:
REMARK  status: ('A' for Active; 'I' for Inactive)
REMARK    1  A    between atoms: O1_1  and  C1_3 
REMARK    2  A    between atoms: C2_4  and  O2_5 
REMARK    3  A    between atoms: C4_9  and  C5_10 
REMARK    4  A    between atoms: C5_10  and  O4_11 
REMARK    5  A    between atoms: O4_11  and  P1_12 
ROOT
HETATM    1  C1  UNL     1       5.451 -10.904  37.480  1.00  0.00     0.180 C 
HETATM    2  C2  UNL     1       4.173 -10.144  37.390  1.00  0.00     0.173 C 
HETATM    3  C3  UNL     1       3.811  -9.929  38.848  1.00  0.00     0.202 C 
HETATM    4  O3  UNL     1       4.585 -10.837  39.570  1.00  0.00    -0.378 OA
HETATM    5  C4  UNL     1       5.827 -10.860  38.936  1.00  0.00     0.177 C 
ENDROOT
BRANCH   5   6
HETATM    6  C5  UNL     1       6.656  -9.670  39.294  1.00  0.00     0.217 C 
BRANCH   6   7
HETATM    7  O4  UNL     1       7.111  -9.021  38.181  1.00  0.00    -0.280 OA
BRANCH   7   8
HETATM    8  P1  UNL     1       6.910  -7.357  38.473  1.00  0.00     0.422 P 
HETATM    9  O5  UNL     1       8.088  -6.591  39.285  1.00  0.00    -0.617 OA
HETATM   10  O6  UNL     1       5.472  -6.667  38.132  1.00  0.00    -0.617 OA
HETATM   11  O7  UNL     1       7.551  -7.127  37.106  1.00  0.00    -0.617 OA
ENDBRANCH   7   8
ENDBRANCH   6   7
ENDBRANCH   5   6
BRANCH   1  12
HETATM   12  O1  UNL     1       5.170 -12.245  37.151  1.00  0.00    -0.390 OA
ATOM     13  H1  UNL     1       5.806 -12.788  37.602  1.00  0.00     0.210 HD
ENDBRANCH   1  12
BRANCH   2  14
HETATM   14  O2  UNL     1       4.247  -8.970  36.674  1.00  0.00    -0.391 OA
ATOM     15  H2  UNL     1       4.268  -9.079  35.731  1.00  0.00     0.210 HD
ENDBRANCH   2  14
TORSDOF 5
ENDMDL
