MODEL 4
REMARK VINA RESULT: -3.956014820      4.201      6.380
REMARK  6 active torsions:
REMARK  status: ('A' for Active; 'I' for Inactive)
REMARK    1  A    between atoms: O1_1  and  C1_3 
REMARK    2  A    between atoms: C1_3  and  C2_4 
REMARK    3  A    between atoms: C3_6  and  O3_7 
REMARK    4  A    between atoms: C4_9  and  O4_10 
REMARK    5  A    between atoms: C5_12  and  O5_13 
REMARK    6  A    between atoms: C6_15  and  O6_16 
ROOT
HETATM    1  C2  UNL     1      37.073  57.055  24.024  1.00  0.00     0.179 C 
HETATM    2  O2  UNL     1      36.353  58.239  24.023  1.00  0.00    -0.349 OA
HETATM    3  C3  UNL     1      35.666  58.459  25.204  1.00  0.00     0.288 C 
HETATM    4  C4  UNL     1      34.646  57.342  25.345  1.00  0.00     0.204 C 
HETATM    5  C5  UNL     1      35.451  56.076  25.559  1.00  0.00     0.183 C 
HETATM    6  C6  UNL     1      36.201  55.849  24.251  1.00  0.00     0.180 C 
ENDROOT
BRANCH   1   7
HETATM    7  C1  UNL     1      37.716  56.947  22.635  1.00  0.00     0.198 C 
BRANCH   7   8
HETATM    8  O1  UNL     1      38.796  56.050  22.682  1.00  0.00    -0.398 OA
ATOM      9  H1  UNL     1      38.901  55.633  21.836  1.00  0.00     0.209 HD
ENDBRANCH   7   8
ENDBRANCH   1   7
BRANCH   6  10
HETATM   10  O6  UNL     1      37.003  54.730  24.411  1.00  0.00    -0.390 OA
ATOM     11  H6  UNL     1      37.820  54.987  24.824  1.00  0.00     0.210 HD
ENDBRANCH   6  10
BRANCH   3  12
HETATM   12  O3  UNL     1      35.072  59.709  25.145  1.00  0.00    -0.369 OA
ATOM     13  H3  UNL     1      34.277  59.692  25.664  1.00  0.00     0.212 HD
ENDBRANCH   3  12
BRANCH   5  14
HETATM   14  O5  UNL     1      34.654  54.996  25.890  1.00  0.00    -0.390 OA
ATOM     15  H5  UNL     1      34.447  54.970  26.816  1.00  0.00     0.210 HD
ENDBRANCH   5  14
BRANCH   4  16
HETATM   16  O4  UNL     1      33.755  57.577  26.378  1.00  0.00    -0.388 OA
ATOM     17  H4  UNL     1      33.389  56.772  26.726  1.00  0.00     0.210 HD
ENDBRANCH   4  16
TORSDOF 6
ENDMDL
