MODEL 3
REMARK VINA RESULT: -4.040389060      3.715      5.979
REMARK  6 active torsions:
REMARK  status: ('A' for Active; 'I' for Inactive)
REMARK    1  A    between atoms: O1_1  and  C1_3 
REMARK    2  A    between atoms: C1_3  and  C2_4 
REMARK    3  A    between atoms: C3_6  and  O3_7 
REMARK    4  A    between atoms: C4_9  and  O4_10 
REMARK    5  A    between atoms: C5_12  and  O5_13 
REMARK    6  A    between atoms: C6_15  and  O6_16 
ROOT
HETATM    1  C2  UNL     1      34.890  57.068  23.946  1.00  0.00     0.179 C 
HETATM    2  O2  UNL     1      35.479  55.821  24.084  1.00  0.00    -0.349 OA
HETATM    3  C3  UNL     1      36.859  55.880  24.175  1.00  0.00     0.288 C 
HETATM    4  C4  UNL     1      37.372  56.450  22.863  1.00  0.00     0.204 C 
HETATM    5  C5  UNL     1      36.895  57.888  22.826  1.00  0.00     0.183 C 
HETATM    6  C6  UNL     1      35.376  57.805  22.727  1.00  0.00     0.180 C 
ENDROOT
BRANCH   1   7
HETATM    7  C1  UNL     1      33.383  56.812  23.802  1.00  0.00     0.198 C 
BRANCH   7   8
HETATM    8  O1  UNL     1      33.139  55.429  23.785  1.00  0.00    -0.398 OA
ATOM      9  H1  UNL     1      32.959  55.148  22.896  1.00  0.00     0.209 HD
ENDBRANCH   7   8
ENDBRANCH   1   7
BRANCH   6  10
HETATM   10  O6  UNL     1      34.879  59.099  22.748  1.00  0.00    -0.390 OA
ATOM     11  H6  UNL     1      35.420  59.651  22.195  1.00  0.00     0.210 HD
ENDBRANCH   6  10
BRANCH   3  12
HETATM   12  O3  UNL     1      37.341  54.605  24.418  1.00  0.00    -0.369 OA
ATOM     13  H3  UNL     1      37.250  54.089  23.625  1.00  0.00     0.212 HD
ENDBRANCH   3  12
BRANCH   5  14
HETATM   14  O5  UNL     1      37.442  58.596  21.773  1.00  0.00    -0.390 OA
ATOM     15  H5  UNL     1      37.841  59.411  22.053  1.00  0.00     0.210 HD
ENDBRANCH   5  14
BRANCH   4  16
HETATM   16  O4  UNL     1      38.750  56.352  22.755  1.00  0.00    -0.388 OA
ATOM     17  H4  UNL     1      39.034  55.459  22.602  1.00  0.00     0.210 HD
ENDBRANCH   4  16
TORSDOF 6
ENDMDL
