MODEL 6
REMARK VINA RESULT: -3.908944291      4.498      6.589
REMARK  6 active torsions:
REMARK  status: ('A' for Active; 'I' for Inactive)
REMARK    1  A    between atoms: O1_1  and  C1_3 
REMARK    2  A    between atoms: C1_3  and  C2_4 
REMARK    3  A    between atoms: C3_6  and  O3_7 
REMARK    4  A    between atoms: C4_9  and  O4_10 
REMARK    5  A    between atoms: C5_12  and  O5_13 
REMARK    6  A    between atoms: C6_15  and  O6_16 
ROOT
HETATM    1  C2  UNL     1      36.000  57.358  23.470  1.00  0.00     0.179 C 
HETATM    2  O2  UNL     1      35.123  56.289  23.373  1.00  0.00    -0.349 OA
HETATM    3  C3  UNL     1      34.004  56.431  24.175  1.00  0.00     0.288 C 
HETATM    4  C4  UNL     1      34.485  56.457  25.616  1.00  0.00     0.204 C 
HETATM    5  C5  UNL     1      35.271  57.744  25.764  1.00  0.00     0.183 C 
HETATM    6  C6  UNL     1      36.497  57.572  24.874  1.00  0.00     0.180 C 
ENDROOT
BRANCH   1   7
HETATM    7  C1  UNL     1      37.194  57.009  22.570  1.00  0.00     0.198 C 
BRANCH   7   8
HETATM    8  O1  UNL     1      38.084  56.176  23.267  1.00  0.00    -0.398 OA
ATOM      9  H1  UNL     1      38.078  56.404  24.189  1.00  0.00     0.209 HD
ENDBRANCH   7   8
ENDBRANCH   1   7
BRANCH   6  10
HETATM   10  O6  UNL     1      37.226  58.749  24.925  1.00  0.00    -0.390 OA
ATOM     11  H6  UNL     1      37.378  58.984  25.833  1.00  0.00     0.210 HD
ENDBRANCH   6  10
BRANCH   3  12
HETATM   12  O3  UNL     1      33.144  55.374  23.927  1.00  0.00    -0.369 OA
ATOM     13  H3  UNL     1      33.655  54.575  23.869  1.00  0.00     0.212 HD
ENDBRANCH   3  12
BRANCH   5  14
HETATM   14  O5  UNL     1      35.619  57.999  27.077  1.00  0.00    -0.390 OA
ATOM     15  H5  UNL     1      36.551  57.899  27.230  1.00  0.00     0.210 HD
ENDBRANCH   5  14
BRANCH   4  16
HETATM   16  O4  UNL     1      33.437  56.376  26.518  1.00  0.00    -0.388 OA
ATOM     17  H4  UNL     1      33.390  57.140  27.081  1.00  0.00     0.210 HD
ENDBRANCH   4  16
TORSDOF 6
ENDMDL
