MODEL 12
REMARK VINA RESULT: -7.916080869      3.683      4.819
REMARK  4 active torsions:
REMARK  status: ('A' for Active; 'I' for Inactive)
REMARK    1  A    between atoms: S1_2  and  C2_4 
REMARK    2  A    between atoms: C5_7  and  C6_8 
REMARK    3  A    between atoms: C7_11  and  C8_12 
REMARK    4  A    between atoms: C14_19  and  C15_20 
ROOT
HETATM    1  C6  UNL     1     -10.177  14.925  39.900  1.00  0.00     0.116 A 
HETATM    2  N1  UNL     1     -11.096  13.971  39.632  1.00  0.00    -0.339 N 
ATOM      3  H1  UNL     1     -11.003  13.248  38.918  1.00  0.00     0.167 HD
HETATM    4  C7  UNL     1     -12.161  14.124  40.461  1.00  0.00     0.072 A 
HETATM    5  C14 UNL     1     -11.882  15.203  41.258  1.00  0.00     0.072 A 
HETATM    6  N3  UNL     1     -10.675  15.656  40.886  1.00  0.00    -0.339 N 
ATOM      7  H3  UNL     1     -10.203  16.456  41.307  1.00  0.00     0.167 HD
ENDROOT
BRANCH   1   8
HETATM    8  C5  UNL     1      -8.884  15.090  39.211  1.00  0.00     0.008 A 
HETATM    9  C4  UNL     1      -7.938  14.089  39.219  1.00  0.00     0.016 A 
HETATM   10  C3  UNL     1      -6.731  14.229  38.579  1.00  0.00     0.022 A 
HETATM   11  C2  UNL     1      -6.449  15.405  37.907  1.00  0.00     0.031 A 
HETATM   12  C21 UNL     1      -7.386  16.385  37.905  1.00  0.00     0.022 A 
HETATM   13  C20 UNL     1      -8.606  16.249  38.547  1.00  0.00     0.016 A 
BRANCH  11  14
HETATM   14  S1  UNL     1      -4.851  15.511  37.100  1.00  0.00     0.045 S 
HETATM   15  C1  UNL     1      -3.646  15.327  38.464  1.00  0.00     0.133 C 
HETATM   16  O1  UNL     1      -4.746  17.024  36.804  1.00  0.00    -0.253 OA
ENDBRANCH  11  14
ENDBRANCH   1   8
BRANCH   4  17
HETATM   17  C8  UNL     1     -13.305  13.236  40.407  1.00  0.00    -0.007 A 
HETATM   18  C9  UNL     1     -13.109  11.902  40.148  1.00  0.00     0.017 A 
HETATM   19  C10 UNL     1     -14.215  11.045  40.091  1.00  0.00     0.043 A 
HETATM   20  C11 UNL     1     -15.475  11.562  40.298  1.00  0.00     0.116 A 
HETATM   21  F1  UNL     1     -16.567  10.731  40.245  1.00  0.00    -0.206 F 
HETATM   22  C12 UNL     1     -15.694  12.884  40.557  1.00  0.00     0.043 A 
HETATM   23  C13 UNL     1     -14.579  13.706  40.605  1.00  0.00     0.017 A 
ENDBRANCH   4  17
BRANCH   5  24
HETATM   24  C15 UNL     1     -12.736  15.748  42.296  1.00  0.00    -0.004 A 
HETATM   25  C16 UNL     1     -12.692  15.233  43.578  1.00  0.00     0.030 A 
HETATM   26  C17 UNL     1     -13.490  15.751  44.561  1.00  0.00     0.088 A 
HETATM   27  N2  UNL     1     -14.346  16.765  44.350  1.00  0.00    -0.375 N 
HETATM   28  C18 UNL     1     -14.393  17.275  43.090  1.00  0.00     0.088 A 
ATOM     29  H2  UNL     1     -14.931  17.135  45.098  1.00  0.00     0.164 HD
HETATM   30  C19 UNL     1     -13.611  16.791  42.066  1.00  0.00     0.030 A 
ENDBRANCH   5  24
TORSDOF 4
ENDMDL
