MODEL 6
REMARK VINA RESULT: -8.105301685      1.242      1.486
REMARK  4 active torsions:
REMARK  status: ('A' for Active; 'I' for Inactive)
REMARK    1  A    between atoms: S1_2  and  C2_4 
REMARK    2  A    between atoms: C5_7  and  C6_8 
REMARK    3  A    between atoms: C7_11  and  C8_12 
REMARK    4  A    between atoms: C14_19  and  C15_20 
ROOT
HETATM    1  C6  UNL     1     -11.869  14.136  40.511  1.00  0.00     0.116 A 
HETATM    2  N1  UNL     1     -11.864  13.318  39.436  1.00  0.00    -0.339 N 
ATOM      3  H1  UNL     1     -11.085  13.200  38.789  1.00  0.00     0.167 HD
HETATM    4  C7  UNL     1     -13.058  12.676  39.352  1.00  0.00     0.072 A 
HETATM    5  C14 UNL     1     -13.813  13.116  40.407  1.00  0.00     0.072 A 
HETATM    6  N3  UNL     1     -13.056  13.996  41.082  1.00  0.00    -0.339 N 
ATOM      7  H3  UNL     1     -13.355  14.491  41.922  1.00  0.00     0.167 HD
ENDROOT
BRANCH   1   8
HETATM    8  C5  UNL     1     -10.754  15.001  40.937  1.00  0.00     0.008 A 
HETATM    9  C4  UNL     1      -9.693  14.496  41.657  1.00  0.00     0.016 A 
HETATM   10  C3  UNL     1      -8.647  15.290  42.057  1.00  0.00     0.022 A 
HETATM   11  C2  UNL     1      -8.651  16.635  41.734  1.00  0.00     0.031 A 
HETATM   12  C21 UNL     1      -9.699  17.124  41.026  1.00  0.00     0.022 A 
HETATM   13  C20 UNL     1     -10.757  16.328  40.618  1.00  0.00     0.016 A 
BRANCH  11  14
HETATM   14  S1  UNL     1      -7.251  17.606  42.295  1.00  0.00     0.045 S 
HETATM   15  C1  UNL     1      -5.794  16.703  41.654  1.00  0.00     0.133 C 
HETATM   16  O1  UNL     1      -7.196  17.243  43.797  1.00  0.00    -0.253 OA
ENDBRANCH  11  14
ENDBRANCH   1   8
BRANCH   4  17
HETATM   17  C8  UNL     1     -13.342  11.725  38.296  1.00  0.00    -0.007 A 
HETATM   18  C9  UNL     1     -14.261  12.048  37.328  1.00  0.00     0.017 A 
HETATM   19  C10 UNL     1     -14.538  11.127  36.310  1.00  0.00     0.043 A 
HETATM   20  C11 UNL     1     -13.881   9.917  36.304  1.00  0.00     0.116 A 
HETATM   21  F1  UNL     1     -14.144   9.007  35.311  1.00  0.00    -0.206 F 
HETATM   22  C12 UNL     1     -12.964   9.573  37.255  1.00  0.00     0.043 A 
HETATM   23  C13 UNL     1     -12.713  10.506  38.249  1.00  0.00     0.017 A 
ENDBRANCH   4  17
BRANCH   5  24
HETATM   24  C15 UNL     1     -15.169  12.710  40.724  1.00  0.00    -0.004 A 
HETATM   25  C16 UNL     1     -16.082  13.633  41.198  1.00  0.00     0.030 A 
HETATM   26  C17 UNL     1     -17.363  13.254  41.488  1.00  0.00     0.088 A 
HETATM   27  N2  UNL     1     -17.806  11.994  41.336  1.00  0.00    -0.375 N 
HETATM   28  C18 UNL     1     -16.912  11.082  40.870  1.00  0.00     0.088 A 
ATOM     29  H2  UNL     1     -18.766  11.734  41.560  1.00  0.00     0.164 HD
HETATM   30  C19 UNL     1     -15.611  11.411  40.563  1.00  0.00     0.030 A 
ENDBRANCH   5  24
TORSDOF 4
ENDMDL
