MODEL 1
REMARK VINA RESULT: -8.569251411      0.000      0.000
REMARK  4 active torsions:
REMARK  status: ('A' for Active; 'I' for Inactive)
REMARK    1  A    between atoms: S1_2  and  C2_4 
REMARK    2  A    between atoms: C5_7  and  C6_8 
REMARK    3  A    between atoms: C7_11  and  C8_12 
REMARK    4  A    between atoms: C14_19  and  C15_20 
ROOT
HETATM    1  C6  UNL     1     -12.180  14.463  41.560  1.00  0.00     0.116 A 
HETATM    2  N1  UNL     1     -12.147  13.736  40.421  1.00  0.00    -0.339 N 
ATOM      3  H1  UNL     1     -11.319  13.580  39.845  1.00  0.00     0.167 HD
HETATM    4  C7  UNL     1     -13.386  13.244  40.162  1.00  0.00     0.072 A 
HETATM    5  C14 UNL     1     -14.199  13.685  41.174  1.00  0.00     0.072 A 
HETATM    6  N3  UNL     1     -13.430  14.417  41.996  1.00  0.00    -0.339 N 
ATOM      7  H3  UNL     1     -13.763  14.875  42.843  1.00  0.00     0.167 HD
ENDROOT
BRANCH   1   8
HETATM    8  C5  UNL     1     -11.032  15.158  42.168  1.00  0.00     0.008 A 
HETATM    9  C4  UNL     1     -11.212  16.231  43.013  1.00  0.00     0.016 A 
HETATM   10  C3  UNL     1     -10.151  16.887  43.588  1.00  0.00     0.022 A 
HETATM   11  C2  UNL     1      -8.862  16.464  43.317  1.00  0.00     0.031 A 
HETATM   12  C21 UNL     1      -8.693  15.406  42.485  1.00  0.00     0.022 A 
HETATM   13  C20 UNL     1      -9.760  14.741  41.902  1.00  0.00     0.016 A 
BRANCH  11  14
HETATM   14  S1  UNL     1      -7.531  17.371  44.104  1.00  0.00     0.045 S 
HETATM   15  C1  UNL     1      -6.044  16.910  43.142  1.00  0.00     0.133 C 
HETATM   16  O1  UNL     1      -7.317  16.559  45.401  1.00  0.00    -0.253 OA
ENDBRANCH  11  14
ENDBRANCH   1   8
BRANCH   4  17
HETATM   17  C8  UNL     1     -13.654  12.418  39.003  1.00  0.00    -0.007 A 
HETATM   18  C9  UNL     1     -14.563  12.846  38.067  1.00  0.00     0.017 A 
HETATM   19  C10 UNL     1     -14.826  12.045  36.949  1.00  0.00     0.043 A 
HETATM   20  C11 UNL     1     -14.163  10.845  36.814  1.00  0.00     0.116 A 
HETATM   21  F1  UNL     1     -14.411  10.052  35.721  1.00  0.00    -0.206 F 
HETATM   22  C12 UNL     1     -13.255  10.398  37.730  1.00  0.00     0.043 A 
HETATM   23  C13 UNL     1     -13.019  11.214  38.826  1.00  0.00     0.017 A 
ENDBRANCH   4  17
BRANCH   5  24
HETATM   24  C15 UNL     1     -15.616  13.414  41.318  1.00  0.00    -0.004 A 
HETATM   25  C16 UNL     1     -16.513  14.453  41.484  1.00  0.00     0.030 A 
HETATM   26  C17 UNL     1     -17.851  14.201  41.610  1.00  0.00     0.088 A 
HETATM   27  N2  UNL     1     -18.367  12.960  41.583  1.00  0.00    -0.375 N 
HETATM   28  C18 UNL     1     -17.490  11.934  41.420  1.00  0.00     0.088 A 
ATOM     29  H2  UNL     1     -19.369  12.795  41.680  1.00  0.00     0.164 HD
HETATM   30  C19 UNL     1     -16.134  12.134  41.287  1.00  0.00     0.030 A 
ENDBRANCH   5  24
TORSDOF 4
ENDMDL
