MODEL 3
REMARK VINA RESULT: -8.408191092      3.995      6.698
REMARK  4 active torsions:
REMARK  status: ('A' for Active; 'I' for Inactive)
REMARK    1  A    between atoms: S1_2  and  C2_4 
REMARK    2  A    between atoms: C5_7  and  C6_8 
REMARK    3  A    between atoms: C7_11  and  C8_12 
REMARK    4  A    between atoms: C14_19  and  C15_20 
ROOT
HETATM    1  C6  UNL     1     -14.027  13.890  40.878  1.00  0.00     0.116 A 
HETATM    2  N1  UNL     1     -13.969  12.801  40.079  1.00  0.00    -0.339 N 
ATOM      3  H1  UNL     1     -14.743  12.163  39.895  1.00  0.00     0.167 HD
HETATM    4  C7  UNL     1     -12.719  12.691  39.558  1.00  0.00     0.072 A 
HETATM    5  C14 UNL     1     -11.995  13.743  40.055  1.00  0.00     0.072 A 
HETATM    6  N3  UNL     1     -12.824  14.441  40.847  1.00  0.00    -0.339 N 
ATOM      7  H3  UNL     1     -12.562  15.285  41.356  1.00  0.00     0.167 HD
ENDROOT
BRANCH   1   8
HETATM    8  C5  UNL     1     -15.215  14.344  41.624  1.00  0.00     0.008 A 
HETATM    9  C4  UNL     1     -15.096  15.158  42.729  1.00  0.00     0.016 A 
HETATM   10  C3  UNL     1     -16.194  15.590  43.432  1.00  0.00     0.022 A 
HETATM   11  C2  UNL     1     -17.458  15.201  43.026  1.00  0.00     0.031 A 
HETATM   12  C21 UNL     1     -17.566  14.399  41.937  1.00  0.00     0.022 A 
HETATM   13  C20 UNL     1     -16.462  13.961  41.224  1.00  0.00     0.016 A 
BRANCH  11  14
HETATM   14  S1  UNL     1     -18.840  15.804  43.996  1.00  0.00     0.045 S 
HETATM   15  C1  UNL     1     -20.263  15.724  42.848  1.00  0.00     0.133 C 
HETATM   16  O1  UNL     1     -18.563  17.324  44.030  1.00  0.00    -0.253 OA
ENDBRANCH  11  14
ENDBRANCH   1   8
BRANCH   4  17
HETATM   17  C8  UNL     1     -12.361  11.616  38.654  1.00  0.00    -0.007 A 
HETATM   18  C9  UNL     1     -12.907  11.585  37.395  1.00  0.00     0.017 A 
HETATM   19  C10 UNL     1     -12.564  10.544  36.524  1.00  0.00     0.043 A 
HETATM   20  C11 UNL     1     -11.684   9.574  36.952  1.00  0.00     0.116 A 
HETATM   21  F1  UNL     1     -11.339   8.549  36.106  1.00  0.00    -0.206 F 
HETATM   22  C12 UNL     1     -11.127   9.584  38.199  1.00  0.00     0.043 A 
HETATM   23  C13 UNL     1     -11.489  10.627  39.037  1.00  0.00     0.017 A 
ENDBRANCH   4  17
BRANCH   5  24
HETATM   24  C15 UNL     1     -10.602  14.034  39.778  1.00  0.00    -0.004 A 
HETATM   25  C16 UNL     1     -10.226  15.286  39.329  1.00  0.00     0.030 A 
HETATM   26  C17 UNL     1      -8.911  15.565  39.076  1.00  0.00     0.088 A 
HETATM   27  N2  UNL     1      -7.927  14.666  39.242  1.00  0.00    -0.375 N 
HETATM   28  C18 UNL     1      -8.291  13.432  39.683  1.00  0.00     0.088 A 
ATOM     29  H2  UNL     1      -6.953  14.896  39.046  1.00  0.00     0.164 HD
HETATM   30  C19 UNL     1      -9.599  13.100  39.953  1.00  0.00     0.030 A 
ENDBRANCH   5  24
TORSDOF 4
ENDMDL
