MODEL 2
REMARK VINA RESULT: -8.540244828      0.113      1.294
REMARK  4 active torsions:
REMARK  status: ('A' for Active; 'I' for Inactive)
REMARK    1  A    between atoms: S1_2  and  C2_4 
REMARK    2  A    between atoms: C5_7  and  C6_8 
REMARK    3  A    between atoms: C7_11  and  C8_12 
REMARK    4  A    between atoms: C14_19  and  C15_20 
ROOT
HETATM    1  C6  UNL     1     -12.254  14.488  41.614  1.00  0.00     0.116 A 
HETATM    2  N1  UNL     1     -12.190  13.764  40.474  1.00  0.00    -0.339 N 
ATOM      3  H1  UNL     1     -11.351  13.623  39.912  1.00  0.00     0.167 HD
HETATM    4  C7  UNL     1     -13.417  13.252  40.196  1.00  0.00     0.072 A 
HETATM    5  C14 UNL     1     -14.253  13.678  41.195  1.00  0.00     0.072 A 
HETATM    6  N3  UNL     1     -13.509  14.420  42.030  1.00  0.00    -0.339 N 
ATOM      7  H3  UNL     1     -13.863  14.872  42.873  1.00  0.00     0.167 HD
ENDROOT
BRANCH   1   8
HETATM    8  C5  UNL     1     -11.126  15.200  42.242  1.00  0.00     0.008 A 
HETATM    9  C4  UNL     1      -9.829  14.767  42.080  1.00  0.00     0.016 A 
HETATM   10  C3  UNL     1      -8.769  15.422  42.657  1.00  0.00     0.022 A 
HETATM   11  C2  UNL     1      -9.002  16.549  43.426  1.00  0.00     0.031 A 
HETATM   12  C21 UNL     1     -10.283  16.968  43.580  1.00  0.00     0.022 A 
HETATM   13  C20 UNL     1     -11.356  16.312  42.999  1.00  0.00     0.016 A 
BRANCH  11  14
HETATM   14  S1  UNL     1      -7.568  17.346  44.148  1.00  0.00     0.045 S 
HETATM   15  C1  UNL     1      -6.187  16.869  43.045  1.00  0.00     0.133 C 
HETATM   16  O1  UNL     1      -7.295  16.453  45.379  1.00  0.00    -0.253 OA
ENDBRANCH  11  14
ENDBRANCH   1   8
BRANCH   4  17
HETATM   17  C8  UNL     1     -13.653  12.424  39.030  1.00  0.00    -0.007 A 
HETATM   18  C9  UNL     1     -12.936  11.263  38.874  1.00  0.00     0.017 A 
HETATM   19  C10 UNL     1     -13.161  10.465  37.745  1.00  0.00     0.043 A 
HETATM   20  C11 UNL     1     -14.098  10.864  36.818  1.00  0.00     0.116 A 
HETATM   21  F1  UNL     1     -14.328  10.089  35.708  1.00  0.00    -0.206 F 
HETATM   22  C12 UNL     1     -14.824  12.013  36.952  1.00  0.00     0.043 A 
HETATM   23  C13 UNL     1     -14.576  12.781  38.079  1.00  0.00     0.017 A 
ENDBRANCH   4  17
BRANCH   5  24
HETATM   24  C15 UNL     1     -15.668  13.383  41.315  1.00  0.00    -0.004 A 
HETATM   25  C16 UNL     1     -16.587  14.409  41.433  1.00  0.00     0.030 A 
HETATM   26  C17 UNL     1     -17.923  14.134  41.537  1.00  0.00     0.088 A 
HETATM   27  N2  UNL     1     -18.415  12.884  41.534  1.00  0.00    -0.375 N 
HETATM   28  C18 UNL     1     -17.515  11.871  41.419  1.00  0.00     0.088 A 
ATOM     29  H2  UNL     1     -19.415  12.702  41.614  1.00  0.00     0.164 HD
HETATM   30  C19 UNL     1     -16.161  12.093  41.310  1.00  0.00     0.030 A 
ENDBRANCH   5  24
TORSDOF 4
ENDMDL
