MODEL 11
REMARK VINA RESULT: -7.935477701      4.329      7.086
REMARK  4 active torsions:
REMARK  status: ('A' for Active; 'I' for Inactive)
REMARK    1  A    between atoms: S1_2  and  C2_4 
REMARK    2  A    between atoms: C5_7  and  C6_8 
REMARK    3  A    between atoms: C7_11  and  C8_12 
REMARK    4  A    between atoms: C14_19  and  C15_20 
ROOT
HETATM    1  C6  UNL     1     -14.166  13.755  40.809  1.00  0.00     0.116 A 
HETATM    2  N1  UNL     1     -12.939  14.321  40.787  1.00  0.00    -0.339 N 
ATOM      3  H1  UNL     1     -12.669  15.163  41.296  1.00  0.00     0.167 HD
HETATM    4  C7  UNL     1     -12.120  13.595  39.983  1.00  0.00     0.072 A 
HETATM    5  C14 UNL     1     -12.871  12.554  39.500  1.00  0.00     0.072 A 
HETATM    6  N3  UNL     1     -14.099  12.689  40.025  1.00  0.00    -0.339 N 
ATOM      7  H3  UNL     1     -14.877  12.056  39.844  1.00  0.00     0.167 HD
ENDROOT
BRANCH   1   8
HETATM    8  C5  UNL     1     -15.327  14.252  41.568  1.00  0.00     0.008 A 
HETATM    9  C4  UNL     1     -15.166  15.063  42.670  1.00  0.00     0.016 A 
HETATM   10  C3  UNL     1     -16.239  15.535  43.385  1.00  0.00     0.022 A 
HETATM   11  C2  UNL     1     -17.521  15.190  42.996  1.00  0.00     0.031 A 
HETATM   12  C21 UNL     1     -17.671  14.390  41.911  1.00  0.00     0.022 A 
HETATM   13  C20 UNL     1     -16.592  13.912  41.185  1.00  0.00     0.016 A 
BRANCH  11  14
HETATM   14  S1  UNL     1     -18.869  15.843  43.982  1.00  0.00     0.045 S 
HETATM   15  C1  UNL     1     -20.307  15.812  42.852  1.00  0.00     0.133 C 
HETATM   16  O1  UNL     1     -18.538  17.353  44.010  1.00  0.00    -0.253 OA
ENDBRANCH  11  14
ENDBRANCH   1   8
BRANCH   4  17
HETATM   17  C8  UNL     1     -10.735  13.962  39.770  1.00  0.00    -0.007 A 
HETATM   18  C9  UNL     1     -10.429  15.248  39.398  1.00  0.00     0.017 A 
HETATM   19  C10 UNL     1      -9.091  15.601  39.188  1.00  0.00     0.043 A 
HETATM   20  C11 UNL     1      -8.110  14.649  39.361  1.00  0.00     0.116 A 
HETATM   21  F1  UNL     1      -6.795  14.984  39.160  1.00  0.00    -0.206 F 
HETATM   22  C12 UNL     1      -8.390  13.365  39.732  1.00  0.00     0.043 A 
HETATM   23  C13 UNL     1      -9.724  13.047  39.930  1.00  0.00     0.017 A 
ENDBRANCH   4  17
BRANCH   5  24
HETATM   24  C15 UNL     1     -12.419  11.517  38.593  1.00  0.00    -0.004 A 
HETATM   25  C16 UNL     1     -12.888  11.473  37.293  1.00  0.00     0.030 A 
HETATM   26  C17 UNL     1     -12.457  10.501  36.434  1.00  0.00     0.088 A 
HETATM   27  N2  UNL     1     -11.574   9.551  36.786  1.00  0.00    -0.375 N 
HETATM   28  C18 UNL     1     -11.110   9.590  38.064  1.00  0.00     0.088 A 
ATOM     29  H2  UNL     1     -11.267   8.835  36.128  1.00  0.00     0.164 HD
HETATM   30  C19 UNL     1     -11.511  10.547  38.968  1.00  0.00     0.030 A 
ENDBRANCH   5  24
TORSDOF 4
ENDMDL
