MODEL 8
REMARK VINA RESULT: -8.054132233      1.945      2.422
REMARK  4 active torsions:
REMARK  status: ('A' for Active; 'I' for Inactive)
REMARK    1  A    between atoms: S1_2  and  C2_4 
REMARK    2  A    between atoms: C5_7  and  C6_8 
REMARK    3  A    between atoms: C7_11  and  C8_12 
REMARK    4  A    between atoms: C14_19  and  C15_20 
ROOT
HETATM    1  C6  UNL     1     -12.204  14.328  40.132  1.00  0.00     0.116 A 
HETATM    2  N1  UNL     1     -12.120  13.462  39.097  1.00  0.00    -0.339 N 
ATOM      3  H1  UNL     1     -11.358  13.425  38.421  1.00  0.00     0.167 HD
HETATM    4  C7  UNL     1     -13.209  12.650  39.098  1.00  0.00     0.072 A 
HETATM    5  C14 UNL     1     -13.979  13.032  40.166  1.00  0.00     0.072 A 
HETATM    6  N3  UNL     1     -13.334  14.047  40.762  1.00  0.00    -0.339 N 
ATOM      7  H3  UNL     1     -13.671  14.538  41.591  1.00  0.00     0.167 HD
ENDROOT
BRANCH   1   8
HETATM    8  C5  UNL     1     -11.213  15.367  40.464  1.00  0.00     0.008 A 
HETATM    9  C4  UNL     1      -9.984  15.406  39.843  1.00  0.00     0.016 A 
HETATM   10  C3  UNL     1      -9.052  16.370  40.141  1.00  0.00     0.022 A 
HETATM   11  C2  UNL     1      -9.348  17.331  41.091  1.00  0.00     0.031 A 
HETATM   12  C21 UNL     1     -10.560  17.286  41.698  1.00  0.00     0.022 A 
HETATM   13  C20 UNL     1     -11.504  16.316  41.400  1.00  0.00     0.016 A 
BRANCH  11  14
HETATM   14  S1  UNL     1      -8.079  18.553  41.426  1.00  0.00     0.045 S 
HETATM   15  C1  UNL     1      -8.353  19.015  43.175  1.00  0.00     0.133 C 
HETATM   16  O1  UNL     1      -8.634  19.795  40.694  1.00  0.00    -0.253 OA
ENDBRANCH  11  14
ENDBRANCH   1   8
BRANCH   4  17
HETATM   17  C8  UNL     1     -13.390  11.613  38.103  1.00  0.00    -0.007 A 
HETATM   18  C9  UNL     1     -12.621  10.477  38.167  1.00  0.00     0.017 A 
HETATM   19  C10 UNL     1     -12.793   9.477  37.202  1.00  0.00     0.043 A 
HETATM   20  C11 UNL     1     -13.731   9.657  36.210  1.00  0.00     0.116 A 
HETATM   21  F1  UNL     1     -13.909   8.683  35.259  1.00  0.00    -0.206 F 
HETATM   22  C12 UNL     1     -14.507  10.777  36.125  1.00  0.00     0.043 A 
HETATM   23  C13 UNL     1     -14.311  11.749  37.095  1.00  0.00     0.017 A 
ENDBRANCH   4  17
BRANCH   5  24
HETATM   24  C15 UNL     1     -15.246  12.450  40.563  1.00  0.00    -0.004 A 
HETATM   25  C16 UNL     1     -16.229  13.239  41.131  1.00  0.00     0.030 A 
HETATM   26  C17 UNL     1     -17.429  12.694  41.497  1.00  0.00     0.088 A 
HETATM   27  N2  UNL     1     -17.722  11.393  41.336  1.00  0.00    -0.375 N 
HETATM   28  C18 UNL     1     -16.758  10.612  40.778  1.00  0.00     0.088 A 
ATOM     29  H2  UNL     1     -18.623  11.008  41.617  1.00  0.00     0.164 HD
HETATM   30  C19 UNL     1     -15.535  11.111  40.391  1.00  0.00     0.030 A 
ENDBRANCH   5  24
TORSDOF 4
ENDMDL
