MODEL 4
REMARK VINA RESULT: -8.250489555      1.092      1.459
REMARK  4 active torsions:
REMARK  status: ('A' for Active; 'I' for Inactive)
REMARK    1  A    between atoms: S1_2  and  C2_4 
REMARK    2  A    between atoms: C5_7  and  C6_8 
REMARK    3  A    between atoms: C7_11  and  C8_12 
REMARK    4  A    between atoms: C14_19  and  C15_20 
ROOT
HETATM    1  C6  UNL     1     -12.318  14.987  42.309  1.00  0.00     0.116 A 
HETATM    2  N1  UNL     1     -12.087  14.094  41.320  1.00  0.00    -0.339 N 
ATOM      3  H1  UNL     1     -11.174  13.882  40.919  1.00  0.00     0.167 HD
HETATM    4  C7  UNL     1     -13.261  13.523  40.944  1.00  0.00     0.072 A 
HETATM    5  C14 UNL     1     -14.236  14.084  41.727  1.00  0.00     0.072 A 
HETATM    6  N3  UNL     1     -13.623  14.962  42.537  1.00  0.00    -0.339 N 
ATOM      7  H3  UNL     1     -14.098  15.533  43.235  1.00  0.00     0.167 HD
ENDROOT
BRANCH   1   8
HETATM    8  C5  UNL     1     -11.295  15.809  42.979  1.00  0.00     0.008 A 
HETATM    9  C4  UNL     1     -11.418  17.179  43.057  1.00  0.00     0.016 A 
HETATM   10  C3  UNL     1     -10.474  17.957  43.680  1.00  0.00     0.022 A 
HETATM   11  C2  UNL     1      -9.364  17.356  44.247  1.00  0.00     0.031 A 
HETATM   12  C21 UNL     1      -9.250  16.007  44.165  1.00  0.00     0.022 A 
HETATM   13  C20 UNL     1     -10.200  15.217  43.539  1.00  0.00     0.016 A 
BRANCH  11  14
HETATM   14  S1  UNL     1      -8.175  18.440  45.039  1.00  0.00     0.045 S 
HETATM   15  C1  UNL     1      -7.097  19.000  43.670  1.00  0.00     0.133 C 
HETATM   16  O1  UNL     1      -7.253  17.427  45.756  1.00  0.00    -0.253 OA
ENDBRANCH  11  14
ENDBRANCH   1   8
BRANCH   4  17
HETATM   17  C8  UNL     1     -13.322  12.518  39.902  1.00  0.00    -0.007 A 
HETATM   18  C9  UNL     1     -12.999  11.218  40.201  1.00  0.00     0.017 A 
HETATM   19  C10 UNL     1     -13.054  10.248  39.193  1.00  0.00     0.043 A 
HETATM   20  C11 UNL     1     -13.433  10.622  37.923  1.00  0.00     0.116 A 
HETATM   21  F1  UNL     1     -13.491   9.680  36.926  1.00  0.00    -0.206 F 
HETATM   22  C12 UNL     1     -13.759  11.908  37.601  1.00  0.00     0.043 A 
HETATM   23  C13 UNL     1     -13.693  12.844  38.622  1.00  0.00     0.017 A 
ENDBRANCH   4  17
BRANCH   5  24
HETATM   24  C15 UNL     1     -15.654  13.786  41.679  1.00  0.00    -0.004 A 
HETATM   25  C16 UNL     1     -16.586  14.798  41.819  1.00  0.00     0.030 A 
HETATM   26  C17 UNL     1     -17.924  14.521  41.765  1.00  0.00     0.088 A 
HETATM   27  N2  UNL     1     -18.407  13.281  41.577  1.00  0.00    -0.375 N 
HETATM   28  C18 UNL     1     -17.495  12.282  41.439  1.00  0.00     0.088 A 
ATOM     29  H2  UNL     1     -19.409  13.097  41.541  1.00  0.00     0.164 HD
HETATM   30  C19 UNL     1     -16.138  12.507  41.485  1.00  0.00     0.030 A 
ENDBRANCH   5  24
TORSDOF 4
ENDMDL
