MODEL 3
REMARK VINA RESULT: -8.907913156      1.420      2.213
REMARK  7 active torsions:
REMARK  status: ('A' for Active; 'I' for Inactive)
REMARK    1  A    between atoms: C2_2  and  C3_3 
REMARK    2  A    between atoms: C3_3  and  N1_4 
REMARK    3  A    between atoms: C4_5  and  C5_6 
REMARK    4  A    between atoms: C11_15  and  C12_16 
REMARK    5  A    between atoms: C18_24  and  C19_25 
REMARK    6  A    between atoms: C22_30  and  N5_31 
REMARK    7  A    between atoms: N5_31  and  C23_33 
ROOT
HETATM    1  N1  UNL     1      21.957  10.890  32.247  1.00  0.00    -0.333 N 
HETATM    2  C4  UNL     1      23.147  10.432  31.784  1.00  0.00     0.088 A 
HETATM    3  N3  UNL     1      23.791  11.481  31.251  1.00  0.00    -0.343 N 
ATOM      4  H3  UNL     1      24.714  11.459  30.819  1.00  0.00     0.167 HD
HETATM    5  C11 UNL     1      23.010  12.561  31.387  1.00  0.00     0.073 A 
HETATM    6  C18 UNL     1      21.847  12.202  32.016  1.00  0.00     0.091 A 
ENDROOT
BRANCH   6   7
HETATM    7  C19 UNL     1      20.732  13.059  32.371  1.00  0.00     0.079 A 
HETATM    8  C20 UNL     1      20.245  13.961  31.440  1.00  0.00     0.050 A 
HETATM    9  C21 UNL     1      19.185  14.754  31.776  1.00  0.00     0.108 A 
HETATM   10  N4  UNL     1      18.618  14.668  32.988  1.00  0.00    -0.202 N 
HETATM   11  C22 UNL     1      19.094  13.794  33.881  1.00  0.00     0.678 A 
ATOM     12  H4  UNL     1      17.827  15.265  33.226  1.00  0.00     0.183 HD
HETATM   13  N6  UNL     1      20.132  13.009  33.572  1.00  0.00    -0.190 N 
ATOM     14  H6  UNL     1      20.478  12.350  34.270  1.00  0.00     0.184 HD
BRANCH  11  15
HETATM   15  N5  UNL     1      18.483  13.711  35.157  1.00  0.00    -0.221 N 
ATOM     16  H5  UNL     1      18.492  14.528  35.768  1.00  0.00     0.178 HD
BRANCH  15  17
HETATM   17  C23 UNL     1      17.847  12.499  35.610  1.00  0.00     0.099 A 
HETATM   18  C24 UNL     1      17.042  12.405  36.831  1.00  0.00     0.028 A 
HETATM   19  C25 UNL     1      18.437  11.910  36.853  1.00  0.00     0.028 A 
ENDBRANCH  15  17
ENDBRANCH  11  15
ENDBRANCH   6   7
BRANCH   1  20
HETATM   20  C3  UNL     1      20.983  10.025  32.881  1.00  0.00     0.130 C 
BRANCH  20  21
HETATM   21  C2  UNL     1      20.043   9.343  31.947  1.00  0.00     0.016 C 
HETATM   22  C1  UNL     1      19.740   7.906  32.290  1.00  0.00     0.006 C 
ENDBRANCH  20  21
ENDBRANCH   1  20
BRANCH   5  23
HETATM   23  C12 UNL     1      23.356  13.903  30.929  1.00  0.00    -0.005 A 
HETATM   24  C13 UNL     1      23.336  14.195  29.588  1.00  0.00     0.015 A 
HETATM   25  C14 UNL     1      23.661  15.460  29.158  1.00  0.00     0.026 A 
HETATM   26  C15 UNL     1      24.005  16.430  30.073  1.00  0.00     0.055 A 
HETATM   27 CL1  UNL     1      24.419  18.037  29.555  1.00  0.00    -0.083 Cl
HETATM   28  C16 UNL     1      24.021  16.123  31.411  1.00  0.00     0.056 A 
HETATM   29 CL2  UNL     1      24.447  17.295  32.647  1.00  0.00    -0.083 Cl
HETATM   30  C17 UNL     1      23.694  14.856  31.828  1.00  0.00     0.039 A 
ENDBRANCH   5  23
BRANCH   2  31
HETATM   31  C5  UNL     1      23.691   9.024  31.850  1.00  0.00     0.057 C 
HETATM   32  C6  UNL     1      25.219   9.080  31.677  1.00  0.00     0.042 C 
HETATM   33  C7  UNL     1      25.662   7.723  31.181  1.00  0.00     0.272 C 
HETATM   34  N2  UNL     1      25.410   7.695  29.750  1.00  0.00     0.084 N 
HETATM   35  C8  UNL     1      25.440   6.360  29.216  1.00  0.00     0.309 C 
HETATM   36  C9  UNL     1      24.169   8.359  29.490  1.00  0.00     0.272 C 
HETATM   37  C10 UNL     1      23.179   8.261  30.653  1.00  0.00     0.042 C 
ENDBRANCH   2  31
TORSDOF 7
ENDMDL
