MODEL 2
REMARK VINA RESULT: -9.030389709      3.014      7.104
REMARK  7 active torsions:
REMARK  status: ('A' for Active; 'I' for Inactive)
REMARK    1  A    between atoms: C2_2  and  C3_3 
REMARK    2  A    between atoms: C3_3  and  N1_4 
REMARK    3  A    between atoms: C4_5  and  C5_6 
REMARK    4  A    between atoms: C11_15  and  C12_16 
REMARK    5  A    between atoms: C18_24  and  C19_25 
REMARK    6  A    between atoms: C22_30  and  N5_31 
REMARK    7  A    between atoms: N5_31  and  C23_33 
ROOT
HETATM    1  N1  UNL     1      22.902  11.062  30.663  1.00  0.00    -0.333 N 
HETATM    2  C4  UNL     1      23.178  12.386  30.773  1.00  0.00     0.088 A 
HETATM    3  N3  UNL     1      22.435  12.860  31.783  1.00  0.00    -0.343 N 
ATOM      4  H3  UNL     1      22.419  13.825  32.113  1.00  0.00     0.167 HD
HETATM    5  C11 UNL     1      21.717  11.846  32.283  1.00  0.00     0.073 A 
HETATM    6  C18 UNL     1      22.003  10.701  31.585  1.00  0.00     0.091 A 
ENDROOT
BRANCH   6   7
HETATM    7  C19 UNL     1      21.461   9.374  31.800  1.00  0.00     0.079 A 
HETATM    8  C20 UNL     1      20.088   9.198  31.828  1.00  0.00     0.050 A 
HETATM    9  C21 UNL     1      19.584   7.942  32.016  1.00  0.00     0.108 A 
HETATM   10  N4  UNL     1      20.399   6.889  32.172  1.00  0.00    -0.202 N 
HETATM   11  C22 UNL     1      21.724   7.068  32.144  1.00  0.00     0.678 A 
ATOM     12  H4  UNL     1      20.010   5.957  32.311  1.00  0.00     0.183 HD
HETATM   13  N6  UNL     1      22.238   8.290  31.961  1.00  0.00    -0.190 N 
ATOM     14  H6  UNL     1      23.252   8.402  31.943  1.00  0.00     0.184 HD
BRANCH  11  15
HETATM   15  N5  UNL     1      22.574   5.946  32.306  1.00  0.00    -0.221 N 
ATOM     16  H5  UNL     1      22.288   5.191  32.930  1.00  0.00     0.178 HD
BRANCH  15  17
HETATM   17  C23 UNL     1      23.833   5.848  31.610  1.00  0.00     0.099 A 
HETATM   18  C24 UNL     1      24.072   4.947  30.479  1.00  0.00     0.028 A 
HETATM   19  C25 UNL     1      24.565   4.559  31.819  1.00  0.00     0.028 A 
ENDBRANCH  15  17
ENDBRANCH  11  15
ENDBRANCH   6   7
BRANCH   1  20
HETATM   20  C3  UNL     1      23.518  10.218  29.660  1.00  0.00     0.130 C 
BRANCH  20  21
HETATM   21  C2  UNL     1      24.833   9.634  30.049  1.00  0.00     0.016 C 
HETATM   22  C1  UNL     1      25.252   8.426  29.250  1.00  0.00     0.006 C 
ENDBRANCH  20  21
ENDBRANCH   1  20
BRANCH   5  23
HETATM   23  C12 UNL     1      20.779  11.956  33.396  1.00  0.00    -0.005 A 
HETATM   24  C13 UNL     1      20.837  11.058  34.432  1.00  0.00     0.015 A 
HETATM   25  C14 UNL     1      19.953  11.164  35.480  1.00  0.00     0.026 A 
HETATM   26  C15 UNL     1      19.014  12.171  35.488  1.00  0.00     0.055 A 
HETATM   27 CL1  UNL     1      17.886  12.328  36.801  1.00  0.00    -0.083 Cl
HETATM   28  C16 UNL     1      18.968  13.063  34.444  1.00  0.00     0.056 A 
HETATM   29 CL2  UNL     1      17.806  14.376  34.371  1.00  0.00    -0.083 Cl
HETATM   30  C17 UNL     1      19.856  12.946  33.403  1.00  0.00     0.039 A 
ENDBRANCH   5  23
BRANCH   2  31
HETATM   31  C5  UNL     1      24.144  13.205  29.949  1.00  0.00     0.057 C 
HETATM   32  C6  UNL     1      24.969  14.092  30.899  1.00  0.00     0.042 C 
HETATM   33  C7  UNL     1      25.480  15.260  30.088  1.00  0.00     0.272 C 
HETATM   34  N2  UNL     1      24.390  16.217  29.995  1.00  0.00     0.084 N 
HETATM   35  C8  UNL     1      24.607  17.193  28.962  1.00  0.00     0.309 C 
HETATM   36  C9  UNL     1      23.164  15.499  29.819  1.00  0.00     0.272 C 
HETATM   37  C10 UNL     1      23.348  14.163  29.097  1.00  0.00     0.042 C 
ENDBRANCH   2  31
TORSDOF 7
ENDMDL
