MODEL 4
REMARK VINA RESULT: -8.861041863      3.257      5.417
REMARK  7 active torsions:
REMARK  status: ('A' for Active; 'I' for Inactive)
REMARK    1  A    between atoms: C2_2  and  C3_3 
REMARK    2  A    between atoms: C3_3  and  N1_4 
REMARK    3  A    between atoms: C4_5  and  C5_6 
REMARK    4  A    between atoms: C11_15  and  C12_16 
REMARK    5  A    between atoms: C18_24  and  C19_25 
REMARK    6  A    between atoms: C22_30  and  N5_31 
REMARK    7  A    between atoms: N5_31  and  C23_33 
ROOT
HETATM    1  N1  UNL     1      23.669  12.772  31.090  1.00  0.00    -0.333 N 
HETATM    2  C4  UNL     1      23.074  11.589  31.382  1.00  0.00     0.088 A 
HETATM    3  N3  UNL     1      21.821  11.864  31.770  1.00  0.00    -0.343 N 
ATOM      4  H3  UNL     1      21.119  11.182  32.056  1.00  0.00     0.167 HD
HETATM    5  C11 UNL     1      21.651  13.192  31.716  1.00  0.00     0.073 A 
HETATM    6  C18 UNL     1      22.813  13.780  31.286  1.00  0.00     0.091 A 
ENDROOT
BRANCH   6   7
HETATM    7  C19 UNL     1      23.065  15.192  31.074  1.00  0.00     0.079 A 
HETATM    8  C20 UNL     1      23.633  15.940  32.092  1.00  0.00     0.050 A 
HETATM    9  C21 UNL     1      23.881  17.266  31.880  1.00  0.00     0.108 A 
HETATM   10  N4  UNL     1      23.584  17.844  30.707  1.00  0.00    -0.202 N 
HETATM   11  C22 UNL     1      23.036  17.114  29.730  1.00  0.00     0.678 A 
ATOM     12  H4  UNL     1      23.775  18.835  30.562  1.00  0.00     0.183 HD
HETATM   13  N6  UNL     1      22.784  15.814  29.917  1.00  0.00    -0.190 N 
ATOM     14  H6  UNL     1      22.365  15.277  29.157  1.00  0.00     0.184 HD
BRANCH  11  15
HETATM   15  N5  UNL     1      22.730  17.736  28.495  1.00  0.00    -0.221 N 
ATOM     16  H5  UNL     1      21.855  17.507  28.024  1.00  0.00     0.178 HD
BRANCH  15  17
HETATM   17  C23 UNL     1      23.628  18.688  27.888  1.00  0.00     0.099 A 
HETATM   18  C24 UNL     1      23.439  20.140  27.944  1.00  0.00     0.028 A 
HETATM   19  C25 UNL     1      23.065  19.417  26.708  1.00  0.00     0.028 A 
ENDBRANCH  15  17
ENDBRANCH  11  15
ENDBRANCH   6   7
BRANCH   1  20
HETATM   20  C3  UNL     1      25.045  12.864  30.645  1.00  0.00     0.130 C 
BRANCH  20  21
HETATM   21  C2  UNL     1      25.226  12.952  29.169  1.00  0.00     0.016 C 
HETATM   22  C1  UNL     1      25.643  11.666  28.502  1.00  0.00     0.006 C 
ENDBRANCH  20  21
ENDBRANCH   1  20
BRANCH   5  23
HETATM   23  C12 UNL     1      20.418  13.891  32.065  1.00  0.00    -0.005 A 
HETATM   24  C13 UNL     1      19.863  14.783  31.184  1.00  0.00     0.015 A 
HETATM   25  C14 UNL     1      18.702  15.440  31.513  1.00  0.00     0.026 A 
HETATM   26  C15 UNL     1      18.097  15.200  32.727  1.00  0.00     0.055 A 
HETATM   27 CL1  UNL     1      16.627  16.016  33.169  1.00  0.00    -0.083 Cl
HETATM   28  C16 UNL     1      18.664  14.304  33.601  1.00  0.00     0.056 A 
HETATM   29 CL2  UNL     1      17.964  13.936  35.167  1.00  0.00    -0.083 Cl
HETATM   30  C17 UNL     1      19.825  13.654  33.259  1.00  0.00     0.039 A 
ENDBRANCH   5  23
BRANCH   2  31
HETATM   31  C5  UNL     1      23.666  10.202  31.285  1.00  0.00     0.057 C 
HETATM   32  C6  UNL     1      23.031   9.480  30.082  1.00  0.00     0.042 C 
HETATM   33  C7  UNL     1      23.172   7.996  30.327  1.00  0.00     0.272 C 
HETATM   34  N2  UNL     1      22.103   7.616  31.235  1.00  0.00     0.084 N 
HETATM   35  C8  UNL     1      22.328   6.329  31.835  1.00  0.00     0.309 C 
HETATM   36  C9  UNL     1      21.939   8.652  32.210  1.00  0.00     0.272 C 
HETATM   37  C10 UNL     1      23.234   9.415  32.498  1.00  0.00     0.042 C 
ENDBRANCH   2  31
TORSDOF 7
ENDMDL
