MODEL 1
REMARK VINA RESULT: -9.141020853      0.000      0.000
REMARK  7 active torsions:
REMARK  status: ('A' for Active; 'I' for Inactive)
REMARK    1  A    between atoms: C2_2  and  C3_3 
REMARK    2  A    between atoms: C3_3  and  N1_4 
REMARK    3  A    between atoms: C4_5  and  C5_6 
REMARK    4  A    between atoms: C11_15  and  C12_16 
REMARK    5  A    between atoms: C18_24  and  C19_25 
REMARK    6  A    between atoms: C22_30  and  N5_31 
REMARK    7  A    between atoms: N5_31  and  C23_33 
ROOT
HETATM    1  N1  UNL     1      21.795  10.602  32.498  1.00  0.00    -0.333 N 
HETATM    2  C4  UNL     1      22.935  10.392  31.794  1.00  0.00     0.088 A 
HETATM    3  N3  UNL     1      23.321  11.581  31.308  1.00  0.00    -0.343 N 
ATOM      4  H3  UNL     1      24.145  11.753  30.734  1.00  0.00     0.167 HD
HETATM    5  C11 UNL     1      22.434  12.501  31.709  1.00  0.00     0.073 A 
HETATM    6  C18 UNL     1      21.463  11.896  32.463  1.00  0.00     0.091 A 
ENDROOT
BRANCH   6   7
HETATM    7  C19 UNL     1      20.321  12.521  33.103  1.00  0.00     0.079 A 
HETATM    8  C20 UNL     1      20.072  12.269  34.442  1.00  0.00     0.050 A 
HETATM    9  C21 UNL     1      19.004  12.873  35.043  1.00  0.00     0.108 A 
HETATM   10  N4  UNL     1      18.203  13.698  34.355  1.00  0.00    -0.202 N 
HETATM   11  C22 UNL     1      18.451  13.936  33.062  1.00  0.00     0.678 A 
ATOM     12  H4  UNL     1      17.409  14.143  34.815  1.00  0.00     0.183 HD
HETATM   13  N6  UNL     1      19.491  13.354  32.455  1.00  0.00    -0.190 N 
ATOM     14  H6  UNL     1      19.661  13.550  31.468  1.00  0.00     0.184 HD
BRANCH  11  15
HETATM   15  N5  UNL     1      17.598  14.813  32.347  1.00  0.00    -0.221 N 
ATOM     16  H5  UNL     1      17.004  14.438  31.608  1.00  0.00     0.178 HD
BRANCH  15  17
HETATM   17  C23 UNL     1      17.551  16.224  32.643  1.00  0.00     0.099 A 
HETATM   18  C24 UNL     1      17.081  16.777  33.916  1.00  0.00     0.028 A 
HETATM   19  C25 UNL     1      16.171  16.795  32.748  1.00  0.00     0.028 A 
ENDBRANCH  15  17
ENDBRANCH  11  15
ENDBRANCH   6   7
BRANCH   1  20
HETATM   20  C3  UNL     1      21.080   9.529  33.161  1.00  0.00     0.130 C 
BRANCH  20  21
HETATM   21  C2  UNL     1      20.069   8.831  32.319  1.00  0.00     0.016 C 
HETATM   22  C1  UNL     1      20.334   7.365  32.093  1.00  0.00     0.006 C 
ENDBRANCH  20  21
ENDBRANCH   1  20
BRANCH   5  23
HETATM   23  C12 UNL     1      22.501  13.922  31.382  1.00  0.00    -0.005 A 
HETATM   24  C13 UNL     1      21.709  14.434  30.386  1.00  0.00     0.015 A 
HETATM   25  C14 UNL     1      21.772  15.773  30.080  1.00  0.00     0.026 A 
HETATM   26  C15 UNL     1      22.630  16.597  30.775  1.00  0.00     0.055 A 
HETATM   27 CL1  UNL     1      22.729  18.293  30.409  1.00  0.00    -0.083 Cl
HETATM   28  C16 UNL     1      23.418  16.071  31.769  1.00  0.00     0.056 A 
HETATM   29 CL2  UNL     1      24.538  17.045  32.705  1.00  0.00    -0.083 Cl
HETATM   30  C17 UNL     1      23.344  14.731  32.065  1.00  0.00     0.039 A 
ENDBRANCH   5  23
BRANCH   2  31
HETATM   31  C5  UNL     1      23.673   9.090  31.585  1.00  0.00     0.057 C 
HETATM   32  C6  UNL     1      25.183   9.385  31.537  1.00  0.00     0.042 C 
HETATM   33  C7  UNL     1      25.836   8.248  30.786  1.00  0.00     0.272 C 
HETATM   34  N2  UNL     1      25.646   8.515  29.370  1.00  0.00     0.084 N 
HETATM   35  C8  UNL     1      25.889   7.354  28.558  1.00  0.00     0.309 C 
HETATM   36  C9  UNL     1      24.333   9.052  29.176  1.00  0.00     0.272 C 
HETATM   37  C10 UNL     1      23.324   8.560  30.216  1.00  0.00     0.042 C 
ENDBRANCH   2  31
TORSDOF 7
ENDMDL
