MODEL 3
REMARK VINA RESULT: -5.900679585      0.923      1.075
REMARK  9 active torsions:
REMARK  status: ('A' for Active; 'I' for Inactive)
REMARK    1  A    between atoms: N1_1  and  C1_5 
REMARK    2  A    between atoms: C1_5  and  C2_6 
REMARK    3  A    between atoms: C2_6  and  C3_7 
REMARK    4  A    between atoms: C3_7  and  C4_8 
REMARK    5  A    between atoms: C4_8  and  N2_9 
REMARK    6  A    between atoms: N2_9  and  C5_12 
REMARK    7  A    between atoms: C5_12  and  C6_13 
REMARK    8  A    between atoms: C6_13  and  C7_14 
REMARK    9  A    between atoms: C7_14  and  N3_15 
ROOT
HETATM    1  N2  UNL     1      66.565  43.215   9.556  1.00  0.00    -0.075 N 
ATOM      2  H21 UNL     1      67.499  43.017   9.198  1.00  0.00     0.277 HD
ATOM      3  H22 UNL     1      66.651  42.769  10.470  1.00  0.00     0.277 HD
ENDROOT
BRANCH   1   4
HETATM    4  C4  UNL     1      65.531  42.582   8.742  1.00  0.00     0.232 C 
BRANCH   4   5
HETATM    5  C3  UNL     1      66.225  42.066   7.502  1.00  0.00     0.029 C 
BRANCH   5   6
HETATM    6  C2  UNL     1      66.520  40.593   7.551  1.00  0.00     0.029 C 
BRANCH   6   7
HETATM    7  C1  UNL     1      66.183  39.903   6.257  1.00  0.00     0.229 C 
BRANCH   7   8
HETATM    8  N1  UNL     1      66.837  40.503   5.124  1.00  0.00    -0.079 N 
ATOM      9  H13 UNL     1      66.205  40.566   4.326  1.00  0.00     0.274 HD
ATOM     10  H12 UNL     1      67.003  41.497   5.280  1.00  0.00     0.274 HD
ATOM     11  H11 UNL     1      67.700  40.022   4.870  1.00  0.00     0.274 HD
ENDBRANCH   7   8
ENDBRANCH   6   7
ENDBRANCH   5   6
ENDBRANCH   4   5
ENDBRANCH   1   4
BRANCH   1  12
HETATM   12  C5  UNL     1      66.330  44.643   9.677  1.00  0.00     0.233 C 
BRANCH  12  13
HETATM   13  C6  UNL     1      65.143  44.806  10.625  1.00  0.00     0.055 C 
BRANCH  13  14
HETATM   14  C7  UNL     1      65.437  45.854  11.679  1.00  0.00     0.231 C 
BRANCH  14  15
HETATM   15  N3  UNL     1      66.310  46.840  11.069  1.00  0.00    -0.079 N 
ATOM     16  H33 UNL     1      66.760  47.452  11.750  1.00  0.00     0.274 HD
ATOM     17  H32 UNL     1      67.159  46.434  10.677  1.00  0.00     0.274 HD
ATOM     18  H31 UNL     1      65.755  47.348  10.381  1.00  0.00     0.274 HD
ENDBRANCH  14  15
ENDBRANCH  13  14
ENDBRANCH  12  13
ENDBRANCH   1  12
TORSDOF 9
ENDMDL
