MODEL 8
REMARK VINA RESULT: -4.963259091      1.362      1.800
REMARK  9 active torsions:
REMARK  status: ('A' for Active; 'I' for Inactive)
REMARK    1  A    between atoms: N1_1  and  C1_5 
REMARK    2  A    between atoms: C1_5  and  C2_6 
REMARK    3  A    between atoms: C2_6  and  C3_7 
REMARK    4  A    between atoms: C3_7  and  C4_8 
REMARK    5  A    between atoms: C4_8  and  N2_9 
REMARK    6  A    between atoms: N2_9  and  C5_12 
REMARK    7  A    between atoms: C5_12  and  C6_13 
REMARK    8  A    between atoms: C6_13  and  C7_14 
REMARK    9  A    between atoms: C7_14  and  N3_15 
ROOT
HETATM    1  N2  UNL     1      66.657  44.076  10.096  1.00  0.00    -0.075 N 
ATOM      2  H21 UNL     1      67.572  43.627  10.055  1.00  0.00     0.277 HD
ATOM      3  H22 UNL     1      66.580  44.179  11.109  1.00  0.00     0.277 HD
ENDROOT
BRANCH   1   4
HETATM    4  C4  UNL     1      65.608  43.212   9.561  1.00  0.00     0.232 C 
BRANCH   4   5
HETATM    5  C3  UNL     1      66.049  42.824   8.169  1.00  0.00     0.029 C 
BRANCH   5   6
HETATM    6  C2  UNL     1      66.217  41.340   7.986  1.00  0.00     0.029 C 
BRANCH   6   7
HETATM    7  C1  UNL     1      66.160  40.937   6.538  1.00  0.00     0.229 C 
BRANCH   7   8
HETATM    8  N1  UNL     1      66.724  39.633   6.305  1.00  0.00    -0.079 N 
ATOM      9  H13 UNL     1      67.674  39.705   5.939  1.00  0.00     0.274 HD
ATOM     10  H12 UNL     1      66.924  39.157   7.184  1.00  0.00     0.274 HD
ATOM     11  H11 UNL     1      66.141  39.056   5.699  1.00  0.00     0.274 HD
ENDBRANCH   7   8
ENDBRANCH   6   7
ENDBRANCH   5   6
ENDBRANCH   4   5
ENDBRANCH   1   4
BRANCH   1  12
HETATM   12  C5  UNL     1      66.662  45.364   9.426  1.00  0.00     0.233 C 
BRANCH  12  13
HETATM   13  C6  UNL     1      65.748  46.278  10.241  1.00  0.00     0.055 C 
BRANCH  13  14
HETATM   14  C7  UNL     1      65.996  46.100  11.725  1.00  0.00     0.231 C 
BRANCH  14  15
HETATM   15  N3  UNL     1      64.703  46.148  12.383  1.00  0.00    -0.079 N 
ATOM     16  H33 UNL     1      64.070  45.409  12.076  1.00  0.00     0.274 HD
ATOM     17  H32 UNL     1      64.745  45.884  13.367  1.00  0.00     0.274 HD
ATOM     18  H31 UNL     1      64.325  47.085  12.236  1.00  0.00     0.274 HD
ENDBRANCH  14  15
ENDBRANCH  13  14
ENDBRANCH  12  13
ENDBRANCH   1  12
TORSDOF 9
ENDMDL
