MODEL 1
REMARK VINA RESULT: -6.326545630      0.000      0.000
REMARK  9 active torsions:
REMARK  status: ('A' for Active; 'I' for Inactive)
REMARK    1  A    between atoms: N1_1  and  C1_5 
REMARK    2  A    between atoms: C1_5  and  C2_6 
REMARK    3  A    between atoms: C2_6  and  C3_7 
REMARK    4  A    between atoms: C3_7  and  C4_8 
REMARK    5  A    between atoms: C4_8  and  N2_9 
REMARK    6  A    between atoms: N2_9  and  C5_12 
REMARK    7  A    between atoms: C5_12  and  C6_13 
REMARK    8  A    between atoms: C6_13  and  C7_14 
REMARK    9  A    between atoms: C7_14  and  N3_15 
ROOT
HETATM    1  N2  UNL     1      65.418  42.749   9.032  1.00  0.00    -0.075 N 
ATOM      2  H21 UNL     1      65.211  41.939   9.616  1.00  0.00     0.277 HD
ATOM      3  H22 UNL     1      64.464  43.083   8.887  1.00  0.00     0.277 HD
ENDROOT
BRANCH   1   4
HETATM    4  C4  UNL     1      66.050  42.360   7.775  1.00  0.00     0.232 C 
BRANCH   4   5
HETATM    5  C3  UNL     1      66.474  40.918   7.943  1.00  0.00     0.029 C 
BRANCH   5   6
HETATM    6  C2  UNL     1      66.558  40.163   6.646  1.00  0.00     0.029 C 
BRANCH   6   7
HETATM    7  C1  UNL     1      66.292  41.046   5.457  1.00  0.00     0.229 C 
BRANCH   7   8
HETATM    8  N1  UNL     1      67.098  40.695   4.317  1.00  0.00    -0.079 N 
ATOM      9  H13 UNL     1      67.223  41.495   3.696  1.00  0.00     0.274 HD
ATOM     10  H12 UNL     1      68.070  40.543   4.586  1.00  0.00     0.274 HD
ATOM     11  H11 UNL     1      66.728  39.892   3.808  1.00  0.00     0.274 HD
ENDBRANCH   7   8
ENDBRANCH   6   7
ENDBRANCH   5   6
ENDBRANCH   4   5
ENDBRANCH   1   4
BRANCH   1  12
HETATM   12  C5  UNL     1      66.225  43.728   9.739  1.00  0.00     0.233 C 
BRANCH  12  13
HETATM   13  C6  UNL     1      65.252  44.595  10.537  1.00  0.00     0.055 C 
BRANCH  13  14
HETATM   14  C7  UNL     1      65.648  46.055  10.462  1.00  0.00     0.231 C 
BRANCH  14  15
HETATM   15  N3  UNL     1      66.112  46.441  11.782  1.00  0.00    -0.079 N 
ATOM     16  H33 UNL     1      65.437  47.012  12.292  1.00  0.00     0.274 HD
ATOM     17  H32 UNL     1      66.145  45.660  12.438  1.00  0.00     0.274 HD
ATOM     18  H31 UNL     1      67.014  46.900  11.661  1.00  0.00     0.274 HD
ENDBRANCH  14  15
ENDBRANCH  13  14
ENDBRANCH  12  13
ENDBRANCH   1  12
TORSDOF 9
ENDMDL
