MODEL 6
REMARK VINA RESULT: -5.317951814      1.713      5.622
REMARK  9 active torsions:
REMARK  status: ('A' for Active; 'I' for Inactive)
REMARK    1  A    between atoms: N1_1  and  C1_5 
REMARK    2  A    between atoms: C1_5  and  C2_6 
REMARK    3  A    between atoms: C2_6  and  C3_7 
REMARK    4  A    between atoms: C3_7  and  C4_8 
REMARK    5  A    between atoms: C4_8  and  N2_9 
REMARK    6  A    between atoms: N2_9  and  C5_12 
REMARK    7  A    between atoms: C5_12  and  C6_13 
REMARK    8  A    between atoms: C6_13  and  C7_14 
REMARK    9  A    between atoms: C7_14  and  N3_15 
ROOT
HETATM    1  N2  UNL     1      67.046  40.195   6.761  1.00  0.00    -0.075 N 
ATOM      2  H21 UNL     1      67.666  39.385   6.756  1.00  0.00     0.277 HD
ATOM      3  H22 UNL     1      67.731  40.916   6.532  1.00  0.00     0.277 HD
ENDROOT
BRANCH   1   4
HETATM    4  C4  UNL     1      66.454  40.413   8.078  1.00  0.00     0.232 C 
BRANCH   4   5
HETATM    5  C3  UNL     1      65.737  41.741   8.005  1.00  0.00     0.029 C 
BRANCH   5   6
HETATM    6  C2  UNL     1      66.432  42.840   8.762  1.00  0.00     0.029 C 
BRANCH   6   7
HETATM    7  C1  UNL     1      65.489  43.597   9.657  1.00  0.00     0.229 C 
BRANCH   7   8
HETATM    8  N1  UNL     1      66.159  44.599  10.444  1.00  0.00    -0.079 N 
ATOM      9  H13 UNL     1      65.750  44.667  11.376  1.00  0.00     0.274 HD
ATOM     10  H12 UNL     1      67.100  44.297  10.699  1.00  0.00     0.274 HD
ATOM     11  H11 UNL     1      66.178  45.510   9.985  1.00  0.00     0.274 HD
ENDBRANCH   7   8
ENDBRANCH   6   7
ENDBRANCH   5   6
ENDBRANCH   4   5
ENDBRANCH   1   4
BRANCH   1  12
HETATM   12  C5  UNL     1      66.019  40.090   5.740  1.00  0.00     0.233 C 
BRANCH  12  13
HETATM   13  C6  UNL     1      66.528  40.876   4.532  1.00  0.00     0.055 C 
BRANCH  13  14
HETATM   14  C7  UNL     1      66.553  42.361   4.830  1.00  0.00     0.231 C 
BRANCH  14  15
HETATM   15  N3  UNL     1      66.537  43.053   3.555  1.00  0.00    -0.079 N 
ATOM     16  H33 UNL     1      66.968  42.516   2.802  1.00  0.00     0.274 HD
ATOM     17  H32 UNL     1      65.604  43.122   3.149  1.00  0.00     0.274 HD
ATOM     18  H31 UNL     1      66.978  43.962   3.701  1.00  0.00     0.274 HD
ENDBRANCH  14  15
ENDBRANCH  13  14
ENDBRANCH  12  13
ENDBRANCH   1  12
TORSDOF 9
ENDMDL
