MODEL 11
REMARK VINA RESULT: -4.261777603      1.551      1.861
REMARK  9 active torsions:
REMARK  status: ('A' for Active; 'I' for Inactive)
REMARK    1  A    between atoms: N1_1  and  C1_5 
REMARK    2  A    between atoms: C1_5  and  C2_6 
REMARK    3  A    between atoms: C2_6  and  C3_7 
REMARK    4  A    between atoms: C3_7  and  C4_8 
REMARK    5  A    between atoms: C4_8  and  N2_9 
REMARK    6  A    between atoms: N2_9  and  C5_12 
REMARK    7  A    between atoms: C5_12  and  C6_13 
REMARK    8  A    between atoms: C6_13  and  C7_14 
REMARK    9  A    between atoms: C7_14  and  N3_15 
ROOT
HETATM    1  N2  UNL     1      64.635  43.703   9.894  1.00  0.00    -0.075 N 
ATOM      2  H21 UNL     1      63.956  43.011  10.213  1.00  0.00     0.277 HD
ATOM      3  H22 UNL     1      64.083  44.130   9.150  1.00  0.00     0.277 HD
ENDROOT
BRANCH   1   4
HETATM    4  C4  UNL     1      65.844  43.071   9.373  1.00  0.00     0.232 C 
BRANCH   4   5
HETATM    5  C3  UNL     1      65.410  42.240   8.187  1.00  0.00     0.029 C 
BRANCH   5   6
HETATM    6  C2  UNL     1      66.556  41.595   7.457  1.00  0.00     0.029 C 
BRANCH   6   7
HETATM    7  C1  UNL     1      66.092  40.773   6.286  1.00  0.00     0.229 C 
BRANCH   7   8
HETATM    8  N1  UNL     1      66.667  39.454   6.274  1.00  0.00    -0.079 N 
ATOM      9  H13 UNL     1      67.547  39.441   5.758  1.00  0.00     0.274 HD
ATOM     10  H12 UNL     1      67.016  39.197   7.198  1.00  0.00     0.274 HD
ATOM     11  H11 UNL     1      66.023  38.749   5.916  1.00  0.00     0.274 HD
ENDBRANCH   7   8
ENDBRANCH   6   7
ENDBRANCH   5   6
ENDBRANCH   4   5
ENDBRANCH   1   4
BRANCH   1  12
HETATM   12  C5  UNL     1      64.956  44.659  10.939  1.00  0.00     0.233 C 
BRANCH  12  13
HETATM   13  C6  UNL     1      66.394  45.109  10.685  1.00  0.00     0.055 C 
BRANCH  13  14
HETATM   14  C7  UNL     1      66.422  46.363   9.836  1.00  0.00     0.231 C 
BRANCH  14  15
HETATM   15  N3  UNL     1      67.419  46.156   8.801  1.00  0.00    -0.079 N 
ATOM     16  H33 UNL     1      68.214  46.791   8.878  1.00  0.00     0.274 HD
ATOM     17  H32 UNL     1      67.937  45.284   8.913  1.00  0.00     0.274 HD
ATOM     18  H31 UNL     1      66.939  46.223   7.904  1.00  0.00     0.274 HD
ENDBRANCH  14  15
ENDBRANCH  13  14
ENDBRANCH  12  13
ENDBRANCH   1  12
TORSDOF 9
ENDMDL
