MODEL 5
REMARK VINA RESULT: -5.708333025      1.088      6.050
REMARK  9 active torsions:
REMARK  status: ('A' for Active; 'I' for Inactive)
REMARK    1  A    between atoms: N1_1  and  C1_5 
REMARK    2  A    between atoms: C1_5  and  C2_6 
REMARK    3  A    between atoms: C2_6  and  C3_7 
REMARK    4  A    between atoms: C3_7  and  C4_8 
REMARK    5  A    between atoms: C4_8  and  N2_9 
REMARK    6  A    between atoms: N2_9  and  C5_12 
REMARK    7  A    between atoms: C5_12  and  C6_13 
REMARK    8  A    between atoms: C6_13  and  C7_14 
REMARK    9  A    between atoms: C7_14  and  N3_15 
ROOT
HETATM    1  N2  UNL     1      65.125  42.016   8.359  1.00  0.00    -0.075 N 
ATOM      2  H21 UNL     1      64.563  42.149   7.518  1.00  0.00     0.277 HD
ATOM      3  H22 UNL     1      64.656  41.189   8.730  1.00  0.00     0.277 HD
ENDROOT
BRANCH   1   4
HETATM    4  C4  UNL     1      65.012  43.154   9.267  1.00  0.00     0.232 C 
BRANCH   4   5
HETATM    5  C3  UNL     1      66.425  43.608   9.554  1.00  0.00     0.029 C 
BRANCH   5   6
HETATM    6  C2  UNL     1      66.551  45.096   9.732  1.00  0.00     0.029 C 
BRANCH   6   7
HETATM    7  C1  UNL     1      65.747  45.598  10.900  1.00  0.00     0.229 C 
BRANCH   7   8
HETATM    8  N1  UNL     1      66.202  46.878  11.376  1.00  0.00    -0.079 N 
ATOM      9  H13 UNL     1      65.598  47.629  11.044  1.00  0.00     0.274 HD
ATOM     10  H12 UNL     1      66.045  46.973  12.380  1.00  0.00     0.274 HD
ATOM     11  H11 UNL     1      67.177  47.060  11.139  1.00  0.00     0.274 HD
ENDBRANCH   7   8
ENDBRANCH   6   7
ENDBRANCH   5   6
ENDBRANCH   4   5
ENDBRANCH   1   4
BRANCH   1  12
HETATM   12  C5  UNL     1      66.515  41.744   8.036  1.00  0.00     0.233 C 
BRANCH  12  13
HETATM   13  C6  UNL     1      66.535  40.392   7.323  1.00  0.00     0.055 C 
BRANCH  13  14
HETATM   14  C7  UNL     1      66.548  40.578   5.820  1.00  0.00     0.231 C 
BRANCH  14  15
HETATM   15  N3  UNL     1      65.579  39.650   5.266  1.00  0.00    -0.079 N 
ATOM     16  H33 UNL     1      64.649  39.753   5.673  1.00  0.00     0.274 HD
ATOM     17  H32 UNL     1      65.326  39.866   4.302  1.00  0.00     0.274 HD
ATOM     18  H31 UNL     1      65.964  38.712   5.379  1.00  0.00     0.274 HD
ENDBRANCH  14  15
ENDBRANCH  13  14
ENDBRANCH  12  13
ENDBRANCH   1  12
TORSDOF 9
ENDMDL
