MODEL 13
REMARK VINA RESULT: -8.454921499      1.384      1.638
REMARK  9 active torsions:
REMARK  status: ('A' for Active; 'I' for Inactive)
REMARK    1  A    between atoms: C1_2  and  C2_6 
REMARK    2  A    between atoms: C5_9  and  C6_10 
REMARK    3  A    between atoms: C6_10  and  C7_11 
REMARK    4  A    between atoms: C7_11  and  N3_12 
REMARK    5  A    between atoms: C7_11  and  C20_32 
REMARK       I    between atoms: N3_12  and  C8_14 
REMARK    6  A    between atoms: C8_14  and  C9_16 
REMARK    7  A    between atoms: C9_16  and  N4_17 
REMARK    8  A    between atoms: N4_17  and  S1_19 
REMARK    9  A    between atoms: S1_19  and  C10_22 
REMARK       I    between atoms: C20_32  and  N5_34 
ROOT
HETATM    1  C7  UNL     1      -2.230   4.073  22.196  1.00  0.00     0.181 C 
ENDROOT
BRANCH   1   2
HETATM    2  C6  UNL     1      -2.268   4.223  20.673  1.00  0.00     0.073 C 
BRANCH   2   3
HETATM    3  C5  UNL     1      -2.380   5.693  20.360  1.00  0.00    -0.056 A 
HETATM    4  C4  UNL     1      -3.577   6.332  20.220  1.00  0.00     0.008 A 
HETATM    5  C3  UNL     1      -3.619   7.685  19.931  1.00  0.00     0.015 A 
HETATM    6  C2  UNL     1      -2.439   8.367  19.790  1.00  0.00     0.004 A 
HETATM    7  C27 UNL     1      -1.207   7.733  19.929  1.00  0.00     0.015 A 
HETATM    8  C26 UNL     1      -1.211   6.389  20.216  1.00  0.00     0.008 A 
BRANCH   6   9
HETATM    9  C1  UNL     1      -2.419   9.789  19.486  1.00  0.00     0.120 C 
HETATM   10  N1  UNL     1      -1.198  10.509  19.676  1.00  0.00    -0.082 NA
HETATM   11  N2  UNL     1      -3.469  10.370  19.063  1.00  0.00    -0.387 N 
ATOM     12  H22 UNL     1      -3.455  11.367  18.849  1.00  0.00     0.157 HD
ATOM     13  H21 UNL     1      -4.340   9.857  18.928  1.00  0.00     0.157 HD
ENDBRANCH   6   9
ENDBRANCH   2   3
ENDBRANCH   1   2
BRANCH   1  14
HETATM   14  N3  UNL     1      -3.215   3.052  22.558  1.00  0.00    -0.346 N 
HETATM   15  C8  UNL     1      -4.493   3.440  23.034  1.00  0.00     0.236 C 
HETATM   16  O1  UNL     1      -4.733   4.677  23.129  1.00  0.00    -0.272 OA
ATOM     17  H3  UNL     1      -2.982   2.064  22.468  1.00  0.00     0.163 HD
BRANCH  15  18
HETATM   18  C9  UNL     1      -5.538   2.434  23.419  1.00  0.00     0.235 C 
BRANCH  18  19
HETATM   19  N4  UNL     1      -5.231   1.907  24.738  1.00  0.00    -0.307 N 
ATOM     20  H4  UNL     1      -4.667   1.074  24.907  1.00  0.00     0.172 HD
BRANCH  19  21
HETATM   21  S1  UNL     1      -5.939   2.869  25.978  1.00  0.00     0.259 S 
HETATM   22  O2  UNL     1      -7.091   3.654  25.443  1.00  0.00    -0.201 OA
HETATM   23  O3  UNL     1      -6.519   1.905  27.002  1.00  0.00    -0.201 OA
BRANCH  21  24
HETATM   24  C10 UNL     1      -4.762   3.897  26.750  1.00  0.00     0.080 A 
HETATM   25  C11 UNL     1      -4.596   5.206  26.313  1.00  0.00     0.026 A 
HETATM   26  C12 UNL     1      -3.664   6.016  26.927  1.00  0.00     0.014 A 
HETATM   27  C13 UNL     1      -2.880   5.573  27.970  1.00  0.00    -0.026 A 
HETATM   28  C14 UNL     1      -1.944   6.400  28.583  1.00  0.00     0.012 A 
HETATM   29  C18 UNL     1      -3.051   4.274  28.398  1.00  0.00    -0.025 A 
HETATM   30  C15 UNL     1      -1.159   5.958  29.627  1.00  0.00     0.001 A 
HETATM   31  C16 UNL     1      -1.330   4.658  30.054  1.00  0.00     0.001 A 
HETATM   32  C17 UNL     1      -2.261   3.849  29.440  1.00  0.00     0.012 A 
HETATM   33  C19 UNL     1      -3.989   3.451  27.784  1.00  0.00     0.037 A 
ENDBRANCH  21  24
ENDBRANCH  19  21
ENDBRANCH  18  19
ENDBRANCH  15  18
ENDBRANCH   1  14
BRANCH   1  34
HETATM   34  C20 UNL     1      -0.873   3.688  22.615  1.00  0.00     0.242 C 
HETATM   35  O4  UNL     1      -0.057   3.417  21.670  1.00  0.00    -0.271 OA
HETATM   36  N5  UNL     1      -0.397   3.591  23.927  1.00  0.00    -0.350 N 
HETATM   37  C21 UNL     1      -1.161   3.839  25.134  1.00  0.00     0.126 C 
HETATM   38  C25 UNL     1       0.999   3.206  24.167  1.00  0.00     0.126 C 
HETATM   39  C22 UNL     1      -0.643   3.011  26.295  1.00  0.00     0.020 C 
HETATM   40  C23 UNL     1      -0.069   1.690  25.852  1.00  0.00     0.003 C 
HETATM   41  C24 UNL     1       1.027   1.849  24.831  1.00  0.00     0.020 C 
ENDBRANCH   1  34
TORSDOF 9
ENDMDL
