MODEL 1
REMARK VINA RESULT: -9.086028072      0.000      0.000
REMARK  9 active torsions:
REMARK  status: ('A' for Active; 'I' for Inactive)
REMARK    1  A    between atoms: C1_2  and  C2_6 
REMARK    2  A    between atoms: C5_9  and  C6_10 
REMARK    3  A    between atoms: C6_10  and  C7_11 
REMARK    4  A    between atoms: C7_11  and  N3_12 
REMARK    5  A    between atoms: C7_11  and  C20_32 
REMARK       I    between atoms: N3_12  and  C8_14 
REMARK    6  A    between atoms: C8_14  and  C9_16 
REMARK    7  A    between atoms: C9_16  and  N4_17 
REMARK    8  A    between atoms: N4_17  and  S1_19 
REMARK    9  A    between atoms: S1_19  and  C10_22 
REMARK       I    between atoms: C20_32  and  N5_34 
ROOT
HETATM    1  C7  UNL     1      -2.264   3.769  21.690  1.00  0.00     0.181 C 
ENDROOT
BRANCH   1   2
HETATM    2  C6  UNL     1      -2.351   4.047  20.187  1.00  0.00     0.073 C 
BRANCH   2   3
HETATM    3  C5  UNL     1      -2.423   5.540  20.002  1.00  0.00    -0.056 A 
HETATM    4  C4  UNL     1      -3.600   6.210  19.835  1.00  0.00     0.008 A 
HETATM    5  C3  UNL     1      -3.606   7.585  19.668  1.00  0.00     0.015 A 
HETATM    6  C2  UNL     1      -2.411   8.256  19.674  1.00  0.00     0.004 A 
HETATM    7  C27 UNL     1      -1.200   7.590  19.842  1.00  0.00     0.015 A 
HETATM    8  C26 UNL     1      -1.240   6.226  20.005  1.00  0.00     0.008 A 
BRANCH   6   9
HETATM    9  C1  UNL     1      -2.353   9.699  19.502  1.00  0.00     0.120 C 
HETATM   10  N1  UNL     1      -1.092  10.354  19.667  1.00  0.00    -0.082 NA
HETATM   11  N2  UNL     1      -3.405  10.354  19.214  1.00  0.00    -0.387 N 
ATOM     12  H22 UNL     1      -3.365  11.365  19.093  1.00  0.00     0.157 HD
ATOM     13  H21 UNL     1      -4.304   9.887  19.097  1.00  0.00     0.157 HD
ENDBRANCH   6   9
ENDBRANCH   2   3
ENDBRANCH   1   2
BRANCH   1  14
HETATM   14  N3  UNL     1      -3.621   3.485  22.160  1.00  0.00    -0.346 N 
HETATM   15  C8  UNL     1      -4.295   4.424  22.983  1.00  0.00     0.236 C 
HETATM   16  O1  UNL     1      -3.682   5.488  23.282  1.00  0.00    -0.272 OA
ATOM     17  H3  UNL     1      -4.081   2.615  21.897  1.00  0.00     0.163 HD
BRANCH  15  18
HETATM   18  C9  UNL     1      -5.686   4.183  23.491  1.00  0.00     0.235 C 
BRANCH  18  19
HETATM   19  N4  UNL     1      -5.953   5.090  24.595  1.00  0.00    -0.307 N 
ATOM     20  H4  UNL     1      -6.269   6.054  24.484  1.00  0.00     0.172 HD
BRANCH  19  21
HETATM   21  S1  UNL     1      -5.670   4.329  26.113  1.00  0.00     0.259 S 
HETATM   22  O2  UNL     1      -6.888   4.396  26.973  1.00  0.00    -0.201 OA
HETATM   23  O3  UNL     1      -5.432   2.853  25.827  1.00  0.00    -0.201 OA
BRANCH  21  24
HETATM   24  C10 UNL     1      -4.276   4.996  26.919  1.00  0.00     0.080 A 
HETATM   25  C11 UNL     1      -3.000   4.674  26.472  1.00  0.00     0.026 A 
HETATM   26  C12 UNL     1      -1.899   5.204  27.113  1.00  0.00     0.014 A 
HETATM   27  C13 UNL     1      -2.016   6.051  28.192  1.00  0.00    -0.026 A 
HETATM   28  C14 UNL     1      -0.898   6.581  28.830  1.00  0.00     0.012 A 
HETATM   29  C18 UNL     1      -3.285   6.366  28.630  1.00  0.00    -0.025 A 
HETATM   30  C15 UNL     1      -1.014   7.430  29.911  1.00  0.00     0.001 A 
HETATM   31  C16 UNL     1      -2.283   7.744  30.348  1.00  0.00     0.001 A 
HETATM   32  C17 UNL     1      -3.382   7.214  29.708  1.00  0.00     0.012 A 
HETATM   33  C19 UNL     1      -4.399   5.836  27.989  1.00  0.00     0.037 A 
ENDBRANCH  21  24
ENDBRANCH  19  21
ENDBRANCH  18  19
ENDBRANCH  15  18
ENDBRANCH   1  14
BRANCH   1  34
HETATM   34  C20 UNL     1      -1.362   2.629  21.924  1.00  0.00     0.242 C 
HETATM   35  O4  UNL     1      -1.627   1.568  21.265  1.00  0.00    -0.271 OA
HETATM   36  N5  UNL     1      -0.260   2.596  22.785  1.00  0.00    -0.350 N 
HETATM   37  C21 UNL     1       0.198   3.683  23.630  1.00  0.00     0.126 C 
HETATM   38  C25 UNL     1       0.547   1.374  22.886  1.00  0.00     0.126 C 
HETATM   39  C22 UNL     1       0.887   3.160  24.876  1.00  0.00     0.020 C 
HETATM   40  C23 UNL     1       0.324   1.840  25.338  1.00  0.00     0.003 C 
HETATM   41  C24 UNL     1       0.373   0.783  24.265  1.00  0.00     0.020 C 
ENDBRANCH   1  34
TORSDOF 9
ENDMDL
