MODEL 4
REMARK VINA RESULT: -8.941424103      0.567      1.259
REMARK  9 active torsions:
REMARK  status: ('A' for Active; 'I' for Inactive)
REMARK    1  A    between atoms: C1_2  and  C2_6 
REMARK    2  A    between atoms: C5_9  and  C6_10 
REMARK    3  A    between atoms: C6_10  and  C7_11 
REMARK    4  A    between atoms: C7_11  and  N3_12 
REMARK    5  A    between atoms: C7_11  and  C20_32 
REMARK       I    between atoms: N3_12  and  C8_14 
REMARK    6  A    between atoms: C8_14  and  C9_16 
REMARK    7  A    between atoms: C9_16  and  N4_17 
REMARK    8  A    between atoms: N4_17  and  S1_19 
REMARK    9  A    between atoms: S1_19  and  C10_22 
REMARK       I    between atoms: C20_32  and  N5_34 
ROOT
HETATM    1  C7  UNL     1      -2.217   3.816  21.678  1.00  0.00     0.181 C 
ENDROOT
BRANCH   1   2
HETATM    2  C6  UNL     1      -2.380   4.094  20.181  1.00  0.00     0.073 C 
BRANCH   2   3
HETATM    3  C5  UNL     1      -2.442   5.588  19.997  1.00  0.00    -0.056 A 
HETATM    4  C4  UNL     1      -3.616   6.271  19.872  1.00  0.00     0.008 A 
HETATM    5  C3  UNL     1      -3.613   7.645  19.704  1.00  0.00     0.015 A 
HETATM    6  C2  UNL     1      -2.411   8.303  19.666  1.00  0.00     0.004 A 
HETATM    7  C27 UNL     1      -1.202   7.623  19.792  1.00  0.00     0.015 A 
HETATM    8  C26 UNL     1      -1.251   6.260  19.957  1.00  0.00     0.008 A 
BRANCH   6   9
HETATM    9  C1  UNL     1      -2.343   9.745  19.491  1.00  0.00     0.120 C 
HETATM   10  N1  UNL     1      -1.089  10.399  19.707  1.00  0.00    -0.082 NA
HETATM   11  N2  UNL     1      -3.381  10.400  19.156  1.00  0.00    -0.387 N 
ATOM     12  H22 UNL     1      -3.333  11.411  19.033  1.00  0.00     0.157 HD
ATOM     13  H21 UNL     1      -4.275   9.934  19.002  1.00  0.00     0.157 HD
ENDBRANCH   6   9
ENDBRANCH   2   3
ENDBRANCH   1   2
BRANCH   1  14
HETATM   14  N3  UNL     1      -3.555   3.584  22.226  1.00  0.00    -0.346 N 
HETATM   15  C8  UNL     1      -3.943   4.216  23.435  1.00  0.00     0.236 C 
HETATM   16  O1  UNL     1      -3.100   4.969  24.000  1.00  0.00    -0.272 OA
ATOM     17  H3  UNL     1      -4.206   2.969  21.740  1.00  0.00     0.163 HD
BRANCH  15  18
HETATM   18  C9  UNL     1      -5.301   4.013  24.039  1.00  0.00     0.235 C 
BRANCH  18  19
HETATM   19  N4  UNL     1      -5.568   5.085  24.983  1.00  0.00    -0.307 N 
ATOM     20  H4  UNL     1      -5.663   6.068  24.726  1.00  0.00     0.172 HD
BRANCH  19  21
HETATM   21  S1  UNL     1      -5.703   4.485  26.591  1.00  0.00     0.259 S 
HETATM   22  O2  UNL     1      -7.136   4.380  26.997  1.00  0.00    -0.201 OA
HETATM   23  O3  UNL     1      -5.160   3.063  26.575  1.00  0.00    -0.201 OA
BRANCH  21  24
HETATM   24  C10 UNL     1      -4.783   5.444  27.718  1.00  0.00     0.080 A 
HETATM   25  C11 UNL     1      -5.437   6.149  28.721  1.00  0.00     0.026 A 
HETATM   26  C12 UNL     1      -4.705   6.907  29.611  1.00  0.00     0.014 A 
HETATM   27  C13 UNL     1      -3.332   6.993  29.545  1.00  0.00    -0.026 A 
HETATM   28  C14 UNL     1      -2.603   7.760  30.449  1.00  0.00     0.012 A 
HETATM   29  C18 UNL     1      -2.689   6.290  28.548  1.00  0.00    -0.025 A 
HETATM   30  C15 UNL     1      -1.228   7.847  30.384  1.00  0.00     0.001 A 
HETATM   31  C16 UNL     1      -0.586   7.144  29.386  1.00  0.00     0.001 A 
HETATM   32  C17 UNL     1      -1.319   6.387  28.497  1.00  0.00     0.012 A 
HETATM   33  C19 UNL     1      -3.421   5.524  27.647  1.00  0.00     0.037 A 
ENDBRANCH  21  24
ENDBRANCH  19  21
ENDBRANCH  18  19
ENDBRANCH  15  18
ENDBRANCH   1  14
BRANCH   1  34
HETATM   34  C20 UNL     1      -1.346   2.644  21.865  1.00  0.00     0.242 C 
HETATM   35  O4  UNL     1      -1.636   1.619  21.161  1.00  0.00    -0.271 OA
HETATM   36  N5  UNL     1      -0.247   2.547  22.727  1.00  0.00    -0.350 N 
HETATM   37  C21 UNL     1       0.236   3.584  23.618  1.00  0.00     0.126 C 
HETATM   38  C25 UNL     1       0.527   1.301  22.777  1.00  0.00     0.126 C 
HETATM   39  C22 UNL     1       0.907   2.991  24.842  1.00  0.00     0.020 C 
HETATM   40  C23 UNL     1       0.308   1.668  25.246  1.00  0.00     0.003 C 
HETATM   41  C24 UNL     1       0.333   0.657  24.130  1.00  0.00     0.020 C 
ENDBRANCH   1  34
TORSDOF 9
ENDMDL
