MODEL 5
REMARK VINA RESULT: -8.907456544      0.756      1.608
REMARK  9 active torsions:
REMARK  status: ('A' for Active; 'I' for Inactive)
REMARK    1  A    between atoms: C1_2  and  C2_6 
REMARK    2  A    between atoms: C5_9  and  C6_10 
REMARK    3  A    between atoms: C6_10  and  C7_11 
REMARK    4  A    between atoms: C7_11  and  N3_12 
REMARK    5  A    between atoms: C7_11  and  C20_32 
REMARK       I    between atoms: N3_12  and  C8_14 
REMARK    6  A    between atoms: C8_14  and  C9_16 
REMARK    7  A    between atoms: C9_16  and  N4_17 
REMARK    8  A    between atoms: N4_17  and  S1_19 
REMARK    9  A    between atoms: S1_19  and  C10_22 
REMARK       I    between atoms: C20_32  and  N5_34 
ROOT
HETATM    1  C7  UNL     1      -2.254   3.650  21.724  1.00  0.00     0.181 C 
ENDROOT
BRANCH   1   2
HETATM    2  C6  UNL     1      -2.348   3.952  20.226  1.00  0.00     0.073 C 
BRANCH   2   3
HETATM    3  C5  UNL     1      -2.390   5.449  20.063  1.00  0.00    -0.056 A 
HETATM    4  C4  UNL     1      -1.267   6.221  20.009  1.00  0.00     0.008 A 
HETATM    5  C3  UNL     1      -1.366   7.594  19.859  1.00  0.00     0.015 A 
HETATM    6  C2  UNL     1      -2.611   8.159  19.765  1.00  0.00     0.004 A 
HETATM    7  C27 UNL     1      -3.769   7.388  19.817  1.00  0.00     0.015 A 
HETATM    8  C26 UNL     1      -3.625   6.031  19.967  1.00  0.00     0.008 A 
BRANCH   6   9
HETATM    9  C1  UNL     1      -2.779   9.595  19.606  1.00  0.00     0.120 C 
HETATM   10  N1  UNL     1      -1.614  10.424  19.628  1.00  0.00    -0.082 NA
HETATM   11  N2  UNL     1      -3.941  10.092  19.455  1.00  0.00    -0.387 N 
ATOM     12  H22 UNL     1      -4.059  11.098  19.343  1.00  0.00     0.157 HD
ATOM     13  H21 UNL     1      -4.772   9.501  19.440  1.00  0.00     0.157 HD
ENDBRANCH   6   9
ENDBRANCH   2   3
ENDBRANCH   1   2
BRANCH   1  14
HETATM   14  N3  UNL     1      -3.609   3.358  22.195  1.00  0.00    -0.346 N 
HETATM   15  C8  UNL     1      -4.168   4.117  23.254  1.00  0.00     0.236 C 
HETATM   16  O1  UNL     1      -3.458   5.033  23.758  1.00  0.00    -0.272 OA
ATOM     17  H3  UNL     1      -4.150   2.610  21.762  1.00  0.00     0.163 HD
BRANCH  15  18
HETATM   18  C9  UNL     1      -5.552   3.860  23.774  1.00  0.00     0.235 C 
BRANCH  18  19
HETATM   19  N4  UNL     1      -6.128   5.111  24.237  1.00  0.00    -0.307 N 
ATOM     20  H4  UNL     1      -6.165   5.967  23.683  1.00  0.00     0.172 HD
BRANCH  19  21
HETATM   21  S1  UNL     1      -6.738   4.965  25.841  1.00  0.00     0.259 S 
HETATM   22  O2  UNL     1      -8.111   5.544  25.938  1.00  0.00    -0.201 OA
HETATM   23  O3  UNL     1      -6.884   3.475  26.120  1.00  0.00    -0.201 OA
BRANCH  21  24
HETATM   24  C10 UNL     1      -5.657   5.671  27.011  1.00  0.00     0.080 A 
HETATM   25  C11 UNL     1      -6.171   6.423  28.060  1.00  0.00     0.026 A 
HETATM   26  C12 UNL     1      -5.311   6.980  28.985  1.00  0.00     0.014 A 
HETATM   27  C13 UNL     1      -3.946   6.818  28.907  1.00  0.00    -0.026 A 
HETATM   28  C14 UNL     1      -3.089   7.383  29.846  1.00  0.00     0.012 A 
HETATM   29  C18 UNL     1      -3.444   6.070  27.864  1.00  0.00    -0.025 A 
HETATM   30  C15 UNL     1      -1.721   7.222  29.770  1.00  0.00     0.001 A 
HETATM   31  C16 UNL     1      -1.219   6.475  28.726  1.00  0.00     0.001 A 
HETATM   32  C17 UNL     1      -2.079   5.919  27.802  1.00  0.00     0.012 A 
HETATM   33  C19 UNL     1      -4.304   5.506  26.928  1.00  0.00     0.037 A 
ENDBRANCH  21  24
ENDBRANCH  19  21
ENDBRANCH  18  19
ENDBRANCH  15  18
ENDBRANCH   1  14
BRANCH   1  34
HETATM   34  C20 UNL     1      -1.351   2.507  21.936  1.00  0.00     0.242 C 
HETATM   35  O4  UNL     1      -1.651   1.439  21.304  1.00  0.00    -0.271 OA
HETATM   36  N5  UNL     1      -0.212   2.479  22.749  1.00  0.00    -0.350 N 
HETATM   37  C21 UNL     1       0.289   3.574  23.557  1.00  0.00     0.126 C 
HETATM   38  C25 UNL     1       0.590   1.253  22.833  1.00  0.00     0.126 C 
HETATM   39  C22 UNL     1       1.027   3.065  24.780  1.00  0.00     0.020 C 
HETATM   40  C23 UNL     1       0.475   1.756  25.285  1.00  0.00     0.003 C 
HETATM   41  C24 UNL     1       0.471   0.683  24.228  1.00  0.00     0.020 C 
ENDBRANCH   1  34
TORSDOF 9
ENDMDL
