MODEL 7
REMARK VINA RESULT: -8.723828874      0.973      1.211
REMARK  9 active torsions:
REMARK  status: ('A' for Active; 'I' for Inactive)
REMARK    1  A    between atoms: C1_2  and  C2_6 
REMARK    2  A    between atoms: C5_9  and  C6_10 
REMARK    3  A    between atoms: C6_10  and  C7_11 
REMARK    4  A    between atoms: C7_11  and  N3_12 
REMARK    5  A    between atoms: C7_11  and  C20_32 
REMARK       I    between atoms: N3_12  and  C8_14 
REMARK    6  A    between atoms: C8_14  and  C9_16 
REMARK    7  A    between atoms: C9_16  and  N4_17 
REMARK    8  A    between atoms: N4_17  and  S1_19 
REMARK    9  A    between atoms: S1_19  and  C10_22 
REMARK       I    between atoms: C20_32  and  N5_34 
ROOT
HETATM    1  C7  UNL     1      -2.018   3.721  21.897  1.00  0.00     0.181 C 
ENDROOT
BRANCH   1   2
HETATM    2  C6  UNL     1      -2.460   3.928  20.446  1.00  0.00     0.073 C 
BRANCH   2   3
HETATM    3  C5  UNL     1      -2.524   5.412  20.194  1.00  0.00    -0.056 A 
HETATM    4  C4  UNL     1      -3.698   6.082  20.009  1.00  0.00     0.008 A 
HETATM    5  C3  UNL     1      -3.696   7.448  19.780  1.00  0.00     0.015 A 
HETATM    6  C2  UNL     1      -2.497   8.110  19.744  1.00  0.00     0.004 A 
HETATM    7  C27 UNL     1      -1.288   7.443  19.930  1.00  0.00     0.015 A 
HETATM    8  C26 UNL     1      -1.336   6.089  20.154  1.00  0.00     0.008 A 
BRANCH   6   9
HETATM    9  C1  UNL     1      -2.431   9.543  19.507  1.00  0.00     0.120 C 
HETATM   10  N1  UNL     1      -1.169  10.200  19.656  1.00  0.00    -0.082 NA
HETATM   11  N2  UNL     1      -3.477  10.187  19.177  1.00  0.00    -0.387 N 
ATOM     12  H22 UNL     1      -3.431  11.192  19.010  1.00  0.00     0.157 HD
ATOM     13  H21 UNL     1      -4.377   9.719  19.071  1.00  0.00     0.157 HD
ENDBRANCH   6   9
ENDBRANCH   2   3
ENDBRANCH   1   2
BRANCH   1  14
HETATM   14  N3  UNL     1      -3.229   3.534  22.699  1.00  0.00    -0.346 N 
HETATM   15  C8  UNL     1      -3.612   4.523  23.640  1.00  0.00     0.236 C 
HETATM   16  O1  UNL     1      -2.877   5.546  23.749  1.00  0.00    -0.272 OA
ATOM     17  H3  UNL     1      -3.795   2.695  22.581  1.00  0.00     0.163 HD
BRANCH  15  18
HETATM   18  C9  UNL     1      -4.843   4.382  24.486  1.00  0.00     0.235 C 
BRANCH  18  19
HETATM   19  N4  UNL     1      -4.782   5.337  25.579  1.00  0.00    -0.307 N 
ATOM     20  H4  UNL     1      -4.833   6.350  25.462  1.00  0.00     0.172 HD
BRANCH  19  21
HETATM   21  S1  UNL     1      -4.614   4.543  27.098  1.00  0.00     0.259 S 
HETATM   22  O2  UNL     1      -5.952   4.268  27.701  1.00  0.00    -0.201 OA
HETATM   23  O3  UNL     1      -3.987   3.185  26.814  1.00  0.00    -0.201 OA
BRANCH  21  24
HETATM   24  C10 UNL     1      -3.589   5.439  28.185  1.00  0.00     0.080 A 
HETATM   25  C11 UNL     1      -2.398   5.984  27.721  1.00  0.00     0.026 A 
HETATM   26  C12 UNL     1      -1.590   6.693  28.585  1.00  0.00     0.014 A 
HETATM   27  C13 UNL     1      -1.921   6.886  29.908  1.00  0.00    -0.026 A 
HETATM   28  C14 UNL     1      -1.099   7.604  30.771  1.00  0.00     0.012 A 
HETATM   29  C18 UNL     1      -3.104   6.342  30.362  1.00  0.00    -0.025 A 
HETATM   30  C15 UNL     1      -1.429   7.797  32.096  1.00  0.00     0.001 A 
HETATM   31  C16 UNL     1      -2.612   7.253  32.549  1.00  0.00     0.001 A 
HETATM   32  C17 UNL     1      -3.419   6.545  31.685  1.00  0.00     0.012 A 
HETATM   33  C19 UNL     1      -3.924   5.626  29.496  1.00  0.00     0.037 A 
ENDBRANCH  21  24
ENDBRANCH  19  21
ENDBRANCH  18  19
ENDBRANCH  15  18
ENDBRANCH   1  14
BRANCH   1  34
HETATM   34  C20 UNL     1      -1.132   2.548  21.974  1.00  0.00     0.242 C 
HETATM   35  O4  UNL     1      -1.415   1.586  21.183  1.00  0.00    -0.271 OA
HETATM   36  N5  UNL     1      -0.027   2.387  22.818  1.00  0.00    -0.350 N 
HETATM   37  C21 UNL     1       0.449   3.347  23.795  1.00  0.00     0.126 C 
HETATM   38  C25 UNL     1       0.762   1.151  22.753  1.00  0.00     0.126 C 
HETATM   39  C22 UNL     1       1.135   2.656  24.958  1.00  0.00     0.020 C 
HETATM   40  C23 UNL     1       0.554   1.295  25.247  1.00  0.00     0.003 C 
HETATM   41  C24 UNL     1       0.584   0.387  24.045  1.00  0.00     0.020 C 
ENDBRANCH   1  34
TORSDOF 9
ENDMDL
