MODEL 15
REMARK VINA RESULT: -8.411219346      4.291      8.265
REMARK  9 active torsions:
REMARK  status: ('A' for Active; 'I' for Inactive)
REMARK    1  A    between atoms: C1_2  and  C2_6 
REMARK    2  A    between atoms: C5_9  and  C6_10 
REMARK    3  A    between atoms: C6_10  and  C7_11 
REMARK    4  A    between atoms: C7_11  and  N3_12 
REMARK    5  A    between atoms: C7_11  and  C20_32 
REMARK       I    between atoms: N3_12  and  C8_14 
REMARK    6  A    between atoms: C8_14  and  C9_16 
REMARK    7  A    between atoms: C9_16  and  N4_17 
REMARK    8  A    between atoms: N4_17  and  S1_19 
REMARK    9  A    between atoms: S1_19  and  C10_22 
REMARK       I    between atoms: C20_32  and  N5_34 
ROOT
HETATM    1  C7  UNL     1      -2.086   3.575  21.348  1.00  0.00     0.181 C 
ENDROOT
BRANCH   1   2
HETATM    2  C6  UNL     1      -1.790   4.063  19.927  1.00  0.00     0.073 C 
BRANCH   2   3
HETATM    3  C5  UNL     1      -2.152   5.524  19.860  1.00  0.00    -0.056 A 
HETATM    4  C4  UNL     1      -3.426   5.980  20.030  1.00  0.00     0.008 A 
HETATM    5  C3  UNL     1      -3.700   7.335  19.956  1.00  0.00     0.015 A 
HETATM    6  C2  UNL     1      -2.670   8.205  19.711  1.00  0.00     0.004 A 
HETATM    7  C27 UNL     1      -1.363   7.759  19.535  1.00  0.00     0.015 A 
HETATM    8  C26 UNL     1      -1.135   6.406  19.616  1.00  0.00     0.008 A 
BRANCH   6   9
HETATM    9  C1  UNL     1      -2.896   9.639  19.622  1.00  0.00     0.120 C 
HETATM   10  N1  UNL     1      -1.760  10.509  19.621  1.00  0.00    -0.082 NA
HETATM   11  N2  UNL     1      -4.080  10.099  19.549  1.00  0.00    -0.387 N 
ATOM     12  H22 UNL     1      -4.239  11.104  19.486  1.00  0.00     0.157 HD
ATOM     13  H21 UNL     1      -4.890   9.479  19.550  1.00  0.00     0.157 HD
ENDBRANCH   6   9
ENDBRANCH   2   3
ENDBRANCH   1   2
BRANCH   1  14
HETATM   14  N3  UNL     1      -2.690   2.246  21.236  1.00  0.00    -0.346 N 
HETATM   15  C8  UNL     1      -4.087   2.087  21.424  1.00  0.00     0.236 C 
HETATM   16  O1  UNL     1      -4.765   3.120  21.686  1.00  0.00    -0.272 OA
ATOM     17  H3  UNL     1      -2.108   1.437  21.023  1.00  0.00     0.163 HD
BRANCH  15  18
HETATM   18  C9  UNL     1      -4.756   0.748  21.319  1.00  0.00     0.235 C 
BRANCH  18  19
HETATM   19  N4  UNL     1      -4.532   0.205  19.990  1.00  0.00    -0.307 N 
ATOM     20  H4  UNL     1      -4.995   0.541  19.145  1.00  0.00     0.172 HD
BRANCH  19  21
HETATM   21  S1  UNL     1      -3.385  -1.079  20.024  1.00  0.00     0.259 S 
HETATM   22  O2  UNL     1      -2.539  -0.999  21.252  1.00  0.00    -0.201 OA
HETATM   23  O3  UNL     1      -4.178  -2.373  20.136  1.00  0.00    -0.201 OA
BRANCH  21  24
HETATM   24  C10 UNL     1      -2.415  -1.116  18.576  1.00  0.00     0.080 A 
HETATM   25  C11 UNL     1      -1.282  -0.318  18.483  1.00  0.00     0.026 A 
HETATM   26  C12 UNL     1      -0.517  -0.352  17.335  1.00  0.00     0.014 A 
HETATM   27  C13 UNL     1      -0.837  -1.156  16.263  1.00  0.00    -0.026 A 
HETATM   28  C14 UNL     1      -0.057  -1.182  15.111  1.00  0.00     0.012 A 
HETATM   29  C18 UNL     1      -1.963  -1.945  16.363  1.00  0.00    -0.025 A 
HETATM   30  C15 UNL     1      -0.376  -1.986  14.037  1.00  0.00     0.001 A 
HETATM   31  C16 UNL     1      -1.503  -2.775  14.138  1.00  0.00     0.001 A 
HETATM   32  C17 UNL     1      -2.266  -2.741  15.285  1.00  0.00     0.012 A 
HETATM   33  C19 UNL     1      -2.738  -1.917  17.517  1.00  0.00     0.037 A 
ENDBRANCH  21  24
ENDBRANCH  19  21
ENDBRANCH  18  19
ENDBRANCH  15  18
ENDBRANCH   1  14
BRANCH   1  34
HETATM   34  C20 UNL     1      -0.834   3.536  22.121  1.00  0.00     0.242 C 
HETATM   35  O4  UNL     1       0.206   3.173  21.475  1.00  0.00    -0.271 OA
HETATM   36  N5  UNL     1      -0.676   3.852  23.475  1.00  0.00    -0.350 N 
HETATM   37  C21 UNL     1      -1.726   4.267  24.385  1.00  0.00     0.126 C 
HETATM   38  C25 UNL     1       0.656   3.774  24.088  1.00  0.00     0.126 C 
HETATM   39  C22 UNL     1      -1.415   3.854  25.811  1.00  0.00     0.020 C 
HETATM   40  C23 UNL     1      -0.618   2.577  25.883  1.00  0.00     0.003 C 
HETATM   41  C24 UNL     1       0.666   2.651  25.099  1.00  0.00     0.020 C 
ENDBRANCH   1  34
TORSDOF 9
ENDMDL
