MODEL 12
REMARK VINA RESULT: -8.500733796      4.124      8.308
REMARK  9 active torsions:
REMARK  status: ('A' for Active; 'I' for Inactive)
REMARK    1  A    between atoms: C1_2  and  C2_6 
REMARK    2  A    between atoms: C5_9  and  C6_10 
REMARK    3  A    between atoms: C6_10  and  C7_11 
REMARK    4  A    between atoms: C7_11  and  N3_12 
REMARK    5  A    between atoms: C7_11  and  C20_32 
REMARK       I    between atoms: N3_12  and  C8_14 
REMARK    6  A    between atoms: C8_14  and  C9_16 
REMARK    7  A    between atoms: C9_16  and  N4_17 
REMARK    8  A    between atoms: N4_17  and  S1_19 
REMARK    9  A    between atoms: S1_19  and  C10_22 
REMARK       I    between atoms: C20_32  and  N5_34 
ROOT
HETATM    1  C7  UNL     1      -1.797   3.566  20.741  1.00  0.00     0.181 C 
ENDROOT
BRANCH   1   2
HETATM    2  C6  UNL     1      -1.208   4.408  19.605  1.00  0.00     0.073 C 
BRANCH   2   3
HETATM    3  C5  UNL     1      -1.878   5.757  19.641  1.00  0.00    -0.056 A 
HETATM    4  C4  UNL     1      -3.186   5.926  19.989  1.00  0.00     0.008 A 
HETATM    5  C3  UNL     1      -3.750   7.190  20.004  1.00  0.00     0.015 A 
HETATM    6  C2  UNL     1      -2.971   8.265  19.662  1.00  0.00     0.004 A 
HETATM    7  C27 UNL     1      -1.634   8.113  19.303  1.00  0.00     0.015 A 
HETATM    8  C26 UNL     1      -1.115   6.841  19.302  1.00  0.00     0.008 A 
BRANCH   6   9
HETATM    9  C1  UNL     1      -3.507   9.617  19.657  1.00  0.00     0.120 C 
HETATM   10  N1  UNL     1      -2.601  10.707  19.467  1.00  0.00    -0.082 NA
HETATM   11  N2  UNL     1      -4.753   9.813  19.821  1.00  0.00    -0.387 N 
ATOM     12  H22 UNL     1      -5.129  10.761  19.817  1.00  0.00     0.157 HD
ATOM     13  H21 UNL     1      -5.399   9.036  19.956  1.00  0.00     0.157 HD
ENDBRANCH   6   9
ENDBRANCH   2   3
ENDBRANCH   1   2
BRANCH   1  14
HETATM   14  N3  UNL     1      -1.915   2.193  20.248  1.00  0.00    -0.346 N 
HETATM   15  C8  UNL     1      -3.086   1.441  20.524  1.00  0.00     0.236 C 
HETATM   16  O1  UNL     1      -3.996   2.000  21.199  1.00  0.00    -0.272 OA
ATOM     17  H3  UNL     1      -1.158   1.778  19.707  1.00  0.00     0.163 HD
BRANCH  15  18
HETATM   18  C9  UNL     1      -3.258   0.031  20.043  1.00  0.00     0.235 C 
BRANCH  18  19
HETATM   19  N4  UNL     1      -1.980  -0.656  20.112  1.00  0.00    -0.307 N 
ATOM     20  H4  UNL     1      -1.527  -0.943  20.981  1.00  0.00     0.172 HD
BRANCH  19  21
HETATM   21  S1  UNL     1      -1.327  -0.925  18.542  1.00  0.00     0.259 S 
HETATM   22  O2  UNL     1      -2.343  -1.557  17.649  1.00  0.00    -0.201 OA
HETATM   23  O3  UNL     1      -1.033   0.446  17.949  1.00  0.00    -0.201 OA
BRANCH  21  24
HETATM   24  C10 UNL     1       0.144  -1.857  18.604  1.00  0.00     0.080 A 
HETATM   25  C11 UNL     1       0.180  -3.130  18.049  1.00  0.00     0.026 A 
HETATM   26  C12 UNL     1       1.347  -3.864  18.101  1.00  0.00     0.014 A 
HETATM   27  C13 UNL     1       2.494  -3.378  18.689  1.00  0.00    -0.026 A 
HETATM   28  C14 UNL     1       3.666  -4.127  18.734  1.00  0.00     0.012 A 
HETATM   29  C18 UNL     1       2.451  -2.114  19.237  1.00  0.00    -0.025 A 
HETATM   30  C15 UNL     1       4.815  -3.642  19.322  1.00  0.00     0.001 A 
HETATM   31  C16 UNL     1       4.771  -2.378  19.871  1.00  0.00     0.001 A 
HETATM   32  C17 UNL     1       3.605  -1.645  19.819  1.00  0.00     0.012 A 
HETATM   33  C19 UNL     1       1.279  -1.368  19.189  1.00  0.00     0.037 A 
ENDBRANCH  21  24
ENDBRANCH  19  21
ENDBRANCH  18  19
ENDBRANCH  15  18
ENDBRANCH   1  14
BRANCH   1  34
HETATM   34  C20 UNL     1      -0.913   3.645  21.915  1.00  0.00     0.242 C 
HETATM   35  O4  UNL     1       0.246   3.127  21.773  1.00  0.00    -0.271 OA
HETATM   36  N5  UNL     1      -1.215   4.222  23.154  1.00  0.00    -0.350 N 
HETATM   37  C21 UNL     1      -2.472   4.844  23.523  1.00  0.00     0.126 C 
HETATM   38  C25 UNL     1      -0.205   4.228  24.218  1.00  0.00     0.126 C 
HETATM   39  C22 UNL     1      -2.733   4.718  25.012  1.00  0.00     0.020 C 
HETATM   40  C23 UNL     1      -2.150   3.457  25.597  1.00  0.00     0.003 C 
HETATM   41  C24 UNL     1      -0.670   3.332  25.342  1.00  0.00     0.020 C 
ENDBRANCH   1  34
TORSDOF 9
ENDMDL
