MODEL 6
REMARK VINA RESULT: -8.750459688      5.092      9.507
REMARK  9 active torsions:
REMARK  status: ('A' for Active; 'I' for Inactive)
REMARK    1  A    between atoms: C1_2  and  C2_6 
REMARK    2  A    between atoms: C5_9  and  C6_10 
REMARK    3  A    between atoms: C6_10  and  C7_11 
REMARK    4  A    between atoms: C7_11  and  N3_12 
REMARK    5  A    between atoms: C7_11  and  C20_32 
REMARK       I    between atoms: N3_12  and  C8_14 
REMARK    6  A    between atoms: C8_14  and  C9_16 
REMARK    7  A    between atoms: C9_16  and  N4_17 
REMARK    8  A    between atoms: N4_17  and  S1_19 
REMARK    9  A    between atoms: S1_19  and  C10_22 
REMARK       I    between atoms: C20_32  and  N5_34 
ROOT
HETATM    1  C7  UNL     1      -1.210   3.853  21.196  1.00  0.00     0.181 C 
ENDROOT
BRANCH   1   2
HETATM    2  C6  UNL     1      -0.404   4.951  20.497  1.00  0.00     0.073 C 
BRANCH   2   3
HETATM    3  C5  UNL     1      -1.326   6.120  20.268  1.00  0.00    -0.056 A 
HETATM    4  C4  UNL     1      -2.680   6.035  20.410  1.00  0.00     0.008 A 
HETATM    5  C3  UNL     1      -3.479   7.143  20.185  1.00  0.00     0.015 A 
HETATM    6  C2  UNL     1      -2.885   8.323  19.820  1.00  0.00     0.004 A 
HETATM    7  C27 UNL     1      -1.505   8.430  19.671  1.00  0.00     0.015 A 
HETATM    8  C26 UNL     1      -0.750   7.306  19.904  1.00  0.00     0.008 A 
BRANCH   6   9
HETATM    9  C1  UNL     1      -3.672   9.520  19.570  1.00  0.00     0.120 C 
HETATM   10  N1  UNL     1      -2.984  10.763  19.398  1.00  0.00    -0.082 NA
HETATM   11  N2  UNL     1      -4.941   9.454  19.510  1.00  0.00    -0.387 N 
ATOM     12  H22 UNL     1      -5.492  10.293  19.335  1.00  0.00     0.157 HD
ATOM     13  H21 UNL     1      -5.431   8.568  19.634  1.00  0.00     0.157 HD
ENDBRANCH   6   9
ENDBRANCH   2   3
ENDBRANCH   1   2
BRANCH   1  14
HETATM   14  N3  UNL     1      -0.929   2.596  20.499  1.00  0.00    -0.346 N 
HETATM   15  C8  UNL     1      -1.980   1.678  20.245  1.00  0.00     0.236 C 
HETATM   16  O1  UNL     1      -3.139   1.990  20.639  1.00  0.00    -0.272 OA
ATOM     17  H3  UNL     1       0.021   2.381  20.198  1.00  0.00     0.163 HD
BRANCH  15  18
HETATM   18  C9  UNL     1      -1.746   0.377  19.535  1.00  0.00     0.235 C 
BRANCH  18  19
HETATM   19  N4  UNL     1      -0.398  -0.085  19.819  1.00  0.00    -0.307 N 
ATOM     20  H4  UNL     1      -0.101  -0.479  20.713  1.00  0.00     0.172 HD
BRANCH  19  21
HETATM   21  S1  UNL     1       0.634   0.116  18.456  1.00  0.00     0.259 S 
HETATM   22  O2  UNL     1       0.472   1.478  17.867  1.00  0.00    -0.201 OA
HETATM   23  O3  UNL     1       2.064   0.044  18.974  1.00  0.00    -0.201 OA
BRANCH  21  24
HETATM   24  C10 UNL     1       0.385  -1.134  17.267  1.00  0.00     0.080 A 
HETATM   25  C11 UNL     1       0.759  -2.442  17.550  1.00  0.00     0.026 A 
HETATM   26  C12 UNL     1       0.560  -3.428  16.606  1.00  0.00     0.014 A 
HETATM   27  C13 UNL     1      -0.004  -3.164  15.378  1.00  0.00    -0.026 A 
HETATM   28  C14 UNL     1      -0.202  -4.166  14.433  1.00  0.00     0.012 A 
HETATM   29  C18 UNL     1      -0.373  -1.864  15.104  1.00  0.00    -0.025 A 
HETATM   30  C15 UNL     1      -0.766  -3.904  13.203  1.00  0.00     0.001 A 
HETATM   31  C16 UNL     1      -1.134  -2.604  12.930  1.00  0.00     0.001 A 
HETATM   32  C17 UNL     1      -0.935  -1.619  13.873  1.00  0.00     0.012 A 
HETATM   33  C19 UNL     1      -0.175  -0.865  16.050  1.00  0.00     0.037 A 
ENDBRANCH  21  24
ENDBRANCH  19  21
ENDBRANCH  18  19
ENDBRANCH  15  18
ENDBRANCH   1  14
BRANCH   1  34
HETATM   34  C20 UNL     1      -0.817   3.785  22.613  1.00  0.00     0.242 C 
HETATM   35  O4  UNL     1       0.345   3.309  22.843  1.00  0.00    -0.271 OA
HETATM   36  N5  UNL     1      -1.582   4.185  23.714  1.00  0.00    -0.350 N 
HETATM   37  C21 UNL     1      -2.924   4.734  23.670  1.00  0.00     0.126 C 
HETATM   38  C25 UNL     1      -1.026   4.063  25.067  1.00  0.00     0.126 C 
HETATM   39  C22 UNL     1      -3.696   4.404  24.933  1.00  0.00     0.020 C 
HETATM   40  C23 UNL     1      -3.285   3.084  25.535  1.00  0.00     0.003 C 
HETATM   41  C24 UNL     1      -1.808   3.017  25.826  1.00  0.00     0.020 C 
ENDBRANCH   1  34
TORSDOF 9
ENDMDL
