MODEL 14
REMARK VINA RESULT: -7.815381822      1.899      4.118
REMARK  7 active torsions:
REMARK  status: ('A' for Active; 'I' for Inactive)
REMARK    1  A    between atoms: C5_5  and  S1_6 
REMARK    2  A    between atoms: S1_6  and  N1_9 
REMARK    3  A    between atoms: N1_9  and  C6_11 
REMARK    4  A    between atoms: C6_11  and  C7_12 
REMARK    5  A    between atoms: C6_11  and  C15_24 
REMARK    6  A    between atoms: C7_12  and  C8_13 
REMARK    7  A    between atoms: C12_17  and  C13_18 
REMARK       I    between atoms: C15_24  and  N4_26 
ROOT
HETATM    1  C6  UNL     1      -3.891   3.664  22.073  1.00  0.00     0.092 C 
ENDROOT
BRANCH   1   2
HETATM    2  N1  UNL     1      -4.105   4.595  23.089  1.00  0.00    -0.278 N 
ATOM      3  H1  UNL     1      -3.943   5.587  22.915  1.00  0.00     0.179 HD
BRANCH   2   4
HETATM    4  S1  UNL     1      -4.625   4.083  24.586  1.00  0.00     0.263 S 
HETATM    5  O1  UNL     1      -5.153   2.632  24.495  1.00  0.00    -0.200 OA
HETATM    6  O2  UNL     1      -5.922   4.852  24.887  1.00  0.00    -0.200 OA
BRANCH   4   7
HETATM    7  C5  UNL     1      -3.667   4.173  25.975  1.00  0.00     0.079 A 
HETATM    8  C4  UNL     1      -3.215   3.060  26.676  1.00  0.00     0.026 A 
HETATM    9  C3  UNL     1      -2.358   3.235  27.761  1.00  0.00     0.008 A 
HETATM   10  C2  UNL     1      -1.947   4.505  28.162  1.00  0.00    -0.062 A 
HETATM   11  C1  UNL     1      -1.056   4.680  29.305  1.00  0.00     0.048 C 
HETATM   12  C22 UNL     1      -2.410   5.618  27.455  1.00  0.00     0.008 A 
HETATM   13  C21 UNL     1      -3.248   5.471  26.390  1.00  0.00     0.026 A 
ENDBRANCH   4   7
ENDBRANCH   2   4
ENDBRANCH   1   2
BRANCH   1  14
HETATM   14  C7  UNL     1      -3.925   4.115  20.648  1.00  0.00     0.102 C 
BRANCH  14  15
HETATM   15  C8  UNL     1      -3.128   5.300  20.333  1.00  0.00    -0.051 A 
HETATM   16  C9  UNL     1      -1.803   5.097  19.880  1.00  0.00     0.007 A 
HETATM   17  C10 UNL     1      -1.107   6.198  19.424  1.00  0.00     0.002 A 
HETATM   18  C11 UNL     1      -1.652   7.465  19.386  1.00  0.00     0.015 A 
HETATM   19  C12 UNL     1      -2.974   7.673  19.835  1.00  0.00     0.005 A 
HETATM   20  C14 UNL     1      -3.645   6.569  20.290  1.00  0.00     0.022 A 
BRANCH  19  21
HETATM   21  C13 UNL     1      -3.541   8.997  19.694  1.00  0.00     0.120 C 
HETATM   22  N2  UNL     1      -2.687  10.143  19.540  1.00  0.00    -0.082 NA
HETATM   23  N3  UNL     1      -4.797   9.243  19.706  1.00  0.00    -0.387 N 
ATOM     24  H32 UNL     1      -5.403   8.430  19.815  1.00  0.00     0.157 HD
ATOM     25  H31 UNL     1      -5.197  10.177  19.607  1.00  0.00     0.157 HD
ENDBRANCH  19  21
ENDBRANCH  14  15
ENDBRANCH   1  14
BRANCH   1  26
HETATM   26  C15 UNL     1      -2.962   2.621  22.392  1.00  0.00     0.267 C 
HETATM   27  O3  UNL     1      -3.267   1.357  22.394  1.00  0.00    -0.266 OA
HETATM   28  N4  UNL     1      -1.545   2.796  22.779  1.00  0.00    -0.347 N 
HETATM   29  C16 UNL     1      -1.025   4.126  23.176  1.00  0.00     0.126 C 
HETATM   30  C20 UNL     1      -0.603   1.706  22.773  1.00  0.00     0.126 C 
HETATM   31  C17 UNL     1      -0.414   3.938  24.595  1.00  0.00     0.020 C 
HETATM   32  C18 UNL     1       0.772   3.009  24.461  1.00  0.00     0.003 C 
HETATM   33  C19 UNL     1       0.311   1.678  23.937  1.00  0.00     0.020 C 
ENDBRANCH   1  26
TORSDOF 7
ENDMDL
