MODEL 5
REMARK VINA RESULT: -8.098756246      2.242      2.882
REMARK  7 active torsions:
REMARK  status: ('A' for Active; 'I' for Inactive)
REMARK    1  A    between atoms: C5_5  and  S1_6 
REMARK    2  A    between atoms: S1_6  and  N1_9 
REMARK    3  A    between atoms: N1_9  and  C6_11 
REMARK    4  A    between atoms: C6_11  and  C7_12 
REMARK    5  A    between atoms: C6_11  and  C15_24 
REMARK    6  A    between atoms: C7_12  and  C8_13 
REMARK    7  A    between atoms: C12_17  and  C13_18 
REMARK       I    between atoms: C15_24  and  N4_26 
ROOT
HETATM    1  C6  UNL     1      -2.816   2.830  21.100  1.00  0.00     0.092 C 
ENDROOT
BRANCH   1   2
HETATM    2  N1  UNL     1      -2.317   1.767  20.350  1.00  0.00    -0.278 N 
ATOM      3  H1  UNL     1      -2.958   1.124  19.885  1.00  0.00     0.179 HD
BRANCH   2   4
HETATM    4  S1  UNL     1      -0.670   1.550  20.214  1.00  0.00     0.263 S 
HETATM    5  O1  UNL     1       0.070   2.494  21.190  1.00  0.00    -0.200 OA
HETATM    6  O2  UNL     1      -0.260   2.145  18.857  1.00  0.00    -0.200 OA
BRANCH   4   7
HETATM    7  C5  UNL     1       0.072   0.036  20.332  1.00  0.00     0.079 A 
HETATM    8  C4  UNL     1       0.042  -0.920  19.324  1.00  0.00     0.026 A 
HETATM    9  C3  UNL     1       0.758  -2.106  19.481  1.00  0.00     0.008 A 
HETATM   10  C2  UNL     1       1.501  -2.355  20.633  1.00  0.00    -0.062 A 
HETATM   11  C1  UNL     1       2.242  -3.603  20.795  1.00  0.00     0.048 C 
HETATM   12  C22 UNL     1       1.522  -1.389  21.644  1.00  0.00     0.008 A 
HETATM   13  C21 UNL     1       0.831  -0.222  21.512  1.00  0.00     0.026 A 
ENDBRANCH   4   7
ENDBRANCH   2   4
ENDBRANCH   1   2
BRANCH   1  14
HETATM   14  C7  UNL     1      -3.562   3.927  20.409  1.00  0.00     0.102 C 
BRANCH  14  15
HETATM   15  C8  UNL     1      -2.852   5.198  20.278  1.00  0.00    -0.051 A 
HETATM   16  C9  UNL     1      -1.457   5.149  20.045  1.00  0.00     0.007 A 
HETATM   17  C10 UNL     1      -0.814   6.335  19.753  1.00  0.00     0.002 A 
HETATM   18  C11 UNL     1      -1.474   7.544  19.674  1.00  0.00     0.015 A 
HETATM   19  C12 UNL     1      -2.865   7.599  19.904  1.00  0.00     0.005 A 
HETATM   20  C14 UNL     1      -3.483   6.412  20.198  1.00  0.00     0.022 A 
BRANCH  19  21
HETATM   21  C13 UNL     1      -3.537   8.869  19.722  1.00  0.00     0.120 C 
HETATM   22  N2  UNL     1      -2.777  10.077  19.555  1.00  0.00    -0.082 NA
HETATM   23  N3  UNL     1      -4.809   9.010  19.706  1.00  0.00    -0.387 N 
ATOM     24  H32 UNL     1      -5.348   8.153  19.825  1.00  0.00     0.157 HD
ATOM     25  H31 UNL     1      -5.282   9.905  19.579  1.00  0.00     0.157 HD
ENDBRANCH  19  21
ENDBRANCH  14  15
ENDBRANCH   1  14
BRANCH   1  26
HETATM   26  C15 UNL     1      -3.260   2.487  22.419  1.00  0.00     0.267 C 
HETATM   27  O3  UNL     1      -4.187   1.610  22.665  1.00  0.00    -0.266 OA
HETATM   28  N4  UNL     1      -2.769   3.068  23.688  1.00  0.00    -0.347 N 
HETATM   29  C16 UNL     1      -1.961   4.311  23.693  1.00  0.00     0.126 C 
HETATM   30  C20 UNL     1      -3.028   2.457  24.967  1.00  0.00     0.126 C 
HETATM   31  C17 UNL     1      -2.717   5.306  24.619  1.00  0.00     0.020 C 
HETATM   32  C18 UNL     1      -2.686   4.739  26.021  1.00  0.00     0.003 C 
HETATM   33  C19 UNL     1      -3.386   3.410  26.042  1.00  0.00     0.020 C 
ENDBRANCH   1  26
TORSDOF 7
ENDMDL
