MODEL 4
REMARK VINA RESULT: -8.144081980      2.411      3.098
REMARK  7 active torsions:
REMARK  status: ('A' for Active; 'I' for Inactive)
REMARK    1  A    between atoms: C5_5  and  S1_6 
REMARK    2  A    between atoms: S1_6  and  N1_9 
REMARK    3  A    between atoms: N1_9  and  C6_11 
REMARK    4  A    between atoms: C6_11  and  C7_12 
REMARK    5  A    between atoms: C6_11  and  C15_24 
REMARK    6  A    between atoms: C7_12  and  C8_13 
REMARK    7  A    between atoms: C12_17  and  C13_18 
REMARK       I    between atoms: C15_24  and  N4_26 
ROOT
HETATM    1  C6  UNL     1      -2.895   3.001  21.226  1.00  0.00     0.092 C 
ENDROOT
BRANCH   1   2
HETATM    2  N1  UNL     1      -2.226   1.935  20.628  1.00  0.00    -0.278 N 
ATOM      3  H1  UNL     1      -2.656   1.430  19.853  1.00  0.00     0.179 HD
BRANCH   2   4
HETATM    4  S1  UNL     1      -0.719   1.487  21.181  1.00  0.00     0.263 S 
HETATM    5  O1  UNL     1      -0.817   0.998  22.645  1.00  0.00    -0.200 OA
HETATM    6  O2  UNL     1       0.088   2.785  21.355  1.00  0.00    -0.200 OA
BRANCH   4   7
HETATM    7  C5  UNL     1       0.278   0.396  20.361  1.00  0.00     0.079 A 
HETATM    8  C4  UNL     1       0.280   0.240  18.979  1.00  0.00     0.026 A 
HETATM    9  C3  UNL     1       1.200  -0.626  18.389  1.00  0.00     0.008 A 
HETATM   10  C2  UNL     1       2.116  -1.342  19.157  1.00  0.00    -0.062 A 
HETATM   11  C1  UNL     1       3.071  -2.252  18.531  1.00  0.00     0.048 C 
HETATM   12  C22 UNL     1       2.103  -1.182  20.545  1.00  0.00     0.008 A 
HETATM   13  C21 UNL     1       1.214  -0.341  21.145  1.00  0.00     0.026 A 
ENDBRANCH   4   7
ENDBRANCH   2   4
ENDBRANCH   1   2
BRANCH   1  14
HETATM   14  C7  UNL     1      -3.564   4.022  20.363  1.00  0.00     0.102 C 
BRANCH  14  15
HETATM   15  C8  UNL     1      -2.851   5.289  20.203  1.00  0.00    -0.051 A 
HETATM   16  C9  UNL     1      -1.472   5.230  19.891  1.00  0.00     0.007 A 
HETATM   17  C10 UNL     1      -0.836   6.413  19.574  1.00  0.00     0.002 A 
HETATM   18  C11 UNL     1      -1.490   7.628  19.543  1.00  0.00     0.015 A 
HETATM   19  C12 UNL     1      -2.865   7.692  19.851  1.00  0.00     0.005 A 
HETATM   20  C14 UNL     1      -3.475   6.509  20.170  1.00  0.00     0.022 A 
BRANCH  19  21
HETATM   21  C13 UNL     1      -3.535   8.969  19.718  1.00  0.00     0.120 C 
HETATM   22  N2  UNL     1      -2.774  10.175  19.539  1.00  0.00    -0.082 NA
HETATM   23  N3  UNL     1      -4.805   9.120  19.758  1.00  0.00    -0.387 N 
ATOM     24  H32 UNL     1      -5.345   8.263  19.885  1.00  0.00     0.157 HD
ATOM     25  H31 UNL     1      -5.277  10.019  19.665  1.00  0.00     0.157 HD
ENDBRANCH  19  21
ENDBRANCH  14  15
ENDBRANCH   1  14
BRANCH   1  26
HETATM   26  C15 UNL     1      -3.540   2.692  22.469  1.00  0.00     0.267 C 
HETATM   27  O3  UNL     1      -4.608   1.958  22.566  1.00  0.00    -0.266 OA
HETATM   28  N4  UNL     1      -3.126   3.157  23.811  1.00  0.00    -0.347 N 
HETATM   29  C16 UNL     1      -2.151   4.263  23.965  1.00  0.00     0.126 C 
HETATM   30  C20 UNL     1      -3.623   2.557  25.023  1.00  0.00     0.126 C 
HETATM   31  C17 UNL     1      -2.860   5.335  24.842  1.00  0.00     0.020 C 
HETATM   32  C18 UNL     1      -3.080   4.732  26.211  1.00  0.00     0.003 C 
HETATM   33  C19 UNL     1      -3.965   3.523  26.091  1.00  0.00     0.020 C 
ENDBRANCH   1  26
TORSDOF 7
ENDMDL
