MODEL 3
REMARK VINA RESULT: -8.199177064      3.172      6.498
REMARK  7 active torsions:
REMARK  status: ('A' for Active; 'I' for Inactive)
REMARK    1  A    between atoms: C5_5  and  S1_6 
REMARK    2  A    between atoms: S1_6  and  N1_9 
REMARK    3  A    between atoms: N1_9  and  C6_11 
REMARK    4  A    between atoms: C6_11  and  C7_12 
REMARK    5  A    between atoms: C6_11  and  C15_24 
REMARK    6  A    between atoms: C7_12  and  C8_13 
REMARK    7  A    between atoms: C12_17  and  C13_18 
REMARK       I    between atoms: C15_24  and  N4_26 
ROOT
HETATM    1  C6  UNL     1      -4.099   4.164  22.045  1.00  0.00     0.092 C 
ENDROOT
BRANCH   1   2
HETATM    2  N1  UNL     1      -5.367   4.657  22.351  1.00  0.00    -0.278 N 
ATOM      3  H1  UNL     1      -5.483   5.630  22.633  1.00  0.00     0.179 HD
BRANCH   2   4
HETATM    4  S1  UNL     1      -6.692   3.651  22.253  1.00  0.00     0.263 S 
HETATM    5  O1  UNL     1      -7.775   4.104  23.260  1.00  0.00    -0.200 OA
HETATM    6  O2  UNL     1      -6.266   2.304  22.859  1.00  0.00    -0.200 OA
BRANCH   4   7
HETATM    7  C5  UNL     1      -7.482   3.308  20.799  1.00  0.00     0.079 A 
HETATM    8  C4  UNL     1      -6.824   2.963  19.624  1.00  0.00     0.026 A 
HETATM    9  C3  UNL     1      -7.568   2.613  18.498  1.00  0.00     0.008 A 
HETATM   10  C2  UNL     1      -8.961   2.606  18.525  1.00  0.00    -0.062 A 
HETATM   11  C1  UNL     1      -9.734   2.247  17.339  1.00  0.00     0.048 C 
HETATM   12  C22 UNL     1      -9.615   2.958  19.709  1.00  0.00     0.008 A 
HETATM   13  C21 UNL     1      -8.908   3.303  20.823  1.00  0.00     0.026 A 
ENDBRANCH   4   7
ENDBRANCH   2   4
ENDBRANCH   1   2
BRANCH   1  14
HETATM   14  C7  UNL     1      -3.601   4.249  20.637  1.00  0.00     0.102 C 
BRANCH  14  15
HETATM   15  C8  UNL     1      -2.856   5.460  20.295  1.00  0.00    -0.051 A 
HETATM   16  C9  UNL     1      -1.542   5.302  19.796  1.00  0.00     0.007 A 
HETATM   17  C10 UNL     1      -0.900   6.426  19.316  1.00  0.00     0.002 A 
HETATM   18  C11 UNL     1      -1.490   7.673  19.297  1.00  0.00     0.015 A 
HETATM   19  C12 UNL     1      -2.801   7.836  19.791  1.00  0.00     0.005 A 
HETATM   20  C14 UNL     1      -3.417   6.710  20.270  1.00  0.00     0.022 A 
BRANCH  19  21
HETATM   21  C13 UNL     1      -3.419   9.140  19.670  1.00  0.00     0.120 C 
HETATM   22  N2  UNL     1      -2.614  10.308  19.439  1.00  0.00    -0.082 NA
HETATM   23  N3  UNL     1      -4.678   9.348  19.766  1.00  0.00    -0.387 N 
ATOM     24  H32 UNL     1      -5.249   8.519  19.930  1.00  0.00     0.157 HD
ATOM     25  H31 UNL     1      -5.113  10.267  19.682  1.00  0.00     0.157 HD
ENDBRANCH  19  21
ENDBRANCH  14  15
ENDBRANCH   1  14
BRANCH   1  26
HETATM   26  C15 UNL     1      -3.120   4.321  23.080  1.00  0.00     0.267 C 
HETATM   27  O3  UNL     1      -2.934   5.426  23.737  1.00  0.00    -0.266 OA
HETATM   28  N4  UNL     1      -2.170   3.290  23.551  1.00  0.00    -0.347 N 
HETATM   29  C16 UNL     1      -1.935   2.056  22.764  1.00  0.00     0.126 C 
HETATM   30  C20 UNL     1      -1.446   3.417  24.791  1.00  0.00     0.126 C 
HETATM   31  C17 UNL     1      -0.403   2.007  22.498  1.00  0.00     0.020 C 
HETATM   32  C18 UNL     1       0.287   1.831  23.832  1.00  0.00     0.003 C 
HETATM   33  C19 UNL     1      -0.026   3.004  24.718  1.00  0.00     0.020 C 
ENDBRANCH   1  26
TORSDOF 7
ENDMDL
