MODEL 6
REMARK VINA RESULT: -7.434321214      2.663      8.794
REMARK  16 active torsions:
REMARK  status: ('A' for Active; 'I' for Inactive)
REMARK    1  A    between atoms: C2_2  and  O1_3 
REMARK    2  A    between atoms: O1_3  and  C3_4 
REMARK    3  A    between atoms: C3_4  and  C4_6 
REMARK    4  A    between atoms: C4_6  and  P1_7 
REMARK    5  A    between atoms: P1_7  and  C5_10 
REMARK    6  A    between atoms: C5_10  and  C6_11 
REMARK    7  A    between atoms: C5_10  and  N1_15 
REMARK    8  A    between atoms: C6_11  and  C7_12 
REMARK       I    between atoms: N1_15  and  C10_17 
REMARK    9  A    between atoms: C10_17  and  C11_19 
REMARK   10  A    between atoms: C11_19  and  N2_20 
REMARK   11  A    between atoms: C11_19  and  C22_36 
REMARK       I    between atoms: N2_20  and  C12_22 
REMARK   12  A    between atoms: C12_22  and  C13_24 
REMARK   13  A    between atoms: C13_24  and  N3_25 
REMARK   14  A    between atoms: C13_24  and  C19_33 
REMARK       I    between atoms: N3_25  and  C14_27 
REMARK   15  A    between atoms: C14_27  and  C15_29 
REMARK   16  A    between atoms: C15_29  and  C16_30 
ROOT
HETATM    1  C11 UNL     1      19.821   7.794  21.394  1.00  0.00     0.180 C 
ENDROOT
BRANCH   1   2
HETATM    2  C10 UNL     1      19.838   7.426  19.937  1.00  0.00     0.241 C 
HETATM    3  N1  UNL     1      20.833   6.614  19.373  1.00  0.00    -0.345 N 
ATOM      4  H1  UNL     1      21.582   6.239  19.955  1.00  0.00     0.163 HD
HETATM    5  O5  UNL     1      18.882   7.900  19.207  1.00  0.00    -0.271 OA
BRANCH   3   6
HETATM    6  C5  UNL     1      20.787   6.313  17.962  1.00  0.00     0.176 C 
BRANCH   6   7
HETATM    7  P1  UNL     1      19.983   4.686  17.816  1.00  0.00     0.139 P 
HETATM    8  O3  UNL     1      18.260   4.972  17.555  1.00  0.00    -0.666 OA
HETATM    9  O4  UNL     1      20.113   3.772  19.294  1.00  0.00    -0.666 OA
BRANCH   7  10
HETATM   10  C4  UNL     1      20.567   3.733  16.402  1.00  0.00     0.216 C 
BRANCH  10  11
HETATM   11  C3  UNL     1      21.274   2.566  16.922  1.00  0.00     0.268 C 
HETATM   12  O2  UNL     1      20.692   1.448  17.002  1.00  0.00    -0.265 OA
BRANCH  11  13
HETATM   13  O1  UNL     1      22.586   2.646  17.339  1.00  0.00    -0.321 OA
BRANCH  13  14
HETATM   14  C2  UNL     1      23.101   1.974  18.463  1.00  0.00     0.174 C 
HETATM   15  C1  UNL     1      23.638   2.999  19.426  1.00  0.00     0.034 C 
ENDBRANCH  13  14
ENDBRANCH  11  13
ENDBRANCH  10  11
ENDBRANCH   7  10
ENDBRANCH   6   7
BRANCH   6  16
HETATM   16  C6  UNL     1      21.997   6.551  17.221  1.00  0.00     0.040 C 
BRANCH  16  17
HETATM   17  C7  UNL     1      23.338   6.174  17.612  1.00  0.00    -0.020 C 
HETATM   18  C8  UNL     1      24.041   7.521  17.998  1.00  0.00     0.009 C 
HETATM   19  C9  UNL     1      24.288   5.496  16.738  1.00  0.00     0.009 C 
ENDBRANCH  16  17
ENDBRANCH   6  16
ENDBRANCH   3   6
ENDBRANCH   1   2
BRANCH   1  20
HETATM   20  N2  UNL     1      20.485   9.101  21.537  1.00  0.00    -0.346 N 
HETATM   21  C12 UNL     1      21.600   9.314  22.374  1.00  0.00     0.241 C 
HETATM   22  O6  UNL     1      22.037   8.323  23.019  1.00  0.00    -0.271 OA
ATOM     23  H2  UNL     1      20.120   9.890  21.004  1.00  0.00     0.163 HD
BRANCH  21  24
HETATM   24  C13 UNL     1      22.235  10.676  22.486  1.00  0.00     0.180 C 
BRANCH  24  25
HETATM   25  N3  UNL     1      22.178  11.216  23.800  1.00  0.00    -0.347 N 
HETATM   26  C14 UNL     1      21.071  11.964  24.268  1.00  0.00     0.218 C 
HETATM   27  O7  UNL     1      20.107  12.137  23.470  1.00  0.00    -0.274 OA
ATOM     28  H3  UNL     1      22.965  11.059  24.428  1.00  0.00     0.163 HD
BRANCH  26  29
HETATM   29  C15 UNL     1      21.058  12.529  25.664  1.00  0.00     0.106 C 
BRANCH  29  30
HETATM   30  C16 UNL     1      21.285  14.023  25.612  1.00  0.00    -0.014 C 
HETATM   31  C17 UNL     1      21.382  14.556  27.012  1.00  0.00     0.010 C 
HETATM   32  C18 UNL     1      22.520  14.403  24.853  1.00  0.00     0.010 C 
ENDBRANCH  29  30
ENDBRANCH  26  29
ENDBRANCH  24  25
BRANCH  24  33
HETATM   33  C19 UNL     1      23.615  10.586  21.902  1.00  0.00     0.009 C 
HETATM   34  C20 UNL     1      24.435  11.835  22.032  1.00  0.00     0.012 C 
HETATM   35  C21 UNL     1      23.515  10.281  20.408  1.00  0.00     0.012 C 
ENDBRANCH  24  33
ENDBRANCH  21  24
ENDBRANCH   1  20
BRANCH   1  36
HETATM   36  C22 UNL     1      18.429   8.002  21.884  1.00  0.00     0.009 C 
HETATM   37  C23 UNL     1      18.222   8.973  22.981  1.00  0.00     0.012 C 
HETATM   38  C24 UNL     1      17.826   6.643  22.175  1.00  0.00     0.012 C 
ENDBRANCH   1  36
TORSDOF 16
ENDMDL
