MODEL 8
REMARK VINA RESULT: -7.244052649      2.949      7.191
REMARK  16 active torsions:
REMARK  status: ('A' for Active; 'I' for Inactive)
REMARK    1  A    between atoms: C2_2  and  O1_3 
REMARK    2  A    between atoms: O1_3  and  C3_4 
REMARK    3  A    between atoms: C3_4  and  C4_6 
REMARK    4  A    between atoms: C4_6  and  P1_7 
REMARK    5  A    between atoms: P1_7  and  C5_10 
REMARK    6  A    between atoms: C5_10  and  C6_11 
REMARK    7  A    between atoms: C5_10  and  N1_15 
REMARK    8  A    between atoms: C6_11  and  C7_12 
REMARK       I    between atoms: N1_15  and  C10_17 
REMARK    9  A    between atoms: C10_17  and  C11_19 
REMARK   10  A    between atoms: C11_19  and  N2_20 
REMARK   11  A    between atoms: C11_19  and  C22_36 
REMARK       I    between atoms: N2_20  and  C12_22 
REMARK   12  A    between atoms: C12_22  and  C13_24 
REMARK   13  A    between atoms: C13_24  and  N3_25 
REMARK   14  A    between atoms: C13_24  and  C19_33 
REMARK       I    between atoms: N3_25  and  C14_27 
REMARK   15  A    between atoms: C14_27  and  C15_29 
REMARK   16  A    between atoms: C15_29  and  C16_30 
ROOT
HETATM    1  C11 UNL     1      22.884   8.189  21.187  1.00  0.00     0.180 C 
ENDROOT
BRANCH   1   2
HETATM    2  C10 UNL     1      21.516   8.108  21.805  1.00  0.00     0.241 C 
HETATM    3  N1  UNL     1      20.349   7.951  21.043  1.00  0.00    -0.345 N 
ATOM      4  H1  UNL     1      20.404   7.880  20.026  1.00  0.00     0.163 HD
HETATM    5  O5  UNL     1      21.455   8.194  23.094  1.00  0.00    -0.271 OA
BRANCH   3   6
HETATM    6  C5  UNL     1      19.070   7.892  21.708  1.00  0.00     0.176 C 
BRANCH   6   7
HETATM    7  P1  UNL     1      17.862   7.386  20.443  1.00  0.00     0.139 P 
HETATM    8  O3  UNL     1      18.609   7.653  18.865  1.00  0.00    -0.666 OA
HETATM    9  O4  UNL     1      16.433   8.383  20.487  1.00  0.00    -0.666 OA
BRANCH   7  10
HETATM   10  C4  UNL     1      17.443   5.635  20.525  1.00  0.00     0.216 C 
BRANCH  10  11
HETATM   11  C3  UNL     1      16.707   5.303  19.308  1.00  0.00     0.268 C 
HETATM   12  O2  UNL     1      17.307   4.811  18.312  1.00  0.00    -0.265 OA
BRANCH  11  13
HETATM   13  O1  UNL     1      15.348   5.515  19.208  1.00  0.00    -0.321 OA
BRANCH  13  14
HETATM   14  C2  UNL     1      14.404   4.498  18.974  1.00  0.00     0.174 C 
HETATM   15  C1  UNL     1      13.644   4.833  17.719  1.00  0.00     0.034 C 
ENDBRANCH  13  14
ENDBRANCH  11  13
ENDBRANCH  10  11
ENDBRANCH   7  10
ENDBRANCH   6   7
BRANCH   6  16
HETATM   16  C6  UNL     1      18.744   9.002  22.564  1.00  0.00     0.040 C 
BRANCH  16  17
HETATM   17  C7  UNL     1      18.119   8.934  23.866  1.00  0.00    -0.020 C 
HETATM   18  C8  UNL     1      18.902   9.968  24.747  1.00  0.00     0.009 C 
HETATM   19  C9  UNL     1      18.051   7.728  24.682  1.00  0.00     0.009 C 
ENDBRANCH  16  17
ENDBRANCH   6  16
ENDBRANCH   3   6
ENDBRANCH   1   2
BRANCH   1  20
HETATM   20  N2  UNL     1      22.912   7.274  20.034  1.00  0.00    -0.346 N 
HETATM   21  C12 UNL     1      23.820   6.199  19.923  1.00  0.00     0.241 C 
HETATM   22  O6  UNL     1      24.633   6.029  20.871  1.00  0.00    -0.271 OA
ATOM     23  H2  UNL     1      22.244   7.424  19.279  1.00  0.00     0.163 HD
BRANCH  21  24
HETATM   24  C13 UNL     1      23.809   5.298  18.716  1.00  0.00     0.180 C 
BRANCH  24  25
HETATM   25  N3  UNL     1      22.809   4.289  18.776  1.00  0.00    -0.347 N 
HETATM   26  C14 UNL     1      23.102   2.949  19.125  1.00  0.00     0.218 C 
HETATM   27  O7  UNL     1      24.303   2.667  19.396  1.00  0.00    -0.274 OA
ATOM     28  H3  UNL     1      21.845   4.541  18.560  1.00  0.00     0.163 HD
BRANCH  26  29
HETATM   29  C15 UNL     1      22.014   1.908  19.165  1.00  0.00     0.106 C 
BRANCH  29  30
HETATM   30  C16 UNL     1      22.160   0.972  17.987  1.00  0.00    -0.014 C 
HETATM   31  C17 UNL     1      21.723  -0.406  18.396  1.00  0.00     0.010 C 
HETATM   32  C18 UNL     1      21.369   1.406  16.790  1.00  0.00     0.010 C 
ENDBRANCH  29  30
ENDBRANCH  26  29
ENDBRANCH  24  25
BRANCH  24  33
HETATM   33  C19 UNL     1      23.748   6.171  17.495  1.00  0.00     0.009 C 
HETATM   34  C20 UNL     1      22.400   6.251  16.846  1.00  0.00     0.012 C 
HETATM   35  C21 UNL     1      24.712   5.633  16.439  1.00  0.00     0.012 C 
ENDBRANCH  24  33
ENDBRANCH  21  24
ENDBRANCH   1  20
BRANCH   1  36
HETATM   36  C22 UNL     1      23.142   9.545  20.623  1.00  0.00     0.009 C 
HETATM   37  C23 UNL     1      24.176   9.667  19.571  1.00  0.00     0.012 C 
HETATM   38  C24 UNL     1      23.356  10.502  21.778  1.00  0.00     0.012 C 
ENDBRANCH   1  36
TORSDOF 16
ENDMDL
