MODEL 3
REMARK VINA RESULT: -7.729955124      1.419      3.491
REMARK  16 active torsions:
REMARK  status: ('A' for Active; 'I' for Inactive)
REMARK    1  A    between atoms: C2_2  and  O1_3 
REMARK    2  A    between atoms: O1_3  and  C3_4 
REMARK    3  A    between atoms: C3_4  and  C4_6 
REMARK    4  A    between atoms: C4_6  and  P1_7 
REMARK    5  A    between atoms: P1_7  and  C5_10 
REMARK    6  A    between atoms: C5_10  and  C6_11 
REMARK    7  A    between atoms: C5_10  and  N1_15 
REMARK    8  A    between atoms: C6_11  and  C7_12 
REMARK       I    between atoms: N1_15  and  C10_17 
REMARK    9  A    between atoms: C10_17  and  C11_19 
REMARK   10  A    between atoms: C11_19  and  N2_20 
REMARK   11  A    between atoms: C11_19  and  C22_36 
REMARK       I    between atoms: N2_20  and  C12_22 
REMARK   12  A    between atoms: C12_22  and  C13_24 
REMARK   13  A    between atoms: C13_24  and  N3_25 
REMARK   14  A    between atoms: C13_24  and  C19_33 
REMARK       I    between atoms: N3_25  and  C14_27 
REMARK   15  A    between atoms: C14_27  and  C15_29 
REMARK   16  A    between atoms: C15_29  and  C16_30 
ROOT
HETATM    1  C11 UNL     1      19.529   8.269  21.531  1.00  0.00     0.180 C 
ENDROOT
BRANCH   1   2
HETATM    2  C10 UNL     1      20.970   8.622  21.771  1.00  0.00     0.241 C 
HETATM    3  N1  UNL     1      21.651   9.582  21.007  1.00  0.00    -0.345 N 
ATOM      4  H1  UNL     1      21.169  10.081  20.258  1.00  0.00     0.163 HD
HETATM    5  O5  UNL     1      21.572   7.991  22.724  1.00  0.00    -0.271 OA
BRANCH   3   6
HETATM    6  C5  UNL     1      23.039   9.859  21.290  1.00  0.00     0.176 C 
BRANCH   6   7
HETATM    7  P1  UNL     1      23.060  11.377  22.296  1.00  0.00     0.139 P 
HETATM    8  O3  UNL     1      21.395  11.709  22.782  1.00  0.00    -0.666 OA
HETATM    9  O4  UNL     1      23.586  12.753  21.367  1.00  0.00    -0.666 OA
BRANCH   7  10
HETATM   10  C4  UNL     1      24.015  11.206  23.815  1.00  0.00     0.216 C 
BRANCH  10  11
HETATM   11  C3  UNL     1      24.672  12.486  24.065  1.00  0.00     0.268 C 
HETATM   12  O2  UNL     1      25.920  12.604  23.915  1.00  0.00    -0.265 OA
BRANCH  11  13
HETATM   13  O1  UNL     1      23.959  13.595  24.471  1.00  0.00    -0.321 OA
BRANCH  13  14
HETATM   14  C2  UNL     1      23.248  13.678  25.682  1.00  0.00     0.174 C 
HETATM   15  C1  UNL     1      21.903  14.294  25.403  1.00  0.00     0.034 C 
ENDBRANCH  13  14
ENDBRANCH  11  13
ENDBRANCH  10  11
ENDBRANCH   7  10
ENDBRANCH   6   7
BRANCH   6  16
HETATM   16  C6  UNL     1      23.948   9.759  20.179  1.00  0.00     0.040 C 
BRANCH  16  17
HETATM   17  C7  UNL     1      24.599   8.558  19.702  1.00  0.00    -0.020 C 
HETATM   18  C8  UNL     1      24.267   8.498  18.171  1.00  0.00     0.009 C 
HETATM   19  C9  UNL     1      24.311   7.216  20.197  1.00  0.00     0.009 C 
ENDBRANCH  16  17
ENDBRANCH   6  16
ENDBRANCH   3   6
ENDBRANCH   1   2
BRANCH   1  20
HETATM   20  N2  UNL     1      19.492   6.963  20.852  1.00  0.00    -0.346 N 
HETATM   21  C12 UNL     1      19.073   6.799  19.515  1.00  0.00     0.241 C 
HETATM   22  O6  UNL     1      18.724   7.835  18.887  1.00  0.00    -0.271 OA
ATOM     23  H2  UNL     1      19.782   6.137  21.374  1.00  0.00     0.163 HD
BRANCH  21  24
HETATM   24  C13 UNL     1      19.048   5.436  18.873  1.00  0.00     0.180 C 
BRANCH  24  25
HETATM   25  N3  UNL     1      17.795   5.115  18.284  1.00  0.00    -0.347 N 
HETATM   26  C14 UNL     1      16.947   4.106  18.802  1.00  0.00     0.218 C 
HETATM   27  O7  UNL     1      17.339   3.489  19.832  1.00  0.00    -0.274 OA
ATOM     28  H3  UNL     1      17.496   5.630  17.457  1.00  0.00     0.163 HD
BRANCH  26  29
HETATM   29  C15 UNL     1      15.633   3.790  18.139  1.00  0.00     0.106 C 
BRANCH  29  30
HETATM   30  C16 UNL     1      14.600   4.821  18.536  1.00  0.00    -0.014 C 
HETATM   31  C17 UNL     1      13.463   4.781  17.556  1.00  0.00     0.010 C 
HETATM   32  C18 UNL     1      14.065   4.613  19.920  1.00  0.00     0.010 C 
ENDBRANCH  29  30
ENDBRANCH  26  29
ENDBRANCH  24  25
BRANCH  24  33
HETATM   33  C19 UNL     1      20.223   5.349  17.941  1.00  0.00     0.009 C 
HETATM   34  C20 UNL     1      19.865   5.187  16.494  1.00  0.00     0.012 C 
HETATM   35  C21 UNL     1      21.081   4.142  18.317  1.00  0.00     0.012 C 
ENDBRANCH  24  33
ENDBRANCH  21  24
ENDBRANCH   1  20
BRANCH   1  36
HETATM   36  C22 UNL     1      18.801   8.069  22.816  1.00  0.00     0.009 C 
HETATM   37  C23 UNL     1      17.608   7.193  22.802  1.00  0.00     0.012 C 
HETATM   38  C24 UNL     1      18.527   9.431  23.419  1.00  0.00     0.012 C 
ENDBRANCH   1  36
TORSDOF 16
ENDMDL
