MODEL 7
REMARK VINA RESULT: -7.336665771      3.031      7.019
REMARK  16 active torsions:
REMARK  status: ('A' for Active; 'I' for Inactive)
REMARK    1  A    between atoms: C2_2  and  O1_3 
REMARK    2  A    between atoms: O1_3  and  C3_4 
REMARK    3  A    between atoms: C3_4  and  C4_6 
REMARK    4  A    between atoms: C4_6  and  P1_7 
REMARK    5  A    between atoms: P1_7  and  C5_10 
REMARK    6  A    between atoms: C5_10  and  C6_11 
REMARK    7  A    between atoms: C5_10  and  N1_15 
REMARK    8  A    between atoms: C6_11  and  C7_12 
REMARK       I    between atoms: N1_15  and  C10_17 
REMARK    9  A    between atoms: C10_17  and  C11_19 
REMARK   10  A    between atoms: C11_19  and  N2_20 
REMARK   11  A    between atoms: C11_19  and  C22_36 
REMARK       I    between atoms: N2_20  and  C12_22 
REMARK   12  A    between atoms: C12_22  and  C13_24 
REMARK   13  A    between atoms: C13_24  and  N3_25 
REMARK   14  A    between atoms: C13_24  and  C19_33 
REMARK       I    between atoms: N3_25  and  C14_27 
REMARK   15  A    between atoms: C14_27  and  C15_29 
REMARK   16  A    between atoms: C15_29  and  C16_30 
ROOT
HETATM    1  C11 UNL     1      23.035   8.227  21.193  1.00  0.00     0.180 C 
ENDROOT
BRANCH   1   2
HETATM    2  C10 UNL     1      21.723   8.126  21.920  1.00  0.00     0.241 C 
HETATM    3  N1  UNL     1      20.499   7.963  21.253  1.00  0.00    -0.345 N 
ATOM      4  H1  UNL     1      20.472   7.900  20.235  1.00  0.00     0.163 HD
HETATM    5  O5  UNL     1      21.765   8.201  23.210  1.00  0.00    -0.271 OA
BRANCH   3   6
HETATM    6  C5  UNL     1      19.279   7.885  22.020  1.00  0.00     0.176 C 
BRANCH   6   7
HETATM    7  P1  UNL     1      18.073   7.015  20.968  1.00  0.00     0.139 P 
HETATM    8  O3  UNL     1      18.532   5.310  20.941  1.00  0.00    -0.666 OA
HETATM    9  O4  UNL     1      18.144   7.572  19.319  1.00  0.00    -0.666 OA
BRANCH   7  10
HETATM   10  C4  UNL     1      16.391   7.085  21.613  1.00  0.00     0.216 C 
BRANCH  10  11
HETATM   11  C3  UNL     1      15.491   7.229  20.472  1.00  0.00     0.268 C 
HETATM   12  O2  UNL     1      15.336   8.353  19.918  1.00  0.00    -0.265 OA
BRANCH  11  13
HETATM   13  O1  UNL     1      14.787   6.155  19.970  1.00  0.00    -0.321 OA
BRANCH  13  14
HETATM   14  C2  UNL     1      15.280   5.276  18.987  1.00  0.00     0.174 C 
HETATM   15  C1  UNL     1      14.139   4.878  18.090  1.00  0.00     0.034 C 
ENDBRANCH  13  14
ENDBRANCH  11  13
ENDBRANCH  10  11
ENDBRANCH   7  10
ENDBRANCH   6   7
BRANCH   6  16
HETATM   16  C6  UNL     1      18.866   9.092  22.685  1.00  0.00     0.040 C 
BRANCH  16  17
HETATM   17  C7  UNL     1      18.322   9.199  24.021  1.00  0.00    -0.020 C 
HETATM   18  C8  UNL     1      19.271  10.198  24.767  1.00  0.00     0.009 C 
HETATM   19  C9  UNL     1      18.171   8.075  24.938  1.00  0.00     0.009 C 
ENDBRANCH  16  17
ENDBRANCH   6  16
ENDBRANCH   3   6
ENDBRANCH   1   2
BRANCH   1  20
HETATM   20  N2  UNL     1      22.989   7.300  20.051  1.00  0.00    -0.346 N 
HETATM   21  C12 UNL     1      23.869   6.206  19.906  1.00  0.00     0.241 C 
HETATM   22  O6  UNL     1      24.725   6.030  20.815  1.00  0.00    -0.271 OA
ATOM     23  H2  UNL     1      22.287   7.455  19.327  1.00  0.00     0.163 HD
BRANCH  21  24
HETATM   24  C13 UNL     1      23.782   5.294  18.711  1.00  0.00     0.180 C 
BRANCH  24  25
HETATM   25  N3  UNL     1      22.766   4.307  18.830  1.00  0.00    -0.347 N 
HETATM   26  C14 UNL     1      23.053   2.952  19.121  1.00  0.00     0.218 C 
HETATM   27  O7  UNL     1      24.265   2.636  19.285  1.00  0.00    -0.274 OA
ATOM     28  H3  UNL     1      21.794   4.585  18.700  1.00  0.00     0.163 HD
BRANCH  26  29
HETATM   29  C15 UNL     1      21.947   1.935  19.227  1.00  0.00     0.106 C 
BRANCH  29  30
HETATM   30  C16 UNL     1      22.107   0.893  18.143  1.00  0.00    -0.014 C 
HETATM   31  C17 UNL     1      21.558  -0.416  18.634  1.00  0.00     0.010 C 
HETATM   32  C18 UNL     1      21.423   1.266  16.864  1.00  0.00     0.010 C 
ENDBRANCH  29  30
ENDBRANCH  26  29
ENDBRANCH  24  25
BRANCH  24  33
HETATM   33  C19 UNL     1      23.680   6.156  17.485  1.00  0.00     0.009 C 
HETATM   34  C20 UNL     1      22.335   6.154  16.825  1.00  0.00     0.012 C 
HETATM   35  C21 UNL     1      24.682   5.671  16.439  1.00  0.00     0.012 C 
ENDBRANCH  24  33
ENDBRANCH  21  24
ENDBRANCH   1  20
BRANCH   1  36
HETATM   36  C22 UNL     1      23.220   9.581  20.598  1.00  0.00     0.009 C 
HETATM   37  C23 UNL     1      24.214   9.725  19.512  1.00  0.00     0.012 C 
HETATM   38  C24 UNL     1      23.432  10.567  21.729  1.00  0.00     0.012 C 
ENDBRANCH   1  36
TORSDOF 16
ENDMDL
