MODEL 4
REMARK VINA RESULT: -7.637635213      1.592      3.731
REMARK  16 active torsions:
REMARK  status: ('A' for Active; 'I' for Inactive)
REMARK    1  A    between atoms: C2_2  and  O1_3 
REMARK    2  A    between atoms: O1_3  and  C3_4 
REMARK    3  A    between atoms: C3_4  and  C4_6 
REMARK    4  A    between atoms: C4_6  and  P1_7 
REMARK    5  A    between atoms: P1_7  and  C5_10 
REMARK    6  A    between atoms: C5_10  and  C6_11 
REMARK    7  A    between atoms: C5_10  and  N1_15 
REMARK    8  A    between atoms: C6_11  and  C7_12 
REMARK       I    between atoms: N1_15  and  C10_17 
REMARK    9  A    between atoms: C10_17  and  C11_19 
REMARK   10  A    between atoms: C11_19  and  N2_20 
REMARK   11  A    between atoms: C11_19  and  C22_36 
REMARK       I    between atoms: N2_20  and  C12_22 
REMARK   12  A    between atoms: C12_22  and  C13_24 
REMARK   13  A    between atoms: C13_24  and  N3_25 
REMARK   14  A    between atoms: C13_24  and  C19_33 
REMARK       I    between atoms: N3_25  and  C14_27 
REMARK   15  A    between atoms: C14_27  and  C15_29 
REMARK   16  A    between atoms: C15_29  and  C16_30 
ROOT
HETATM    1  C11 UNL     1      19.507   8.276  21.525  1.00  0.00     0.180 C 
ENDROOT
BRANCH   1   2
HETATM    2  C10 UNL     1      20.948   8.629  21.764  1.00  0.00     0.241 C 
HETATM    3  N1  UNL     1      21.629   9.588  20.999  1.00  0.00    -0.345 N 
ATOM      4  H1  UNL     1      21.147  10.086  20.250  1.00  0.00     0.163 HD
HETATM    5  O5  UNL     1      21.550   7.999  22.718  1.00  0.00    -0.271 OA
BRANCH   3   6
HETATM    6  C5  UNL     1      23.017   9.865  21.281  1.00  0.00     0.176 C 
BRANCH   6   7
HETATM    7  P1  UNL     1      23.038  11.389  22.279  1.00  0.00     0.139 P 
HETATM    8  O3  UNL     1      21.366  11.760  22.709  1.00  0.00    -0.666 OA
HETATM    9  O4  UNL     1      23.623  12.748  21.358  1.00  0.00    -0.666 OA
BRANCH   7  10
HETATM   10  C4  UNL     1      23.942  11.207  23.828  1.00  0.00     0.216 C 
BRANCH  10  11
HETATM   11  C3  UNL     1      24.486  12.518  24.173  1.00  0.00     0.268 C 
HETATM   12  O2  UNL     1      23.715  13.470  24.478  1.00  0.00    -0.265 OA
BRANCH  11  13
HETATM   13  O1  UNL     1      25.845  12.755  24.177  1.00  0.00    -0.321 OA
BRANCH  13  14
HETATM   14  C2  UNL     1      26.654  12.701  25.327  1.00  0.00     0.174 C 
HETATM   15  C1  UNL     1      28.045  12.303  24.911  1.00  0.00     0.034 C 
ENDBRANCH  13  14
ENDBRANCH  11  13
ENDBRANCH  10  11
ENDBRANCH   7  10
ENDBRANCH   6   7
BRANCH   6  16
HETATM   16  C6  UNL     1      23.926   9.757  20.172  1.00  0.00     0.040 C 
BRANCH  16  17
HETATM   17  C7  UNL     1      24.582   8.554  19.707  1.00  0.00    -0.020 C 
HETATM   18  C8  UNL     1      24.283   8.497  18.169  1.00  0.00     0.009 C 
HETATM   19  C9  UNL     1      24.279   7.213  20.194  1.00  0.00     0.009 C 
ENDBRANCH  16  17
ENDBRANCH   6  16
ENDBRANCH   3   6
ENDBRANCH   1   2
BRANCH   1  20
HETATM   20  N2  UNL     1      19.468   6.963  20.860  1.00  0.00    -0.346 N 
HETATM   21  C12 UNL     1      19.057   6.786  19.522  1.00  0.00     0.241 C 
HETATM   22  O6  UNL     1      18.715   7.817  18.881  1.00  0.00    -0.271 OA
ATOM     23  H2  UNL     1      19.753   6.141  21.392  1.00  0.00     0.163 HD
BRANCH  21  24
HETATM   24  C13 UNL     1      19.031   5.417  18.894  1.00  0.00     0.180 C 
BRANCH  24  25
HETATM   25  N3  UNL     1      17.782   5.096  18.296  1.00  0.00    -0.347 N 
HETATM   26  C14 UNL     1      16.961   4.043  18.768  1.00  0.00     0.218 C 
HETATM   27  O7  UNL     1      17.375   3.384  19.763  1.00  0.00    -0.274 OA
ATOM     28  H3  UNL     1      17.465   5.645  17.498  1.00  0.00     0.163 HD
BRANCH  26  29
HETATM   29  C15 UNL     1      15.650   3.729  18.097  1.00  0.00     0.106 C 
BRANCH  29  30
HETATM   30  C16 UNL     1      14.646   4.815  18.407  1.00  0.00    -0.014 C 
HETATM   31  C17 UNL     1      13.439   4.635  17.531  1.00  0.00     0.010 C 
HETATM   32  C18 UNL     1      14.216   4.826  19.843  1.00  0.00     0.010 C 
ENDBRANCH  29  30
ENDBRANCH  26  29
ENDBRANCH  24  25
BRANCH  24  33
HETATM   33  C19 UNL     1      20.214   5.314  17.974  1.00  0.00     0.009 C 
HETATM   34  C20 UNL     1      19.872   5.266  16.515  1.00  0.00     0.012 C 
HETATM   35  C21 UNL     1      20.988   4.034  18.285  1.00  0.00     0.012 C 
ENDBRANCH  24  33
ENDBRANCH  21  24
ENDBRANCH   1  20
BRANCH   1  36
HETATM   36  C22 UNL     1      18.776   8.090  22.811  1.00  0.00     0.009 C 
HETATM   37  C23 UNL     1      17.568   7.234  22.798  1.00  0.00     0.012 C 
HETATM   38  C24 UNL     1      18.525   9.458  23.411  1.00  0.00     0.012 C 
ENDBRANCH   1  36
TORSDOF 16
ENDMDL
