MODEL 10
REMARK VINA RESULT: -8.703588941      2.199      4.446
REMARK  18 active torsions:
REMARK  status: ('A' for Active; 'I' for Inactive)
REMARK    1  A    between atoms: O1_2  and  C2_3 
REMARK    2  A    between atoms: C2_3  and  C3_5 
REMARK    3  A    between atoms: C3_5  and  C4_6 
REMARK    4  A    between atoms: C3_5  and  O3_13 
REMARK    5  A    between atoms: C4_6  and  C5_7 
REMARK    6  A    between atoms: O3_13  and  P1_14 
REMARK    7  A    between atoms: P1_14  and  C11_17 
REMARK    8  A    between atoms: C11_17  and  C12_18 
REMARK    9  A    between atoms: C11_17  and  N1_22 
REMARK   10  A    between atoms: C12_18  and  C13_19 
REMARK       I    between atoms: N1_22  and  C16_24 
REMARK   11  A    between atoms: C16_24  and  C17_26 
REMARK   12  A    between atoms: C17_26  and  N2_27 
REMARK   13  A    between atoms: C17_26  and  C28_43 
REMARK       I    between atoms: N2_27  and  C18_29 
REMARK   14  A    between atoms: C18_29  and  C19_31 
REMARK   15  A    between atoms: C19_31  and  N3_32 
REMARK   16  A    between atoms: C19_31  and  C25_40 
REMARK       I    between atoms: N3_32  and  C20_34 
REMARK   17  A    between atoms: C20_34  and  C21_36 
REMARK   18  A    between atoms: C21_36  and  C22_37 
ROOT
HETATM    1  N1  UNL     1      20.298   9.640  22.096  1.00  0.00    -0.343 N 
ATOM      2  H1  UNL     1      20.226  10.185  21.238  1.00  0.00     0.163 HD
HETATM    3  C16 UNL     1      19.606   8.410  22.176  1.00  0.00     0.241 C 
HETATM    4  O6  UNL     1      19.761   7.790  23.270  1.00  0.00    -0.271 OA
ENDROOT
BRANCH   1   5
HETATM    5  C11 UNL     1      21.129  10.176  23.210  1.00  0.00     0.205 C 
BRANCH   5   6
HETATM    6  P1  UNL     1      20.259  11.353  24.111  1.00  0.00     0.273 P 
HETATM    7  O4  UNL     1      19.447  10.324  24.959  1.00  0.00    -0.645 OA
HETATM    8  O5  UNL     1      18.731  11.835  23.492  1.00  0.00    -0.645 OA
BRANCH   6   9
HETATM    9  O3  UNL     1      20.822  12.028  25.485  1.00  0.00    -0.295 OA
BRANCH   9  10
HETATM   10  C3  UNL     1      20.506  13.316  25.795  1.00  0.00     0.236 C 
BRANCH  10  11
HETATM   11  C2  UNL     1      21.724  14.136  25.659  1.00  0.00     0.288 C 
HETATM   12  O2  UNL     1      21.882  15.221  26.307  1.00  0.00    -0.262 OA
BRANCH  11  13
HETATM   13  O1  UNL     1      22.765  13.784  24.826  1.00  0.00    -0.324 OA
HETATM   14  C1  UNL     1      24.076  13.549  25.305  1.00  0.00     0.213 C 
ENDBRANCH  11  13
ENDBRANCH  10  11
BRANCH  10  15
HETATM   15  C4  UNL     1      19.876  13.473  27.158  1.00  0.00     0.081 C 
BRANCH  15  16
HETATM   16  C5  UNL     1      19.414  12.220  27.766  1.00  0.00    -0.055 A 
HETATM   17  C6  UNL     1      20.296  11.464  28.496  1.00  0.00     0.007 A 
HETATM   18  C7  UNL     1      19.913  10.273  29.094  1.00  0.00     0.001 A 
HETATM   19  C8  UNL     1      18.620   9.831  28.956  1.00  0.00     0.000 A 
HETATM   20  C9  UNL     1      17.706  10.562  28.230  1.00  0.00     0.001 A 
HETATM   21  C10 UNL     1      18.119  11.750  27.643  1.00  0.00     0.007 A 
ENDBRANCH  15  16
ENDBRANCH  10  15
ENDBRANCH   9  10
ENDBRANCH   6   9
ENDBRANCH   5   6
BRANCH   5  22
HETATM   22  C12 UNL     1      22.464  10.355  22.617  1.00  0.00     0.042 C 
BRANCH  22  23
HETATM   23  C13 UNL     1      22.698  11.229  21.466  1.00  0.00    -0.020 C 
HETATM   24  C14 UNL     1      23.446  12.500  21.707  1.00  0.00     0.009 C 
HETATM   25  C15 UNL     1      23.555  10.415  20.466  1.00  0.00     0.009 C 
ENDBRANCH  22  23
ENDBRANCH   5  22
ENDBRANCH   1   5
BRANCH   3  26
HETATM   26  C17 UNL     1      18.771   7.874  21.078  1.00  0.00     0.180 C 
BRANCH  26  27
HETATM   27  N2  UNL     1      19.443   6.780  20.358  1.00  0.00    -0.346 N 
HETATM   28  C18 UNL     1      19.477   6.759  18.935  1.00  0.00     0.241 C 
HETATM   29  O7  UNL     1      18.882   7.748  18.378  1.00  0.00    -0.271 OA
ATOM     30  H2  UNL     1      19.890   6.029  20.884  1.00  0.00     0.163 HD
BRANCH  28  31
HETATM   31  C19 UNL     1      20.121   5.718  18.105  1.00  0.00     0.180 C 
BRANCH  31  32
HETATM   32  N3  UNL     1      21.497   5.585  18.575  1.00  0.00    -0.347 N 
HETATM   33  C20 UNL     1      22.554   6.221  17.893  1.00  0.00     0.218 C 
HETATM   34  O8  UNL     1      22.323   6.900  16.866  1.00  0.00    -0.274 OA
ATOM     35  H3  UNL     1      21.696   5.027  19.405  1.00  0.00     0.163 HD
BRANCH  33  36
HETATM   36  C21 UNL     1      23.939   6.099  18.377  1.00  0.00     0.106 C 
BRANCH  36  37
HETATM   37  C22 UNL     1      24.335   7.165  19.375  1.00  0.00    -0.014 C 
HETATM   38  C23 UNL     1      23.901   6.751  20.769  1.00  0.00     0.010 C 
HETATM   39  C24 UNL     1      25.832   7.377  19.425  1.00  0.00     0.010 C 
ENDBRANCH  36  37
ENDBRANCH  33  36
ENDBRANCH  31  32
BRANCH  31  40
HETATM   40  C25 UNL     1      19.476   4.359  18.184  1.00  0.00     0.009 C 
HETATM   41  C26 UNL     1      17.984   4.371  18.156  1.00  0.00     0.012 C 
HETATM   42  C27 UNL     1      20.130   3.385  17.261  1.00  0.00     0.012 C 
ENDBRANCH  31  40
ENDBRANCH  28  31
ENDBRANCH  26  27
BRANCH  26  43
HETATM   43  C28 UNL     1      17.403   7.407  21.536  1.00  0.00     0.009 C 
HETATM   44  C29 UNL     1      16.284   7.805  20.632  1.00  0.00     0.012 C 
HETATM   45  C30 UNL     1      17.305   5.930  21.788  1.00  0.00     0.012 C 
ENDBRANCH  26  43
ENDBRANCH   3  26
TORSDOF 18
ENDMDL
