MODEL 5
REMARK VINA RESULT: -8.877454261      1.506      2.080
REMARK  18 active torsions:
REMARK  status: ('A' for Active; 'I' for Inactive)
REMARK    1  A    between atoms: O1_2  and  C2_3 
REMARK    2  A    between atoms: C2_3  and  C3_5 
REMARK    3  A    between atoms: C3_5  and  C4_6 
REMARK    4  A    between atoms: C3_5  and  O3_13 
REMARK    5  A    between atoms: C4_6  and  C5_7 
REMARK    6  A    between atoms: O3_13  and  P1_14 
REMARK    7  A    between atoms: P1_14  and  C11_17 
REMARK    8  A    between atoms: C11_17  and  C12_18 
REMARK    9  A    between atoms: C11_17  and  N1_22 
REMARK   10  A    between atoms: C12_18  and  C13_19 
REMARK       I    between atoms: N1_22  and  C16_24 
REMARK   11  A    between atoms: C16_24  and  C17_26 
REMARK   12  A    between atoms: C17_26  and  N2_27 
REMARK   13  A    between atoms: C17_26  and  C28_43 
REMARK       I    between atoms: N2_27  and  C18_29 
REMARK   14  A    between atoms: C18_29  and  C19_31 
REMARK   15  A    between atoms: C19_31  and  N3_32 
REMARK   16  A    between atoms: C19_31  and  C25_40 
REMARK       I    between atoms: N3_32  and  C20_34 
REMARK   17  A    between atoms: C20_34  and  C21_36 
REMARK   18  A    between atoms: C21_36  and  C22_37 
ROOT
HETATM    1  N1  UNL     1      21.673   9.933  21.681  1.00  0.00    -0.343 N 
ATOM      2  H1  UNL     1      21.075  10.578  21.166  1.00  0.00     0.163 HD
HETATM    3  C16 UNL     1      21.078   8.812  22.303  1.00  0.00     0.241 C 
HETATM    4  O6  UNL     1      21.891   8.054  22.910  1.00  0.00    -0.271 OA
ENDROOT
BRANCH   1   5
HETATM    5  C11 UNL     1      23.134  10.214  21.744  1.00  0.00     0.205 C 
BRANCH   5   6
HETATM    6  P1  UNL     1      23.466  11.484  22.853  1.00  0.00     0.273 P 
HETATM    7  O4  UNL     1      21.977  11.728  23.252  1.00  0.00    -0.645 OA
HETATM    8  O5  UNL     1      23.419  13.087  22.239  1.00  0.00    -0.645 OA
BRANCH   6   9
HETATM    9  O3  UNL     1      23.836  11.232  24.422  1.00  0.00    -0.295 OA
BRANCH   9  10
HETATM   10  C3  UNL     1      24.059  12.288  25.251  1.00  0.00     0.236 C 
BRANCH  10  11
HETATM   11  C2  UNL     1      25.503  12.585  25.243  1.00  0.00     0.288 C 
HETATM   12  O2  UNL     1      26.379  11.675  25.077  1.00  0.00    -0.262 OA
BRANCH  11  13
HETATM   13  O1  UNL     1      25.998  13.862  25.411  1.00  0.00    -0.324 OA
HETATM   14  C1  UNL     1      27.349  14.115  25.751  1.00  0.00     0.213 C 
ENDBRANCH  11  13
ENDBRANCH  10  11
BRANCH  10  15
HETATM   15  C4  UNL     1      23.541  12.077  26.653  1.00  0.00     0.081 C 
BRANCH  15  16
HETATM   16  C5  UNL     1      22.174  12.561  26.878  1.00  0.00    -0.055 A 
HETATM   17  C6  UNL     1      21.407  11.974  27.852  1.00  0.00     0.007 A 
HETATM   18  C7  UNL     1      20.110  12.392  28.109  1.00  0.00     0.001 A 
HETATM   19  C8  UNL     1      19.572  13.420  27.374  1.00  0.00     0.000 A 
HETATM   20  C9  UNL     1      20.311  14.035  26.388  1.00  0.00     0.001 A 
HETATM   21  C10 UNL     1      21.606  13.593  26.154  1.00  0.00     0.007 A 
ENDBRANCH  15  16
ENDBRANCH  10  15
ENDBRANCH   9  10
ENDBRANCH   6   9
ENDBRANCH   5   6
BRANCH   5  22
HETATM   22  C12 UNL     1      23.578  10.152  20.342  1.00  0.00     0.042 C 
BRANCH  22  23
HETATM   23  C13 UNL     1      24.439   9.079  19.840  1.00  0.00    -0.020 C 
HETATM   24  C14 UNL     1      24.093   7.679  20.233  1.00  0.00     0.009 C 
HETATM   25  C15 UNL     1      24.338   9.124  18.296  1.00  0.00     0.009 C 
ENDBRANCH  22  23
ENDBRANCH   5  22
ENDBRANCH   1   5
BRANCH   3  26
HETATM   26  C17 UNL     1      19.626   8.530  22.254  1.00  0.00     0.180 C 
BRANCH  26  27
HETATM   27  N2  UNL     1      19.337   7.235  21.614  1.00  0.00    -0.346 N 
HETATM   28  C18 UNL     1      18.833   7.179  20.285  1.00  0.00     0.241 C 
HETATM   29  O7  UNL     1      18.662   8.324  19.735  1.00  0.00    -0.271 OA
ATOM     30  H2  UNL     1      19.501   6.371  22.129  1.00  0.00     0.163 HD
BRANCH  28  31
HETATM   31  C19 UNL     1      18.509   5.943  19.539  1.00  0.00     0.180 C 
BRANCH  31  32
HETATM   32  N3  UNL     1      17.155   6.099  19.017  1.00  0.00    -0.347 N 
HETATM   33  C20 UNL     1      16.086   5.357  19.558  1.00  0.00     0.218 C 
HETATM   34  O8  UNL     1      16.291   4.544  20.490  1.00  0.00    -0.274 OA
ATOM     35  H3  UNL     1      16.979   6.752  18.253  1.00  0.00     0.163 HD
BRANCH  33  36
HETATM   36  C21 UNL     1      14.718   5.527  19.042  1.00  0.00     0.106 C 
BRANCH  36  37
HETATM   37  C22 UNL     1      14.239   4.377  18.184  1.00  0.00    -0.014 C 
HETATM   38  C23 UNL     1      12.977   4.779  17.442  1.00  0.00     0.010 C 
HETATM   39  C24 UNL     1      15.256   3.977  17.139  1.00  0.00     0.010 C 
ENDBRANCH  36  37
ENDBRANCH  33  36
ENDBRANCH  31  32
BRANCH  31  40
HETATM   40  C25 UNL     1      19.420   5.653  18.374  1.00  0.00     0.009 C 
HETATM   41  C26 UNL     1      20.868   5.905  18.632  1.00  0.00     0.012 C 
HETATM   42  C27 UNL     1      19.097   4.343  17.737  1.00  0.00     0.012 C 
ENDBRANCH  31  40
ENDBRANCH  28  31
ENDBRANCH  26  27
BRANCH  26  43
HETATM   43  C28 UNL     1      18.957   8.577  23.614  1.00  0.00     0.009 C 
HETATM   44  C29 UNL     1      18.920   9.934  24.234  1.00  0.00     0.012 C 
HETATM   45  C30 UNL     1      17.570   8.005  23.643  1.00  0.00     0.012 C 
ENDBRANCH  26  43
ENDBRANCH   3  26
TORSDOF 18
ENDMDL
