MODEL 4
REMARK VINA RESULT: -8.918078781      2.991      6.229
REMARK  18 active torsions:
REMARK  status: ('A' for Active; 'I' for Inactive)
REMARK    1  A    between atoms: O1_2  and  C2_3 
REMARK    2  A    between atoms: C2_3  and  C3_5 
REMARK    3  A    between atoms: C3_5  and  C4_6 
REMARK    4  A    between atoms: C3_5  and  O3_13 
REMARK    5  A    between atoms: C4_6  and  C5_7 
REMARK    6  A    between atoms: O3_13  and  P1_14 
REMARK    7  A    between atoms: P1_14  and  C11_17 
REMARK    8  A    between atoms: C11_17  and  C12_18 
REMARK    9  A    between atoms: C11_17  and  N1_22 
REMARK   10  A    between atoms: C12_18  and  C13_19 
REMARK       I    between atoms: N1_22  and  C16_24 
REMARK   11  A    between atoms: C16_24  and  C17_26 
REMARK   12  A    between atoms: C17_26  and  N2_27 
REMARK   13  A    between atoms: C17_26  and  C28_43 
REMARK       I    between atoms: N2_27  and  C18_29 
REMARK   14  A    between atoms: C18_29  and  C19_31 
REMARK   15  A    between atoms: C19_31  and  N3_32 
REMARK   16  A    between atoms: C19_31  and  C25_40 
REMARK       I    between atoms: N3_32  and  C20_34 
REMARK   17  A    between atoms: C20_34  and  C21_36 
REMARK   18  A    between atoms: C21_36  and  C22_37 
ROOT
HETATM    1  N1  UNL     1      18.836   6.642  20.899  1.00  0.00    -0.343 N 
ATOM      2  H1  UNL     1      19.161   5.883  21.497  1.00  0.00     0.163 HD
HETATM    3  C16 UNL     1      19.038   6.537  19.505  1.00  0.00     0.241 C 
HETATM    4  O6  UNL     1      18.593   7.516  18.834  1.00  0.00    -0.271 OA
ENDROOT
BRANCH   1   5
HETATM    5  C11 UNL     1      18.169   7.812  21.536  1.00  0.00     0.205 C 
BRANCH   5   6
HETATM    6  P1  UNL     1      19.258   8.651  22.568  1.00  0.00     0.273 P 
HETATM    7  O4  UNL     1      18.744   7.998  23.890  1.00  0.00    -0.645 OA
HETATM    8  O5  UNL     1      18.704  10.128  23.248  1.00  0.00    -0.645 OA
BRANCH   6   9
HETATM    9  O3  UNL     1      20.765   8.124  22.902  1.00  0.00    -0.295 OA
BRANCH   9  10
HETATM   10  C3  UNL     1      21.822   8.558  22.163  1.00  0.00     0.236 C 
BRANCH  10  11
HETATM   11  C2  UNL     1      21.991  10.003  22.403  1.00  0.00     0.288 C 
HETATM   12  O2  UNL     1      22.264  10.468  23.557  1.00  0.00    -0.262 OA
BRANCH  11  13
HETATM   13  O1  UNL     1      21.867  10.940  21.399  1.00  0.00    -0.324 OA
HETATM   14  C1  UNL     1      22.948  11.752  20.979  1.00  0.00     0.213 C 
ENDBRANCH  11  13
ENDBRANCH  10  11
BRANCH  10  15
HETATM   15  C4  UNL     1      21.701   8.246  20.692  1.00  0.00     0.081 C 
BRANCH  15  16
HETATM   16  C5  UNL     1      22.962   7.872  20.041  1.00  0.00    -0.055 A 
HETATM   17  C6  UNL     1      23.763   6.925  20.626  1.00  0.00     0.007 A 
HETATM   18  C7  UNL     1      24.963   6.532  20.054  1.00  0.00     0.001 A 
HETATM   19  C8  UNL     1      25.369   7.100  18.872  1.00  0.00     0.000 A 
HETATM   20  C9  UNL     1      24.591   8.054  18.254  1.00  0.00     0.001 A 
HETATM   21  C10 UNL     1      23.395   8.427  18.850  1.00  0.00     0.007 A 
ENDBRANCH  15  16
ENDBRANCH  10  15
ENDBRANCH   9  10
ENDBRANCH   6   9
ENDBRANCH   5   6
BRANCH   5  22
HETATM   22  C12 UNL     1      16.835   7.314  21.909  1.00  0.00     0.042 C 
BRANCH  22  23
HETATM   23  C13 UNL     1      15.625   7.693  21.177  1.00  0.00    -0.020 C 
HETATM   24  C14 UNL     1      15.352   6.991  19.886  1.00  0.00     0.009 C 
HETATM   25  C15 UNL     1      14.431   7.360  22.103  1.00  0.00     0.009 C 
ENDBRANCH  22  23
ENDBRANCH   5  22
ENDBRANCH   1   5
BRANCH   3  26
HETATM   26  C17 UNL     1      19.708   5.384  18.864  1.00  0.00     0.180 C 
BRANCH  26  27
HETATM   27  N2  UNL     1      18.744   4.364  18.419  1.00  0.00    -0.346 N 
HETATM   28  C18 UNL     1      18.678   3.096  19.063  1.00  0.00     0.241 C 
HETATM   29  O7  UNL     1      19.514   2.948  20.024  1.00  0.00    -0.271 OA
ATOM     30  H2  UNL     1      18.117   4.567  17.642  1.00  0.00     0.163 HD
BRANCH  28  31
HETATM   31  C19 UNL     1      17.754   1.997  18.709  1.00  0.00     0.180 C 
BRANCH  31  32
HETATM   32  N3  UNL     1      16.460   2.605  18.409  1.00  0.00    -0.347 N 
HETATM   33  C20 UNL     1      15.415   2.574  19.352  1.00  0.00     0.218 C 
HETATM   34  O8  UNL     1      15.583   2.012  20.460  1.00  0.00    -0.274 OA
ATOM     35  H3  UNL     1      16.311   3.057  17.506  1.00  0.00     0.163 HD
BRANCH  33  36
HETATM   36  C21 UNL     1      14.117   3.201  19.055  1.00  0.00     0.106 C 
BRANCH  36  37
HETATM   37  C22 UNL     1      13.932   3.566  17.599  1.00  0.00    -0.014 C 
HETATM   38  C23 UNL     1      13.188   2.454  16.881  1.00  0.00     0.010 C 
HETATM   39  C24 UNL     1      13.116   4.827  17.422  1.00  0.00     0.010 C 
ENDBRANCH  36  37
ENDBRANCH  33  36
ENDBRANCH  31  32
BRANCH  31  40
HETATM   40  C25 UNL     1      18.170   1.186  17.509  1.00  0.00     0.009 C 
HETATM   41  C26 UNL     1      19.597   0.753  17.510  1.00  0.00     0.012 C 
HETATM   42  C27 UNL     1      17.173   0.121  17.193  1.00  0.00     0.012 C 
ENDBRANCH  31  40
ENDBRANCH  28  31
ENDBRANCH  26  27
BRANCH  26  43
HETATM   43  C28 UNL     1      20.597   5.775  17.700  1.00  0.00     0.009 C 
HETATM   44  C29 UNL     1      21.963   5.175  17.742  1.00  0.00     0.012 C 
HETATM   45  C30 UNL     1      20.003   5.504  16.348  1.00  0.00     0.012 C 
ENDBRANCH  26  43
ENDBRANCH   3  26
TORSDOF 18
ENDMDL
