MODEL 8
REMARK VINA RESULT: -8.784782269      2.707     10.049
REMARK  18 active torsions:
REMARK  status: ('A' for Active; 'I' for Inactive)
REMARK    1  A    between atoms: O1_2  and  C2_3 
REMARK    2  A    between atoms: C2_3  and  C3_5 
REMARK    3  A    between atoms: C3_5  and  C4_6 
REMARK    4  A    between atoms: C3_5  and  O3_13 
REMARK    5  A    between atoms: C4_6  and  C5_7 
REMARK    6  A    between atoms: O3_13  and  P1_14 
REMARK    7  A    between atoms: P1_14  and  C11_17 
REMARK    8  A    between atoms: C11_17  and  C12_18 
REMARK    9  A    between atoms: C11_17  and  N1_22 
REMARK   10  A    between atoms: C12_18  and  C13_19 
REMARK       I    between atoms: N1_22  and  C16_24 
REMARK   11  A    between atoms: C16_24  and  C17_26 
REMARK   12  A    between atoms: C17_26  and  N2_27 
REMARK   13  A    between atoms: C17_26  and  C28_43 
REMARK       I    between atoms: N2_27  and  C18_29 
REMARK   14  A    between atoms: C18_29  and  C19_31 
REMARK   15  A    between atoms: C19_31  and  N3_32 
REMARK   16  A    between atoms: C19_31  and  C25_40 
REMARK       I    between atoms: N3_32  and  C20_34 
REMARK   17  A    between atoms: C20_34  and  C21_36 
REMARK   18  A    between atoms: C21_36  and  C22_37 
ROOT
HETATM    1  N1  UNL     1      19.385   8.827  21.316  1.00  0.00    -0.343 N 
ATOM      2  H1  UNL     1      19.095   9.534  20.641  1.00  0.00     0.163 HD
HETATM    3  C16 UNL     1      20.480   9.112  22.162  1.00  0.00     0.241 C 
HETATM    4  O6  UNL     1      20.766   8.187  22.980  1.00  0.00    -0.271 OA
ENDROOT
BRANCH   1   5
HETATM    5  C11 UNL     1      18.635   7.541  21.366  1.00  0.00     0.205 C 
BRANCH   5   6
HETATM    6  P1  UNL     1      18.571   6.809  19.812  1.00  0.00     0.273 P 
HETATM    7  O4  UNL     1      17.157   7.362  19.445  1.00  0.00    -0.645 OA
HETATM    8  O5  UNL     1      17.836   5.260  19.711  1.00  0.00    -0.645 OA
BRANCH   6   9
HETATM    9  O3  UNL     1      19.182   7.501  18.467  1.00  0.00    -0.295 OA
BRANCH   9  10
HETATM   10  C3  UNL     1      20.427   7.168  18.030  1.00  0.00     0.236 C 
BRANCH  10  11
HETATM   11  C2  UNL     1      20.288   6.374  16.797  1.00  0.00     0.288 C 
HETATM   12  O2  UNL     1      21.002   6.597  15.765  1.00  0.00    -0.262 OA
BRANCH  11  13
HETATM   13  O1  UNL     1      19.380   5.342  16.678  1.00  0.00    -0.324 OA
HETATM   14  C1  UNL     1      19.695   4.007  17.030  1.00  0.00     0.213 C 
ENDBRANCH  11  13
ENDBRANCH  10  11
BRANCH  10  15
HETATM   15  C4  UNL     1      21.260   6.452  19.065  1.00  0.00     0.081 C 
BRANCH  15  16
HETATM   16  C5  UNL     1      22.672   6.850  19.095  1.00  0.00    -0.055 A 
HETATM   17  C6  UNL     1      23.502   6.306  20.042  1.00  0.00     0.007 A 
HETATM   18  C7  UNL     1      24.844   6.644  20.116  1.00  0.00     0.001 A 
HETATM   19  C8  UNL     1      25.365   7.547  19.222  1.00  0.00     0.000 A 
HETATM   20  C9  UNL     1      24.564   8.114  18.256  1.00  0.00     0.001 A 
HETATM   21  C10 UNL     1      23.224   7.756  18.208  1.00  0.00     0.007 A 
ENDBRANCH  15  16
ENDBRANCH  10  15
ENDBRANCH   9  10
ENDBRANCH   6   9
ENDBRANCH   5   6
BRANCH   5  22
HETATM   22  C12 UNL     1      17.483   7.824  22.236  1.00  0.00     0.042 C 
BRANCH  22  23
HETATM   23  C13 UNL     1      17.314   7.186  23.544  1.00  0.00    -0.020 C 
HETATM   24  C14 UNL     1      17.779   7.944  24.745  1.00  0.00     0.009 C 
HETATM   25  C15 UNL     1      15.793   6.977  23.736  1.00  0.00     0.009 C 
ENDBRANCH  22  23
ENDBRANCH   5  22
ENDBRANCH   1   5
BRANCH   3  26
HETATM   26  C17 UNL     1      21.238  10.382  22.114  1.00  0.00     0.180 C 
BRANCH  26  27
HETATM   27  N2  UNL     1      21.699  10.800  23.449  1.00  0.00    -0.346 N 
HETATM   28  C18 UNL     1      20.970  11.763  24.201  1.00  0.00     0.241 C 
HETATM   29  O7  UNL     1      19.921  12.208  23.614  1.00  0.00    -0.271 OA
ATOM     30  H2  UNL     1      22.549  10.394  23.839  1.00  0.00     0.163 HD
BRANCH  28  31
HETATM   31  C19 UNL     1      21.332  12.257  25.547  1.00  0.00     0.180 C 
BRANCH  31  32
HETATM   32  N3  UNL     1      22.569  13.020  25.407  1.00  0.00    -0.347 N 
HETATM   33  C20 UNL     1      23.761  12.573  26.008  1.00  0.00     0.218 C 
HETATM   34  O8  UNL     1      23.770  11.516  26.682  1.00  0.00    -0.274 OA
ATOM     35  H3  UNL     1      22.570  13.886  24.867  1.00  0.00     0.163 HD
BRANCH  33  36
HETATM   36  C21 UNL     1      25.012  13.335  25.852  1.00  0.00     0.106 C 
BRANCH  36  37
HETATM   37  C22 UNL     1      26.092  12.591  25.098  1.00  0.00    -0.014 C 
HETATM   38  C23 UNL     1      25.628  12.308  23.681  1.00  0.00     0.010 C 
HETATM   39  C24 UNL     1      27.371  13.391  24.990  1.00  0.00     0.010 C 
ENDBRANCH  36  37
ENDBRANCH  33  36
ENDBRANCH  31  32
BRANCH  31  40
HETATM   40  C25 UNL     1      20.306  13.159  26.184  1.00  0.00     0.009 C 
HETATM   41  C26 UNL     1      19.845  12.727  27.536  1.00  0.00     0.012 C 
HETATM   42  C27 UNL     1      20.686  14.597  26.061  1.00  0.00     0.012 C 
ENDBRANCH  31  40
ENDBRANCH  28  31
ENDBRANCH  26  27
BRANCH  26  43
HETATM   43  C28 UNL     1      22.419  10.343  21.165  1.00  0.00     0.009 C 
HETATM   44  C29 UNL     1      22.872  11.684  20.692  1.00  0.00     0.012 C 
HETATM   45  C30 UNL     1      23.612   9.599  21.691  1.00  0.00     0.012 C 
ENDBRANCH  26  43
ENDBRANCH   3  26
TORSDOF 18
ENDMDL
