MODEL 1
REMARK VINA RESULT: -9.208536701      0.000      0.000
REMARK  18 active torsions:
REMARK  status: ('A' for Active; 'I' for Inactive)
REMARK    1  A    between atoms: O1_2  and  C2_3 
REMARK    2  A    between atoms: C2_3  and  C3_5 
REMARK    3  A    between atoms: C3_5  and  C4_6 
REMARK    4  A    between atoms: C3_5  and  O3_13 
REMARK    5  A    between atoms: C4_6  and  C5_7 
REMARK    6  A    between atoms: O3_13  and  P1_14 
REMARK    7  A    between atoms: P1_14  and  C11_17 
REMARK    8  A    between atoms: C11_17  and  C12_18 
REMARK    9  A    between atoms: C11_17  and  N1_22 
REMARK   10  A    between atoms: C12_18  and  C13_19 
REMARK       I    between atoms: N1_22  and  C16_24 
REMARK   11  A    between atoms: C16_24  and  C17_26 
REMARK   12  A    between atoms: C17_26  and  N2_27 
REMARK   13  A    between atoms: C17_26  and  C28_43 
REMARK       I    between atoms: N2_27  and  C18_29 
REMARK   14  A    between atoms: C18_29  and  C19_31 
REMARK   15  A    between atoms: C19_31  and  N3_32 
REMARK   16  A    between atoms: C19_31  and  C25_40 
REMARK       I    between atoms: N3_32  and  C20_34 
REMARK   17  A    between atoms: C20_34  and  C21_36 
REMARK   18  A    between atoms: C21_36  and  C22_37 
ROOT
HETATM    1  N1  UNL     1      21.667   9.266  20.904  1.00  0.00    -0.343 N 
ATOM      2  H1  UNL     1      21.262   9.650  20.051  1.00  0.00     0.163 HD
HETATM    3  C16 UNL     1      20.874   8.411  21.702  1.00  0.00     0.241 C 
HETATM    4  O6  UNL     1      21.457   7.966  22.735  1.00  0.00    -0.271 OA
ENDROOT
BRANCH   1   5
HETATM    5  C11 UNL     1      23.068   9.631  21.253  1.00  0.00     0.205 C 
BRANCH   5   6
HETATM    6  P1  UNL     1      23.114  11.087  22.165  1.00  0.00     0.273 P 
HETATM    7  O4  UNL     1      22.276  11.926  21.148  1.00  0.00    -0.645 OA
HETATM    8  O5  UNL     1      24.384  12.187  21.812  1.00  0.00    -0.645 OA
BRANCH   6   9
HETATM    9  O3  UNL     1      22.037  11.446  23.336  1.00  0.00    -0.295 OA
BRANCH   9  10
HETATM   10  C3  UNL     1      21.931  12.721  23.802  1.00  0.00     0.236 C 
BRANCH  10  11
HETATM   11  C2  UNL     1      22.852  12.875  24.942  1.00  0.00     0.288 C 
HETATM   12  O2  UNL     1      23.406  13.989  25.217  1.00  0.00    -0.262 OA
BRANCH  11  13
HETATM   13  O1  UNL     1      23.173  11.829  25.782  1.00  0.00    -0.324 OA
HETATM   14  C1  UNL     1      23.451  12.016  27.158  1.00  0.00     0.213 C 
ENDBRANCH  11  13
ENDBRANCH  10  11
BRANCH  10  15
HETATM   15  C4  UNL     1      20.521  13.117  24.165  1.00  0.00     0.081 C 
BRANCH  15  16
HETATM   16  C5  UNL     1      20.107  12.731  25.518  1.00  0.00    -0.055 A 
HETATM   17  C6  UNL     1      20.171  13.656  26.529  1.00  0.00     0.007 A 
HETATM   18  C7  UNL     1      19.792  13.346  27.826  1.00  0.00     0.001 A 
HETATM   19  C8  UNL     1      19.338  12.083  28.115  1.00  0.00     0.000 A 
HETATM   20  C9  UNL     1      19.259  11.127  27.127  1.00  0.00     0.001 A 
HETATM   21  C10 UNL     1      19.646  11.466  25.839  1.00  0.00     0.007 A 
ENDBRANCH  15  16
ENDBRANCH  10  15
ENDBRANCH   9  10
ENDBRANCH   6   9
ENDBRANCH   5   6
BRANCH   5  22
HETATM   22  C12 UNL     1      23.833   9.355  20.026  1.00  0.00     0.042 C 
BRANCH  22  23
HETATM   23  C13 UNL     1      24.606   8.125  19.844  1.00  0.00    -0.020 C 
HETATM   24  C14 UNL     1      24.126   6.899  20.553  1.00  0.00     0.009 C 
HETATM   25  C15 UNL     1      24.551   7.792  18.334  1.00  0.00     0.009 C 
ENDBRANCH  22  23
ENDBRANCH   5  22
ENDBRANCH   1   5
BRANCH   3  26
HETATM   26  C17 UNL     1      19.478   8.050  21.370  1.00  0.00     0.180 C 
BRANCH  26  27
HETATM   27  N2  UNL     1      19.376   6.688  20.819  1.00  0.00    -0.346 N 
HETATM   28  C18 UNL     1      19.091   6.481  19.441  1.00  0.00     0.241 C 
HETATM   29  O7  UNL     1      18.937   7.559  18.765  1.00  0.00    -0.271 OA
ATOM     30  H2  UNL     1      19.512   5.885  21.432  1.00  0.00     0.163 HD
BRANCH  28  31
HETATM   31  C19 UNL     1      18.968   5.165  18.775  1.00  0.00     0.180 C 
BRANCH  31  32
HETATM   32  N3  UNL     1      17.691   5.160  18.067  1.00  0.00    -0.347 N 
HETATM   33  C20 UNL     1      16.799   4.079  18.202  1.00  0.00     0.218 C 
HETATM   34  O8  UNL     1      17.099   3.101  18.926  1.00  0.00    -0.274 OA
ATOM     35  H3  UNL     1      17.442   5.948  17.469  1.00  0.00     0.163 HD
BRANCH  33  36
HETATM   36  C21 UNL     1      15.505   4.082  17.500  1.00  0.00     0.106 C 
BRANCH  36  37
HETATM   37  C22 UNL     1      14.494   5.043  18.084  1.00  0.00    -0.014 C 
HETATM   38  C23 UNL     1      13.153   4.862  17.394  1.00  0.00     0.010 C 
HETATM   39  C24 UNL     1      14.264   4.808  19.561  1.00  0.00     0.010 C 
ENDBRANCH  36  37
ENDBRANCH  33  36
ENDBRANCH  31  32
BRANCH  31  40
HETATM   40  C25 UNL     1      20.051   4.863  17.773  1.00  0.00     0.009 C 
HETATM   41  C26 UNL     1      19.727   5.240  16.366  1.00  0.00     0.012 C 
HETATM   42  C27 UNL     1      21.392   5.296  18.264  1.00  0.00     0.012 C 
ENDBRANCH  31  40
ENDBRANCH  28  31
ENDBRANCH  26  27
BRANCH  26  43
HETATM   43  C28 UNL     1      18.525   8.190  22.540  1.00  0.00     0.009 C 
HETATM   44  C29 UNL     1      18.555   9.529  23.200  1.00  0.00     0.012 C 
HETATM   45  C30 UNL     1      17.097   7.852  22.221  1.00  0.00     0.012 C 
ENDBRANCH  26  43
ENDBRANCH   3  26
TORSDOF 18
ENDMDL
