MODEL 15
REMARK VINA RESULT: -6.877117204      3.546      6.054
REMARK  5 active torsions:
REMARK  status: ('A' for Active; 'I' for Inactive)
REMARK    1  A    between atoms: N4_12  and  C7_13 
REMARK    2  A    between atoms: C8_15  and  C9_16 
REMARK    3  A    between atoms: C9_16  and  O2_17 
REMARK    4  A    between atoms: C10_19  and  O3_20 
REMARK    5  A    between atoms: C11_22  and  O4_23 
ROOT
HETATM    1  N1  UNL     1      93.707  66.909  20.234  1.00  0.00    -0.082 NA
HETATM    2  C1  UNL     1      92.327  66.677  20.062  1.00  0.00     0.131 A 
HETATM    3  N2  UNL     1      91.619  65.799  20.768  1.00  0.00    -0.340 N 
ATOM      4  H2  UNL     1      92.098  65.252  21.483  1.00  0.00     0.167 HD
HETATM    5  C2  UNL     1      90.295  65.595  20.584  1.00  0.00     0.183 A 
HETATM    6  N3  UNL     1      89.693  66.323  19.642  1.00  0.00    -0.338 N 
ATOM      7  H3  UNL     1      88.695  66.179  19.492  1.00  0.00     0.168 HD
HETATM    8  C3  UNL     1      90.321  67.234  18.875  1.00  0.00     0.124 A 
HETATM    9  C4  UNL     1      91.667  67.416  19.090  1.00  0.00     0.051 A 
HETATM   10  C5  UNL     1      92.064  68.389  18.191  1.00  0.00     0.036 A 
HETATM   11  C6  UNL     1      90.962  68.766  17.465  1.00  0.00     0.096 A 
HETATM   12  N4  UNL     1      89.900  68.063  17.881  1.00  0.00    -0.312 N 
ENDROOT
BRANCH  12  13
HETATM   13  C7  UNL     1      88.524  68.101  17.429  1.00  0.00     0.261 C 
HETATM   14  O1  UNL     1      87.754  67.211  18.124  1.00  0.00    -0.353 OA
HETATM   15  C8  UNL     1      86.817  66.659  17.297  1.00  0.00     0.179 C 
HETATM   16  C10 UNL     1      87.001  67.203  15.915  1.00  0.00     0.182 C 
HETATM   17  C11 UNL     1      88.457  67.673  15.981  1.00  0.00     0.198 C 
BRANCH  15  18
HETATM   18  C9  UNL     1      87.050  65.149  17.250  1.00  0.00     0.198 C 
BRANCH  18  19
HETATM   19  O2  UNL     1      87.625  64.726  18.448  1.00  0.00    -0.398 OA
ATOM     20  H2  UNL     1      88.368  64.165  18.265  1.00  0.00     0.209 HD
ENDBRANCH  18  19
ENDBRANCH  15  18
BRANCH  16  21
HETATM   21  O3  UNL     1      86.158  68.305  15.696  1.00  0.00    -0.390 OA
ATOM     22  H3  UNL     1      85.256  68.025  15.591  1.00  0.00     0.210 HD
ENDBRANCH  16  21
BRANCH  17  23
HETATM   23  O4  UNL     1      88.589  68.726  15.096  1.00  0.00    -0.388 OA
ATOM     24  H4  UNL     1      89.260  69.348  15.351  1.00  0.00     0.210 HD
ENDBRANCH  17  23
ENDBRANCH  12  13
TORSDOF 5
ENDMDL
