MODEL 13
REMARK VINA RESULT: -7.069932187      3.663      5.531
REMARK  5 active torsions:
REMARK  status: ('A' for Active; 'I' for Inactive)
REMARK    1  A    between atoms: N4_12  and  C7_13 
REMARK    2  A    between atoms: C8_15  and  C9_16 
REMARK    3  A    between atoms: C9_16  and  O2_17 
REMARK    4  A    between atoms: C10_19  and  O3_20 
REMARK    5  A    between atoms: C11_22  and  O4_23 
ROOT
HETATM    1  N1  UNL     1      85.679  66.502  12.276  1.00  0.00    -0.082 NA
HETATM    2  C1  UNL     1      86.566  67.074  13.211  1.00  0.00     0.131 A 
HETATM    3  N2  UNL     1      87.482  67.992  12.913  1.00  0.00    -0.340 N 
ATOM      4  H2  UNL     1      87.555  68.309  11.946  1.00  0.00     0.167 HD
HETATM    5  C2  UNL     1      88.321  68.526  13.829  1.00  0.00     0.183 A 
HETATM    6  N3  UNL     1      88.204  68.093  15.085  1.00  0.00    -0.338 N 
ATOM      7  H3  UNL     1      88.831  68.488  15.786  1.00  0.00     0.168 HD
HETATM    8  C3  UNL     1      87.312  67.169  15.486  1.00  0.00     0.124 A 
HETATM    9  C4  UNL     1      86.474  66.648  14.529  1.00  0.00     0.051 A 
HETATM   10  C5  UNL     1      85.668  65.738  15.187  1.00  0.00     0.036 A 
HETATM   11  C6  UNL     1      86.035  65.731  16.510  1.00  0.00     0.096 A 
HETATM   12  N4  UNL     1      87.036  66.603  16.692  1.00  0.00    -0.312 N 
ENDROOT
BRANCH  12  13
HETATM   13  C7  UNL     1      87.757  66.952  17.900  1.00  0.00     0.261 C 
HETATM   14  O1  UNL     1      88.363  68.170  17.774  1.00  0.00    -0.353 OA
HETATM   15  C8  UNL     1      89.569  68.160  18.418  1.00  0.00     0.179 C 
HETATM   16  C10 UNL     1      89.804  66.801  18.997  1.00  0.00     0.182 C 
HETATM   17  C11 UNL     1      88.865  65.952  18.133  1.00  0.00     0.198 C 
BRANCH  15  18
HETATM   18  C9  UNL     1      90.664  68.437  17.389  1.00  0.00     0.198 C 
BRANCH  18  19
HETATM   19  O2  UNL     1      90.315  69.546  16.620  1.00  0.00    -0.398 OA
ATOM     20  H2  UNL     1      89.910  69.258  15.810  1.00  0.00     0.209 HD
ENDBRANCH  18  19
ENDBRANCH  15  18
BRANCH  16  21
HETATM   21  O3  UNL     1      89.388  66.749  20.337  1.00  0.00    -0.390 OA
ATOM     22  H3  UNL     1      89.707  67.503  20.819  1.00  0.00     0.210 HD
ENDBRANCH  16  21
BRANCH  17  23
HETATM   23  O4  UNL     1      88.471  64.870  18.896  1.00  0.00    -0.388 OA
ATOM     24  H4  UNL     1      88.839  64.876  19.772  1.00  0.00     0.210 HD
ENDBRANCH  17  23
ENDBRANCH  12  13
TORSDOF 5
ENDMDL
