MODEL 5
REMARK VINA RESULT: -7.698556169      2.979      6.170
REMARK  5 active torsions:
REMARK  status: ('A' for Active; 'I' for Inactive)
REMARK    1  A    between atoms: N4_12  and  C7_13 
REMARK    2  A    between atoms: C8_15  and  C9_16 
REMARK    3  A    between atoms: C9_16  and  O2_17 
REMARK    4  A    between atoms: C10_19  and  O3_20 
REMARK    5  A    between atoms: C11_22  and  O4_23 
ROOT
HETATM    1  N1  UNL     1      95.291  63.242  22.157  1.00  0.00    -0.082 NA
HETATM    2  C1  UNL     1      94.620  64.481  22.134  1.00  0.00     0.131 A 
HETATM    3  N2  UNL     1      94.928  65.517  22.910  1.00  0.00    -0.340 N 
ATOM      4  H2  UNL     1      95.700  65.417  23.570  1.00  0.00     0.167 HD
HETATM    5  C2  UNL     1      94.269  66.697  22.868  1.00  0.00     0.183 A 
HETATM    6  N3  UNL     1      93.264  66.800  21.997  1.00  0.00    -0.338 N 
ATOM      7  H3  UNL     1      92.758  67.685  21.955  1.00  0.00     0.168 HD
HETATM    8  C3  UNL     1      92.875  65.812  21.170  1.00  0.00     0.124 A 
HETATM    9  C4  UNL     1      93.568  64.626  21.240  1.00  0.00     0.051 A 
HETATM   10  C5  UNL     1      92.983  63.792  20.305  1.00  0.00     0.036 A 
HETATM   11  C6  UNL     1      91.963  64.486  19.702  1.00  0.00     0.096 A 
HETATM   12  N4  UNL     1      91.898  65.715  20.229  1.00  0.00    -0.312 N 
ENDROOT
BRANCH  12  13
HETATM   13  C7  UNL     1      90.997  66.810  19.927  1.00  0.00     0.261 C 
HETATM   14  O1  UNL     1      89.701  66.380  19.876  1.00  0.00    -0.353 OA
HETATM   15  C8  UNL     1      89.023  67.055  18.899  1.00  0.00     0.179 C 
HETATM   16  C10 UNL     1      89.962  67.995  18.211  1.00  0.00     0.182 C 
HETATM   17  C11 UNL     1      91.313  67.358  18.554  1.00  0.00     0.198 C 
BRANCH  15  18
HETATM   18  C9  UNL     1      88.528  66.037  17.871  1.00  0.00     0.198 C 
BRANCH  18  19
HETATM   19  O2  UNL     1      87.865  64.998  18.522  1.00  0.00    -0.398 OA
ATOM     20  H2  UNL     1      88.241  64.166  18.261  1.00  0.00     0.209 HD
ENDBRANCH  18  19
ENDBRANCH  15  18
BRANCH  16  21
HETATM   21  O3  UNL     1      89.888  69.278  18.778  1.00  0.00    -0.390 OA
ATOM     22  H3  UNL     1      89.864  69.945  18.101  1.00  0.00     0.210 HD
ENDBRANCH  16  21
BRANCH  17  23
HETATM   23  O4  UNL     1      92.251  68.373  18.575  1.00  0.00    -0.388 OA
ATOM     24  H4  UNL     1      93.051  68.153  18.112  1.00  0.00     0.210 HD
ENDBRANCH  17  23
ENDBRANCH  12  13
TORSDOF 5
ENDMDL
