MODEL 2
REMARK VINA RESULT: -7.807568020      1.321      2.451
REMARK  5 active torsions:
REMARK  status: ('A' for Active; 'I' for Inactive)
REMARK    1  A    between atoms: N4_12  and  C7_13 
REMARK    2  A    between atoms: C8_15  and  C9_16 
REMARK    3  A    between atoms: C9_16  and  O2_17 
REMARK    4  A    between atoms: C10_19  and  O3_20 
REMARK    5  A    between atoms: C11_22  and  O4_23 
ROOT
HETATM    1  N1  UNL     1      87.555  67.667  17.534  1.00  0.00    -0.082 NA
HETATM    2  C1  UNL     1      88.494  66.763  18.072  1.00  0.00     0.131 A 
HETATM    3  N2  UNL     1      88.256  65.471  18.284  1.00  0.00    -0.340 N 
ATOM      4  H2  UNL     1      87.335  65.102  18.046  1.00  0.00     0.167 HD
HETATM    5  C2  UNL     1      89.174  64.623  18.800  1.00  0.00     0.183 A 
HETATM    6  N3  UNL     1      90.369  65.133  19.103  1.00  0.00    -0.338 N 
ATOM      7  H3  UNL     1      91.071  64.505  19.494  1.00  0.00     0.168 HD
HETATM    8  C3  UNL     1      90.707  66.424  18.926  1.00  0.00     0.124 A 
HETATM    9  C4  UNL     1      89.749  67.258  18.399  1.00  0.00     0.051 A 
HETATM   10  C5  UNL     1      90.337  68.506  18.319  1.00  0.00     0.036 A 
HETATM   11  C6  UNL     1      91.621  68.398  18.795  1.00  0.00     0.096 A 
HETATM   12  N4  UNL     1      91.845  67.130  19.165  1.00  0.00    -0.312 N 
ENDROOT
BRANCH  12  13
HETATM   13  C7  UNL     1      93.037  66.521  19.723  1.00  0.00     0.261 C 
HETATM   14  O1  UNL     1      93.422  65.434  18.989  1.00  0.00    -0.353 OA
HETATM   15  C8  UNL     1      93.920  64.466  19.815  1.00  0.00     0.179 C 
HETATM   16  C10 UNL     1      93.826  64.935  21.233  1.00  0.00     0.182 C 
HETATM   17  C11 UNL     1      92.737  66.006  21.112  1.00  0.00     0.198 C 
BRANCH  15  18
HETATM   18  C9  UNL     1      93.051  63.217  19.667  1.00  0.00     0.198 C 
BRANCH  18  19
HETATM   19  O2  UNL     1      93.217  62.396  20.781  1.00  0.00    -0.398 OA
ATOM     20  H2  UNL     1      92.538  61.732  20.792  1.00  0.00     0.209 HD
ENDBRANCH  18  19
ENDBRANCH  15  18
BRANCH  16  21
HETATM   21  O3  UNL     1      95.030  65.531  21.643  1.00  0.00    -0.390 OA
ATOM     22  H3  UNL     1      95.150  65.439  22.581  1.00  0.00     0.210 HD
ENDBRANCH  16  21
BRANCH  17  23
HETATM   23  O4  UNL     1      92.970  66.943  22.101  1.00  0.00    -0.388 OA
ATOM     24  H4  UNL     1      92.593  66.703  22.939  1.00  0.00     0.210 HD
ENDBRANCH  17  23
ENDBRANCH  12  13
TORSDOF 5
ENDMDL
