MODEL 11
REMARK VINA RESULT: -10.386961556      0.933      1.513
REMARK  13 active torsions:
REMARK  status: ('A' for Active; 'I' for Inactive)
REMARK    1  A    between atoms: O1_2  and  C2_3 
REMARK    2  A    between atoms: C4_5  and  C5_6 
REMARK    3  A    between atoms: C5_6  and  N1_7 
REMARK    4  A    between atoms: N2_10  and  C7_11 
REMARK    5  A    between atoms: C7_11  and  C8_12 
REMARK    6  A    between atoms: C11_15  and  O3_16 
REMARK    7  A    between atoms: C12_18  and  O4_19 
REMARK    8  A    between atoms: N3_22  and  C15_23 
REMARK    9  A    between atoms: C15_23  and  C16_24 
REMARK   10  A    between atoms: C23_31  and  O5_32 
REMARK   11  A    between atoms: C24_34  and  C25_35 
REMARK   12  A    between atoms: C25_35  and  C26_36 
REMARK   13  A    between atoms: C34_44  and  O6_45 
ROOT
HETATM    1  N1  UNL     1      -9.753  15.356  28.875  1.00  0.00    -0.321 N 
HETATM    2  C6  UNL     1      -8.890  15.217  27.774  1.00  0.00     0.336 C 
HETATM    3  O2  UNL     1      -7.976  14.326  27.842  1.00  0.00    -0.246 OA
HETATM    4  N2  UNL     1      -8.898  15.950  26.572  1.00  0.00    -0.257 N 
HETATM    5  N3  UNL     1      -9.473  17.169  26.216  1.00  0.00    -0.218 NA
HETATM    6  C22 UNL     1     -10.679  17.470  26.927  1.00  0.00     0.148 C 
HETATM    7  C23 UNL     1     -10.614  17.520  28.397  1.00  0.00     0.156 C 
HETATM    8  C24 UNL     1     -10.827  16.283  29.160  1.00  0.00     0.123 C 
ENDROOT
BRANCH   1   9
HETATM    9  C5  UNL     1      -9.468  14.335  29.903  1.00  0.00     0.166 C 
BRANCH   9  10
HETATM   10  C4  UNL     1      -9.259  14.963  31.232  1.00  0.00    -0.037 A 
HETATM   11  C3  UNL     1      -9.619  14.229  32.329  1.00  0.00     0.048 A 
HETATM   12  C2  UNL     1      -9.456  14.671  33.623  1.00  0.00     0.101 A 
HETATM   13  C34 UNL     1      -8.898  15.923  33.771  1.00  0.00     0.099 A 
HETATM   14  C33 UNL     1      -8.527  16.687  32.681  1.00  0.00     0.040 A 
HETATM   15  C32 UNL     1      -8.707  16.205  31.404  1.00  0.00     0.012 A 
BRANCH  12  16
HETATM   16  O1  UNL     1      -9.837  13.888  34.704  1.00  0.00    -0.353 OA
HETATM   17  C1  UNL     1     -10.983  14.249  35.481  1.00  0.00     0.210 C 
ENDBRANCH  12  16
BRANCH  13  18
HETATM   18  O6  UNL     1      -8.725  16.386  35.067  1.00  0.00    -0.358 OA
ATOM     19  H6  UNL     1      -7.990  16.967  35.224  1.00  0.00     0.217 HD
ENDBRANCH  13  18
ENDBRANCH   9  10
ENDBRANCH   1   9
BRANCH   8  20
HETATM   20  C25 UNL     1     -12.177  15.645  29.097  1.00  0.00     0.066 C 
BRANCH  20  21
HETATM   21  C26 UNL     1     -12.593  14.987  30.355  1.00  0.00    -0.056 A 
HETATM   22  C27 UNL     1     -12.934  13.643  30.391  1.00  0.00     0.007 A 
HETATM   23  C28 UNL     1     -13.327  13.012  31.546  1.00  0.00     0.001 A 
HETATM   24  C29 UNL     1     -13.396  13.707  32.731  1.00  0.00     0.000 A 
HETATM   25  C30 UNL     1     -13.065  15.036  32.729  1.00  0.00     0.001 A 
HETATM   26  C31 UNL     1     -12.676  15.645  31.557  1.00  0.00     0.007 A 
ENDBRANCH  20  21
ENDBRANCH   8  20
BRANCH   4  27
HETATM   27  C7  UNL     1      -8.171  15.321  25.486  1.00  0.00     0.186 C 
BRANCH  27  28
HETATM   28  C8  UNL     1      -8.607  15.732  24.144  1.00  0.00    -0.036 A 
HETATM   29  C9  UNL     1      -9.918  15.668  23.764  1.00  0.00     0.012 A 
HETATM   30  C10 UNL     1     -10.323  16.047  22.478  1.00  0.00     0.040 A 
HETATM   31  C11 UNL     1      -9.398  16.494  21.567  1.00  0.00     0.099 A 
HETATM   32  C12 UNL     1      -8.060  16.566  21.937  1.00  0.00     0.101 A 
HETATM   33  C14 UNL     1      -7.701  16.188  23.201  1.00  0.00     0.048 A 
BRANCH  31  34
HETATM   34  O3  UNL     1      -9.709  16.886  20.287  1.00  0.00    -0.358 OA
ATOM     35  H3  UNL     1     -10.585  17.119  20.001  1.00  0.00     0.217 HD
ENDBRANCH  31  34
BRANCH  32  36
HETATM   36  O4  UNL     1      -7.102  17.017  21.026  1.00  0.00    -0.353 OA
HETATM   37  C13 UNL     1      -6.546  18.297  21.229  1.00  0.00     0.210 C 
ENDBRANCH  32  36
ENDBRANCH  27  28
ENDBRANCH   4  27
BRANCH   7  38
HETATM   38  O5  UNL     1     -11.532  18.481  28.874  1.00  0.00    -0.392 OA
ATOM     39  H5  UNL     1     -11.063  19.271  29.115  1.00  0.00     0.210 HD
ENDBRANCH   7  38
BRANCH   5  40
HETATM   40  C15 UNL     1      -8.550  18.235  26.318  1.00  0.00     0.152 C 
BRANCH  40  41
HETATM   41  C16 UNL     1      -7.181  17.903  26.697  1.00  0.00    -0.043 A 
HETATM   42  C17 UNL     1      -6.756  17.486  27.937  1.00  0.00     0.008 A 
HETATM   43  C18 UNL     1      -5.429  17.180  28.199  1.00  0.00     0.001 A 
HETATM   44  C19 UNL     1      -4.481  17.290  27.208  1.00  0.00     0.000 A 
HETATM   45  C20 UNL     1      -4.877  17.709  25.949  1.00  0.00     0.001 A 
HETATM   46  C21 UNL     1      -6.203  18.005  25.714  1.00  0.00     0.008 A 
ENDBRANCH  40  41
ENDBRANCH   5  40
TORSDOF 13
ENDMDL
