MODEL 2
REMARK VINA RESULT: -10.941908669      0.666      9.008
REMARK  13 active torsions:
REMARK  status: ('A' for Active; 'I' for Inactive)
REMARK    1  A    between atoms: O1_2  and  C2_3 
REMARK    2  A    between atoms: C4_5  and  C5_6 
REMARK    3  A    between atoms: C5_6  and  N1_7 
REMARK    4  A    between atoms: N2_10  and  C7_11 
REMARK    5  A    between atoms: C7_11  and  C8_12 
REMARK    6  A    between atoms: C11_15  and  O3_16 
REMARK    7  A    between atoms: C12_18  and  O4_19 
REMARK    8  A    between atoms: N3_22  and  C15_23 
REMARK    9  A    between atoms: C15_23  and  C16_24 
REMARK   10  A    between atoms: C23_31  and  O5_32 
REMARK   11  A    between atoms: C24_34  and  C25_35 
REMARK   12  A    between atoms: C25_35  and  C26_36 
REMARK   13  A    between atoms: C34_44  and  O6_45 
ROOT
HETATM    1  N1  UNL     1      -8.539  16.146  26.634  1.00  0.00    -0.321 N 
HETATM    2  C6  UNL     1      -8.661  15.292  27.743  1.00  0.00     0.336 C 
HETATM    3  O2  UNL     1      -8.258  14.085  27.614  1.00  0.00    -0.246 OA
HETATM    4  N2  UNL     1      -9.184  15.596  29.015  1.00  0.00    -0.257 N 
HETATM    5  N3  UNL     1      -9.995  16.632  29.477  1.00  0.00    -0.218 NA
HETATM    6  C22 UNL     1      -9.829  17.860  28.760  1.00  0.00     0.148 C 
HETATM    7  C23 UNL     1     -10.062  17.843  27.307  1.00  0.00     0.156 C 
HETATM    8  C24 UNL     1      -8.944  17.517  26.411  1.00  0.00     0.123 C 
ENDROOT
BRANCH   1   9
HETATM    9  C5  UNL     1      -7.857  15.466  25.515  1.00  0.00     0.166 C 
BRANCH   9  10
HETATM   10  C4  UNL     1      -8.446  15.865  24.212  1.00  0.00    -0.037 A 
HETATM   11  C3  UNL     1      -7.581  16.308  23.249  1.00  0.00     0.048 A 
HETATM   12  C2  UNL     1      -7.981  16.683  21.986  1.00  0.00     0.101 A 
HETATM   13  C34 UNL     1      -9.333  16.591  21.725  1.00  0.00     0.099 A 
HETATM   14  C33 UNL     1     -10.229  16.149  22.679  1.00  0.00     0.040 A 
HETATM   15  C32 UNL     1      -9.784  15.783  23.930  1.00  0.00     0.012 A 
BRANCH  12  16
HETATM   16  O1  UNL     1      -7.064  17.127  21.043  1.00  0.00    -0.353 OA
HETATM   17  C1  UNL     1      -6.429  18.399  21.203  1.00  0.00     0.210 C 
ENDBRANCH  12  16
BRANCH  13  18
HETATM   18  O6  UNL     1      -9.755  16.965  20.458  1.00  0.00    -0.358 OA
ATOM     19  H6  UNL     1     -10.491  16.489  20.091  1.00  0.00     0.217 HD
ENDBRANCH  13  18
ENDBRANCH   9  10
ENDBRANCH   1   9
BRANCH   8  20
HETATM   20  C25 UNL     1      -7.789  18.464  26.360  1.00  0.00     0.066 C 
BRANCH  20  21
HETATM   21  C26 UNL     1      -6.498  17.863  26.764  1.00  0.00    -0.056 A 
HETATM   22  C27 UNL     1      -5.483  17.643  25.844  1.00  0.00     0.007 A 
HETATM   23  C28 UNL     1      -4.279  17.084  26.195  1.00  0.00     0.001 A 
HETATM   24  C29 UNL     1      -4.034  16.717  27.497  1.00  0.00     0.000 A 
HETATM   25  C30 UNL     1      -5.016  16.921  28.429  1.00  0.00     0.001 A 
HETATM   26  C31 UNL     1      -6.215  17.482  28.052  1.00  0.00     0.007 A 
ENDBRANCH  20  21
ENDBRANCH   8  20
BRANCH   4  27
HETATM   27  C7  UNL     1      -8.811  14.654  30.053  1.00  0.00     0.186 C 
BRANCH  27  28
HETATM   28  C8  UNL     1      -8.891  15.192  31.419  1.00  0.00    -0.036 A 
HETATM   29  C9  UNL     1      -8.368  16.413  31.742  1.00  0.00     0.012 A 
HETATM   30  C10 UNL     1      -8.436  16.911  33.049  1.00  0.00     0.040 A 
HETATM   31  C11 UNL     1      -9.035  16.171  34.039  1.00  0.00     0.099 A 
HETATM   32  C12 UNL     1      -9.572  14.928  33.728  1.00  0.00     0.101 A 
HETATM   33  C14 UNL     1      -9.488  14.473  32.441  1.00  0.00     0.048 A 
BRANCH  31  34
HETATM   34  O3  UNL     1      -9.145  16.585  35.346  1.00  0.00    -0.358 OA
ATOM     35  H3  UNL     1      -9.668  17.327  35.625  1.00  0.00     0.217 HD
ENDBRANCH  31  34
BRANCH  32  36
HETATM   36  O4  UNL     1     -10.185  14.159  34.719  1.00  0.00    -0.353 OA
HETATM   37  C13 UNL     1     -11.552  13.850  34.567  1.00  0.00     0.210 C 
ENDBRANCH  32  36
ENDBRANCH  27  28
ENDBRANCH   4  27
BRANCH   7  38
HETATM   38  O5  UNL     1     -10.586  19.091  26.902  1.00  0.00    -0.392 OA
ATOM     39  H5  UNL     1     -10.209  19.334  26.066  1.00  0.00     0.210 HD
ENDBRANCH   7  38
BRANCH   5  40
HETATM   40  C15 UNL     1     -11.356  16.254  29.520  1.00  0.00     0.152 C 
BRANCH  40  41
HETATM   41  C16 UNL     1     -11.703  14.935  29.005  1.00  0.00    -0.043 A 
HETATM   42  C17 UNL     1     -11.728  14.555  27.683  1.00  0.00     0.008 A 
HETATM   43  C18 UNL     1     -12.061  13.267  27.290  1.00  0.00     0.001 A 
HETATM   44  C19 UNL     1     -12.383  12.315  28.229  1.00  0.00     0.000 A 
HETATM   45  C20 UNL     1     -12.368  12.666  29.568  1.00  0.00     0.001 A 
HETATM   46  C21 UNL     1     -12.033  13.953  29.932  1.00  0.00     0.008 A 
ENDBRANCH  40  41
ENDBRANCH   5  40
TORSDOF 13
ENDMDL
