MODEL 5
REMARK VINA RESULT: -10.833711481      1.237      1.583
REMARK  13 active torsions:
REMARK  status: ('A' for Active; 'I' for Inactive)
REMARK    1  A    between atoms: O1_2  and  C2_3 
REMARK    2  A    between atoms: C4_5  and  C5_6 
REMARK    3  A    between atoms: C5_6  and  N1_7 
REMARK    4  A    between atoms: N2_10  and  C7_11 
REMARK    5  A    between atoms: C7_11  and  C8_12 
REMARK    6  A    between atoms: C11_15  and  O3_16 
REMARK    7  A    between atoms: C12_18  and  O4_19 
REMARK    8  A    between atoms: N3_22  and  C15_23 
REMARK    9  A    between atoms: C15_23  and  C16_24 
REMARK   10  A    between atoms: C23_31  and  O5_32 
REMARK   11  A    between atoms: C24_34  and  C25_35 
REMARK   12  A    between atoms: C25_35  and  C26_36 
REMARK   13  A    between atoms: C34_44  and  O6_45 
ROOT
HETATM    1  N1  UNL     1     -10.319  15.331  28.538  1.00  0.00    -0.321 N 
HETATM    2  C6  UNL     1      -9.185  15.268  27.710  1.00  0.00     0.336 C 
HETATM    3  O2  UNL     1      -8.450  14.225  27.784  1.00  0.00    -0.246 OA
HETATM    4  N2  UNL     1      -8.738  16.229  26.782  1.00  0.00    -0.257 N 
HETATM    5  N3  UNL     1      -9.025  17.583  26.617  1.00  0.00    -0.218 NA
HETATM    6  C22 UNL     1     -10.344  17.950  27.035  1.00  0.00     0.148 C 
HETATM    7  C23 UNL     1     -10.726  17.671  28.429  1.00  0.00     0.156 C 
HETATM    8  C24 UNL     1     -11.309  16.364  28.758  1.00  0.00     0.123 C 
ENDROOT
BRANCH   1   9
HETATM    9  C5  UNL     1     -10.487  14.079  29.302  1.00  0.00     0.166 C 
BRANCH   9  10
HETATM   10  C4  UNL     1     -10.240  14.302  30.749  1.00  0.00    -0.037 A 
HETATM   11  C3  UNL     1     -11.331  14.277  31.576  1.00  0.00     0.048 A 
HETATM   12  C2  UNL     1     -11.250  14.439  32.940  1.00  0.00     0.101 A 
HETATM   13  C34 UNL     1      -9.986  14.635  33.455  1.00  0.00     0.099 A 
HETATM   14  C33 UNL     1      -8.867  14.667  32.644  1.00  0.00     0.040 A 
HETATM   15  C32 UNL     1      -8.995  14.499  31.283  1.00  0.00     0.012 A 
BRANCH  12  16
HETATM   16  O1  UNL     1     -12.387  14.405  33.737  1.00  0.00    -0.353 OA
HETATM   17  C1  UNL     1     -13.112  13.183  33.899  1.00  0.00     0.210 C 
ENDBRANCH  12  16
BRANCH  13  18
HETATM   18  O6  UNL     1      -9.884  14.800  34.829  1.00  0.00    -0.358 OA
ATOM     19  H6  UNL     1      -9.009  14.812  35.198  1.00  0.00     0.217 HD
ENDBRANCH  13  18
ENDBRANCH   9  10
ENDBRANCH   1   9
BRANCH   8  20
HETATM   20  C25 UNL     1     -12.642  16.025  28.174  1.00  0.00     0.066 C 
BRANCH  20  21
HETATM   21  C26 UNL     1     -13.297  14.857  28.802  1.00  0.00    -0.056 A 
HETATM   22  C27 UNL     1     -13.201  13.588  28.249  1.00  0.00     0.007 A 
HETATM   23  C28 UNL     1     -13.804  12.491  28.814  1.00  0.00     0.001 A 
HETATM   24  C29 UNL     1     -14.537  12.615  29.971  1.00  0.00     0.000 A 
HETATM   25  C30 UNL     1     -14.650  13.855  30.541  1.00  0.00     0.001 A 
HETATM   26  C31 UNL     1     -14.038  14.939  29.956  1.00  0.00     0.007 A 
ENDBRANCH  20  21
ENDBRANCH   8  20
BRANCH   4  27
HETATM   27  C7  UNL     1      -7.795  15.720  25.805  1.00  0.00     0.186 C 
BRANCH  27  28
HETATM   28  C8  UNL     1      -8.129  16.048  24.411  1.00  0.00    -0.036 A 
HETATM   29  C9  UNL     1      -9.368  15.798  23.891  1.00  0.00     0.012 A 
HETATM   30  C10 UNL     1      -9.672  16.099  22.558  1.00  0.00     0.040 A 
HETATM   31  C11 UNL     1      -8.718  16.657  21.742  1.00  0.00     0.099 A 
HETATM   32  C12 UNL     1      -7.453  16.917  22.255  1.00  0.00     0.101 A 
HETATM   33  C14 UNL     1      -7.192  16.610  23.561  1.00  0.00     0.048 A 
BRANCH  31  34
HETATM   34  O3  UNL     1      -8.933  16.984  20.424  1.00  0.00    -0.358 OA
ATOM     35  H3  UNL     1      -8.708  17.824  20.042  1.00  0.00     0.217 HD
ENDBRANCH  31  34
BRANCH  32  36
HETATM   36  O4  UNL     1      -6.468  17.483  21.442  1.00  0.00    -0.353 OA
HETATM   37  C13 UNL     1      -5.866  18.684  21.870  1.00  0.00     0.210 C 
ENDBRANCH  32  36
ENDBRANCH  27  28
ENDBRANCH   4  27
BRANCH   7  38
HETATM   38  O5  UNL     1     -11.622  18.666  28.877  1.00  0.00    -0.392 OA
ATOM     39  H5  UNL     1     -11.941  18.436  29.741  1.00  0.00     0.210 HD
ENDBRANCH   7  38
BRANCH   5  40
HETATM   40  C15 UNL     1      -8.055  18.405  27.234  1.00  0.00     0.152 C 
BRANCH  40  41
HETATM   41  C16 UNL     1      -6.655  18.143  26.921  1.00  0.00    -0.043 A 
HETATM   42  C17 UNL     1      -5.832  17.241  27.554  1.00  0.00     0.008 A 
HETATM   43  C18 UNL     1      -4.511  17.052  27.174  1.00  0.00     0.001 A 
HETATM   44  C19 UNL     1      -3.976  17.778  26.135  1.00  0.00     0.000 A 
HETATM   45  C20 UNL     1      -4.778  18.696  25.478  1.00  0.00     0.001 A 
HETATM   46  C21 UNL     1      -6.089  18.863  25.875  1.00  0.00     0.008 A 
ENDBRANCH  40  41
ENDBRANCH   5  40
TORSDOF 13
ENDMDL
