MODEL 4
REMARK VINA RESULT: -10.870665521      1.334      9.164
REMARK  13 active torsions:
REMARK  status: ('A' for Active; 'I' for Inactive)
REMARK    1  A    between atoms: O1_2  and  C2_3 
REMARK    2  A    between atoms: C4_5  and  C5_6 
REMARK    3  A    between atoms: C5_6  and  N1_7 
REMARK    4  A    between atoms: N2_10  and  C7_11 
REMARK    5  A    between atoms: C7_11  and  C8_12 
REMARK    6  A    between atoms: C11_15  and  O3_16 
REMARK    7  A    between atoms: C12_18  and  O4_19 
REMARK    8  A    between atoms: N3_22  and  C15_23 
REMARK    9  A    between atoms: C15_23  and  C16_24 
REMARK   10  A    between atoms: C23_31  and  O5_32 
REMARK   11  A    between atoms: C24_34  and  C25_35 
REMARK   12  A    between atoms: C25_35  and  C26_36 
REMARK   13  A    between atoms: C34_44  and  O6_45 
ROOT
HETATM    1  N1  UNL     1      -8.582  16.234  27.097  1.00  0.00    -0.321 N 
HETATM    2  C6  UNL     1      -9.219  15.213  27.824  1.00  0.00     0.336 C 
HETATM    3  O2  UNL     1      -8.883  14.004  27.573  1.00  0.00    -0.246 OA
HETATM    4  N2  UNL     1     -10.206  15.346  28.819  1.00  0.00    -0.257 N 
HETATM    5  N3  UNL     1     -11.062  16.391  29.162  1.00  0.00    -0.218 NA
HETATM    6  C22 UNL     1     -10.526  17.691  28.892  1.00  0.00     0.148 C 
HETATM    7  C23 UNL     1     -10.126  17.994  27.508  1.00  0.00     0.156 C 
HETATM    8  C24 UNL     1      -8.761  17.670  27.075  1.00  0.00     0.123 C 
ENDROOT
BRANCH   1   9
HETATM    9  C5  UNL     1      -7.541  15.682  26.208  1.00  0.00     0.166 C 
BRANCH   9  10
HETATM   10  C4  UNL     1      -7.867  15.940  24.783  1.00  0.00    -0.037 A 
HETATM   11  C3  UNL     1      -6.872  16.464  24.003  1.00  0.00     0.048 A 
HETATM   12  C2  UNL     1      -7.021  16.727  22.661  1.00  0.00     0.101 A 
HETATM   13  C34 UNL     1      -8.255  16.433  22.118  1.00  0.00     0.099 A 
HETATM   14  C33 UNL     1      -9.278  15.905  22.881  1.00  0.00     0.040 A 
HETATM   15  C32 UNL     1      -9.084  15.656  24.222  1.00  0.00     0.012 A 
BRANCH  12  16
HETATM   16  O1  UNL     1      -5.981  17.260  21.911  1.00  0.00    -0.353 OA
HETATM   17  C1  UNL     1      -5.879  18.675  21.731  1.00  0.00     0.210 C 
ENDBRANCH  12  16
BRANCH  13  18
HETATM   18  O6  UNL     1      -8.424  16.691  20.765  1.00  0.00    -0.358 OA
ATOM     19  H6  UNL     1      -9.280  16.999  20.489  1.00  0.00     0.217 HD
ENDBRANCH  13  18
ENDBRANCH   9  10
ENDBRANCH   1   9
BRANCH   8  20
HETATM   20  C25 UNL     1      -7.629  18.406  27.716  1.00  0.00     0.066 C 
BRANCH  20  21
HETATM   21  C26 UNL     1      -6.435  18.546  26.854  1.00  0.00    -0.056 A 
HETATM   22  C27 UNL     1      -5.339  17.707  26.994  1.00  0.00     0.007 A 
HETATM   23  C28 UNL     1      -4.218  17.821  26.208  1.00  0.00     0.001 A 
HETATM   24  C29 UNL     1      -4.145  18.790  25.235  1.00  0.00     0.000 A 
HETATM   25  C30 UNL     1      -5.211  19.635  25.072  1.00  0.00     0.001 A 
HETATM   26  C31 UNL     1      -6.322  19.501  25.873  1.00  0.00     0.007 A 
ENDBRANCH  20  21
ENDBRANCH   8  20
BRANCH   4  27
HETATM   27  C7  UNL     1     -10.370  14.173  29.655  1.00  0.00     0.186 C 
BRANCH  27  28
HETATM   28  C8  UNL     1     -10.209  14.426  31.095  1.00  0.00    -0.036 A 
HETATM   29  C9  UNL     1      -8.975  14.582  31.663  1.00  0.00     0.012 A 
HETATM   30  C10 UNL     1      -8.831  14.808  33.037  1.00  0.00     0.040 A 
HETATM   31  C11 UNL     1      -9.938  14.875  33.846  1.00  0.00     0.099 A 
HETATM   32  C12 UNL     1     -11.200  14.717  33.285  1.00  0.00     0.101 A 
HETATM   33  C14 UNL     1     -11.304  14.499  31.939  1.00  0.00     0.048 A 
BRANCH  31  34
HETATM   34  O3  UNL     1      -9.886  15.093  35.203  1.00  0.00    -0.358 OA
ATOM     35  H3  UNL     1     -10.470  14.681  35.829  1.00  0.00     0.217 HD
ENDBRANCH  31  34
BRANCH  32  36
HETATM   36  O4  UNL     1     -12.340  14.781  34.089  1.00  0.00    -0.353 OA
HETATM   37  C13 UNL     1     -13.178  13.649  34.141  1.00  0.00     0.210 C 
ENDBRANCH  32  36
ENDBRANCH  27  28
ENDBRANCH   4  27
BRANCH   7  38
HETATM   38  O5  UNL     1     -10.345  19.365  27.248  1.00  0.00    -0.392 OA
ATOM     39  H5  UNL     1      -9.585  19.727  26.807  1.00  0.00     0.210 HD
ENDBRANCH   7  38
BRANCH   5  40
HETATM   40  C15 UNL     1     -12.337  16.240  28.571  1.00  0.00     0.152 C 
BRANCH  40  41
HETATM   41  C16 UNL     1     -12.954  14.920  28.633  1.00  0.00    -0.043 A 
HETATM   42  C17 UNL     1     -12.803  13.905  27.717  1.00  0.00     0.008 A 
HETATM   43  C18 UNL     1     -13.424  12.674  27.869  1.00  0.00     0.001 A 
HETATM   44  C19 UNL     1     -14.225  12.428  28.960  1.00  0.00     0.000 A 
HETATM   45  C20 UNL     1     -14.397  13.431  29.900  1.00  0.00     0.001 A 
HETATM   46  C21 UNL     1     -13.768  14.646  29.726  1.00  0.00     0.008 A 
ENDBRANCH  40  41
ENDBRANCH   5  40
TORSDOF 13
ENDMDL
