MODEL 1
REMARK VINA RESULT: -10.980058144      0.000      0.000
REMARK  13 active torsions:
REMARK  status: ('A' for Active; 'I' for Inactive)
REMARK    1  A    between atoms: O1_2  and  C2_3 
REMARK    2  A    between atoms: C4_5  and  C5_6 
REMARK    3  A    between atoms: C5_6  and  N1_7 
REMARK    4  A    between atoms: N2_10  and  C7_11 
REMARK    5  A    between atoms: C7_11  and  C8_12 
REMARK    6  A    between atoms: C11_15  and  O3_16 
REMARK    7  A    between atoms: C12_18  and  O4_19 
REMARK    8  A    between atoms: N3_22  and  C15_23 
REMARK    9  A    between atoms: C15_23  and  C16_24 
REMARK   10  A    between atoms: C23_31  and  O5_32 
REMARK   11  A    between atoms: C24_34  and  C25_35 
REMARK   12  A    between atoms: C25_35  and  C26_36 
REMARK   13  A    between atoms: C34_44  and  O6_45 
ROOT
HETATM    1  N1  UNL     1      -9.569  15.393  29.242  1.00  0.00    -0.321 N 
HETATM    2  C6  UNL     1      -8.840  15.167  28.062  1.00  0.00     0.336 C 
HETATM    3  O2  UNL     1      -7.959  14.240  28.073  1.00  0.00    -0.246 OA
HETATM    4  N2  UNL     1      -8.952  15.846  26.833  1.00  0.00    -0.257 N 
HETATM    5  N3  UNL     1      -9.514  17.073  26.483  1.00  0.00    -0.218 NA
HETATM    6  C22 UNL     1     -10.621  17.458  27.307  1.00  0.00     0.148 C 
HETATM    7  C23 UNL     1     -10.392  17.569  28.756  1.00  0.00     0.156 C 
HETATM    8  C24 UNL     1     -10.567  16.378  29.597  1.00  0.00     0.123 C 
ENDROOT
BRANCH   1   9
HETATM    9  C5  UNL     1      -9.212  14.406  30.282  1.00  0.00     0.166 C 
BRANCH   9  10
HETATM   10  C4  UNL     1      -9.154  15.043  31.621  1.00  0.00    -0.037 A 
HETATM   11  C3  UNL     1      -9.752  14.373  32.654  1.00  0.00     0.048 A 
HETATM   12  C2  UNL     1      -9.751  14.828  33.953  1.00  0.00     0.101 A 
HETATM   13  C34 UNL     1      -9.104  16.026  34.176  1.00  0.00     0.099 A 
HETATM   14  C33 UNL     1      -8.494  16.725  33.153  1.00  0.00     0.040 A 
HETATM   15  C32 UNL     1      -8.518  16.231  31.867  1.00  0.00     0.012 A 
BRANCH  12  16
HETATM   16  O1  UNL     1     -10.373  14.111  34.967  1.00  0.00    -0.353 OA
HETATM   17  C1  UNL     1     -11.688  13.586  34.771  1.00  0.00     0.210 C 
ENDBRANCH  12  16
BRANCH  13  18
HETATM   18  O6  UNL     1      -9.093  16.501  35.480  1.00  0.00    -0.358 OA
ATOM     19  H6  UNL     1      -9.171  17.440  35.597  1.00  0.00     0.217 HD
ENDBRANCH  13  18
ENDBRANCH   9  10
ENDBRANCH   1   9
BRANCH   8  20
HETATM   20  C25 UNL     1     -11.940  15.798  29.712  1.00  0.00     0.066 C 
BRANCH  20  21
HETATM   21  C26 UNL     1     -12.094  14.477  29.066  1.00  0.00    -0.056 A 
HETATM   22  C27 UNL     1     -12.312  13.327  29.812  1.00  0.00     0.007 A 
HETATM   23  C28 UNL     1     -12.454  12.089  29.234  1.00  0.00     0.001 A 
HETATM   24  C29 UNL     1     -12.384  11.945  27.868  1.00  0.00     0.000 A 
HETATM   25  C30 UNL     1     -12.169  13.062  27.104  1.00  0.00     0.001 A 
HETATM   26  C31 UNL     1     -12.029  14.291  27.707  1.00  0.00     0.007 A 
ENDBRANCH  20  21
ENDBRANCH   8  20
BRANCH   4  27
HETATM   27  C7  UNL     1      -8.374  15.139  25.707  1.00  0.00     0.186 C 
BRANCH  27  28
HETATM   28  C8  UNL     1      -8.837  15.608  24.393  1.00  0.00    -0.036 A 
HETATM   29  C9  UNL     1     -10.165  15.639  24.068  1.00  0.00     0.012 A 
HETATM   30  C10 UNL     1     -10.596  16.073  22.809  1.00  0.00     0.040 A 
HETATM   31  C11 UNL     1      -9.681  16.478  21.868  1.00  0.00     0.099 A 
HETATM   32  C12 UNL     1      -8.328  16.452  22.181  1.00  0.00     0.101 A 
HETATM   33  C14 UNL     1      -7.943  16.023  23.421  1.00  0.00     0.048 A 
BRANCH  31  34
HETATM   34  O3  UNL     1     -10.018  16.918  20.610  1.00  0.00    -0.358 OA
ATOM     35  H3  UNL     1      -9.420  16.924  19.872  1.00  0.00     0.217 HD
ENDBRANCH  31  34
BRANCH  32  36
HETATM   36  O4  UNL     1      -7.380  16.859  21.239  1.00  0.00    -0.353 OA
HETATM   37  C13 UNL     1      -6.802  18.135  21.390  1.00  0.00     0.210 C 
ENDBRANCH  32  36
ENDBRANCH  27  28
ENDBRANCH   4  27
BRANCH   7  38
HETATM   38  O5  UNL     1     -11.213  18.591  29.283  1.00  0.00    -0.392 OA
ATOM     39  H5  UNL     1     -10.799  18.962  30.053  1.00  0.00     0.210 HD
ENDBRANCH   7  38
BRANCH   5  40
HETATM   40  C15 UNL     1      -8.544  18.100  26.432  1.00  0.00     0.152 C 
BRANCH  40  41
HETATM   41  C16 UNL     1      -7.173  17.746  26.782  1.00  0.00    -0.043 A 
HETATM   42  C17 UNL     1      -6.710  17.408  28.032  1.00  0.00     0.008 A 
HETATM   43  C18 UNL     1      -5.385  17.073  28.264  1.00  0.00     0.001 A 
HETATM   44  C19 UNL     1      -4.477  17.071  27.231  1.00  0.00     0.000 A 
HETATM   45  C20 UNL     1      -4.911  17.408  25.960  1.00  0.00     0.001 A 
HETATM   46  C21 UNL     1      -6.235  17.736  25.756  1.00  0.00     0.008 A 
ENDBRANCH  40  41
ENDBRANCH   5  40
TORSDOF 13
ENDMDL
