MODEL 17
REMARK VINA RESULT: -10.231387617      1.425      2.182
REMARK  13 active torsions:
REMARK  status: ('A' for Active; 'I' for Inactive)
REMARK    1  A    between atoms: O1_2  and  C2_3 
REMARK    2  A    between atoms: C4_5  and  C5_6 
REMARK    3  A    between atoms: C5_6  and  N1_7 
REMARK    4  A    between atoms: N2_10  and  C7_11 
REMARK    5  A    between atoms: C7_11  and  C8_12 
REMARK    6  A    between atoms: C11_15  and  O3_16 
REMARK    7  A    between atoms: C12_18  and  O4_19 
REMARK    8  A    between atoms: N3_22  and  C15_23 
REMARK    9  A    between atoms: C15_23  and  C16_24 
REMARK   10  A    between atoms: C23_31  and  O5_32 
REMARK   11  A    between atoms: C24_34  and  C25_35 
REMARK   12  A    between atoms: C25_35  and  C26_36 
REMARK   13  A    between atoms: C34_44  and  O6_45 
ROOT
HETATM    1  N1  UNL     1     -10.032  15.339  28.339  1.00  0.00    -0.321 N 
HETATM    2  C6  UNL     1      -8.831  15.277  27.612  1.00  0.00     0.336 C 
HETATM    3  O2  UNL     1      -8.092  14.245  27.767  1.00  0.00    -0.246 OA
HETATM    4  N2  UNL     1      -8.317  16.228  26.709  1.00  0.00    -0.257 N 
HETATM    5  N3  UNL     1      -8.605  17.575  26.495  1.00  0.00    -0.218 NA
HETATM    6  C22 UNL     1      -9.960  17.932  26.792  1.00  0.00     0.148 C 
HETATM    7  C23 UNL     1     -10.456  17.671  28.153  1.00  0.00     0.156 C 
HETATM    8  C24 UNL     1     -11.049  16.362  28.455  1.00  0.00     0.123 C 
ENDROOT
BRANCH   1   9
HETATM    9  C5  UNL     1     -10.250  14.098  29.108  1.00  0.00     0.166 C 
BRANCH   9  10
HETATM   10  C4  UNL     1     -10.117  14.345  30.565  1.00  0.00    -0.037 A 
HETATM   11  C3  UNL     1     -11.264  14.297  31.311  1.00  0.00     0.048 A 
HETATM   12  C2  UNL     1     -11.288  14.478  32.675  1.00  0.00     0.101 A 
HETATM   13  C34 UNL     1     -10.071  14.718  33.278  1.00  0.00     0.099 A 
HETATM   14  C33 UNL     1      -8.898  14.773  32.550  1.00  0.00     0.040 A 
HETATM   15  C32 UNL     1      -8.920  14.585  31.186  1.00  0.00     0.012 A 
BRANCH  12  16
HETATM   16  O1  UNL     1     -12.479  14.420  33.388  1.00  0.00    -0.353 OA
HETATM   17  C1  UNL     1     -13.182  13.180  33.508  1.00  0.00     0.210 C 
ENDBRANCH  12  16
BRANCH  13  18
HETATM   18  O6  UNL     1     -10.075  14.902  34.653  1.00  0.00    -0.358 OA
ATOM     19  H6  UNL     1      -9.232  14.899  35.091  1.00  0.00     0.217 HD
ENDBRANCH  13  18
ENDBRANCH   9  10
ENDBRANCH   1   9
BRANCH   8  20
HETATM   20  C25 UNL     1     -12.323  15.995  27.764  1.00  0.00     0.066 C 
BRANCH  20  21
HETATM   21  C26 UNL     1     -13.111  14.957  28.463  1.00  0.00    -0.056 A 
HETATM   22  C27 UNL     1     -13.095  13.633  28.047  1.00  0.00     0.007 A 
HETATM   23  C28 UNL     1     -13.821  12.653  28.678  1.00  0.00     0.001 A 
HETATM   24  C29 UNL     1     -14.603  12.956  29.767  1.00  0.00     0.000 A 
HETATM   25  C30 UNL     1     -14.641  14.255  30.203  1.00  0.00     0.001 A 
HETATM   26  C31 UNL     1     -13.905  15.219  29.553  1.00  0.00     0.007 A 
ENDBRANCH  20  21
ENDBRANCH   8  20
BRANCH   4  27
HETATM   27  C7  UNL     1      -7.288  15.715  25.826  1.00  0.00     0.186 C 
BRANCH  27  28
HETATM   28  C8  UNL     1      -7.417  16.149  24.427  1.00  0.00    -0.036 A 
HETATM   29  C9  UNL     1      -6.356  16.662  23.733  1.00  0.00     0.012 A 
HETATM   30  C10 UNL     1      -6.492  17.086  22.406  1.00  0.00     0.040 A 
HETATM   31  C11 UNL     1      -7.707  16.995  21.773  1.00  0.00     0.099 A 
HETATM   32  C12 UNL     1      -8.795  16.476  22.463  1.00  0.00     0.101 A 
HETATM   33  C14 UNL     1      -8.627  16.071  23.758  1.00  0.00     0.048 A 
BRANCH  31  34
HETATM   34  O3  UNL     1      -7.926  17.388  20.474  1.00  0.00    -0.358 OA
ATOM     35  H3  UNL     1      -8.789  17.535  20.102  1.00  0.00     0.217 HD
ENDBRANCH  31  34
BRANCH  32  36
HETATM   36  O4  UNL     1     -10.041  16.375  21.839  1.00  0.00    -0.353 OA
HETATM   37  C13 UNL     1     -11.137  15.948  22.614  1.00  0.00     0.210 C 
ENDBRANCH  32  36
ENDBRANCH  27  28
ENDBRANCH   4  27
BRANCH   7  38
HETATM   38  O5  UNL     1     -11.399  18.662  28.505  1.00  0.00    -0.392 OA
ATOM     39  H5  UNL     1     -12.271  18.287  28.485  1.00  0.00     0.210 HD
ENDBRANCH   7  38
BRANCH   5  40
HETATM   40  C15 UNL     1      -7.701  18.420  27.179  1.00  0.00     0.152 C 
BRANCH  40  41
HETATM   41  C16 UNL     1      -6.382  18.611  26.588  1.00  0.00    -0.043 A 
HETATM   42  C17 UNL     1      -5.243  17.899  26.884  1.00  0.00     0.008 A 
HETATM   43  C18 UNL     1      -4.031  18.147  26.257  1.00  0.00     0.001 A 
HETATM   44  C19 UNL     1      -3.931  19.132  25.302  1.00  0.00     0.000 A 
HETATM   45  C20 UNL     1      -5.060  19.868  24.982  1.00  0.00     0.001 A 
HETATM   46  C21 UNL     1      -6.253  19.601  25.620  1.00  0.00     0.008 A 
ENDBRANCH  40  41
ENDBRANCH   5  40
TORSDOF 13
ENDMDL
