MODEL 3
REMARK VINA RESULT: -10.874915392      2.086      8.225
REMARK  13 active torsions:
REMARK  status: ('A' for Active; 'I' for Inactive)
REMARK    1  A    between atoms: O1_2  and  C2_3 
REMARK    2  A    between atoms: C4_5  and  C5_6 
REMARK    3  A    between atoms: C5_6  and  N1_7 
REMARK    4  A    between atoms: N2_10  and  C7_11 
REMARK    5  A    between atoms: C7_11  and  C8_12 
REMARK    6  A    between atoms: C11_15  and  O3_16 
REMARK    7  A    between atoms: C12_18  and  O4_19 
REMARK    8  A    between atoms: N3_22  and  C15_23 
REMARK    9  A    between atoms: C15_23  and  C16_24 
REMARK   10  A    between atoms: C23_31  and  O5_32 
REMARK   11  A    between atoms: C24_34  and  C25_35 
REMARK   12  A    between atoms: C25_35  and  C26_36 
REMARK   13  A    between atoms: C34_44  and  O6_45 
ROOT
HETATM    1  N1  UNL     1      -9.677  16.762  27.966  1.00  0.00    -0.321 N 
HETATM    2  C6  UNL     1     -10.224  16.952  29.246  1.00  0.00     0.336 C 
HETATM    3  O2  UNL     1     -10.598  18.133  29.566  1.00  0.00    -0.246 OA
HETATM    4  N2  UNL     1     -10.422  15.989  30.254  1.00  0.00    -0.257 N 
HETATM    5  N3  UNL     1      -9.891  14.716  30.458  1.00  0.00    -0.218 NA
HETATM    6  C22 UNL     1      -9.555  14.029  29.247  1.00  0.00     0.148 C 
HETATM    7  C23 UNL     1      -8.598  14.675  28.334  1.00  0.00     0.156 C 
HETATM    8  C24 UNL     1      -9.103  15.604  27.314  1.00  0.00     0.123 C 
ENDROOT
BRANCH   1   9
HETATM    9  C5  UNL     1      -9.725  18.010  27.178  1.00  0.00     0.166 C 
BRANCH   9  10
HETATM   10  C4  UNL     1      -8.358  18.470  26.827  1.00  0.00    -0.037 A 
HETATM   11  C3  UNL     1      -7.918  18.200  25.559  1.00  0.00     0.048 A 
HETATM   12  C2  UNL     1      -6.687  18.591  25.086  1.00  0.00     0.101 A 
HETATM   13  C34 UNL     1      -5.889  19.287  25.971  1.00  0.00     0.099 A 
HETATM   14  C33 UNL     1      -6.306  19.572  27.257  1.00  0.00     0.040 A 
HETATM   15  C32 UNL     1      -7.548  19.161  27.688  1.00  0.00     0.012 A 
BRANCH  12  16
HETATM   16  O1  UNL     1      -6.285  18.293  23.790  1.00  0.00    -0.353 OA
HETATM   17  C1  UNL     1      -6.687  19.134  22.705  1.00  0.00     0.210 C 
ENDBRANCH  12  16
BRANCH  13  18
HETATM   18  O6  UNL     1      -4.643  19.690  25.511  1.00  0.00    -0.358 OA
ATOM     19  H6  UNL     1      -3.932  19.693  26.141  1.00  0.00     0.217 HD
ENDBRANCH  13  18
ENDBRANCH   9  10
ENDBRANCH   1   9
BRANCH   8  20
HETATM   20  C25 UNL     1      -9.979  15.051  26.237  1.00  0.00     0.066 C 
BRANCH  20  21
HETATM   21  C26 UNL     1      -9.524  15.371  24.866  1.00  0.00    -0.056 A 
HETATM   22  C27 UNL     1     -10.355  16.010  23.958  1.00  0.00     0.007 A 
HETATM   23  C28 UNL     1      -9.955  16.314  22.679  1.00  0.00     0.001 A 
HETATM   24  C29 UNL     1      -8.691  15.989  22.248  1.00  0.00     0.000 A 
HETATM   25  C30 UNL     1      -7.845  15.357  23.122  1.00  0.00     0.001 A 
HETATM   26  C31 UNL     1      -8.270  15.063  24.397  1.00  0.00     0.007 A 
ENDBRANCH  20  21
ENDBRANCH   8  20
BRANCH   4  27
HETATM   27  C7  UNL     1     -11.359  16.390  31.286  1.00  0.00     0.186 C 
BRANCH  27  28
HETATM   28  C8  UNL     1     -12.191  15.297  31.809  1.00  0.00    -0.036 A 
HETATM   29  C9  UNL     1     -12.632  15.285  33.103  1.00  0.00     0.012 A 
HETATM   30  C10 UNL     1     -13.411  14.232  33.597  1.00  0.00     0.040 A 
HETATM   31  C11 UNL     1     -13.748  13.181  32.780  1.00  0.00     0.099 A 
HETATM   32  C12 UNL     1     -13.309  13.176  31.462  1.00  0.00     0.101 A 
HETATM   33  C14 UNL     1     -12.549  14.222  31.013  1.00  0.00     0.048 A 
BRANCH  31  34
HETATM   34  O3  UNL     1     -14.509  12.109  33.184  1.00  0.00    -0.358 OA
ATOM     35  H3  UNL     1     -15.064  12.113  33.955  1.00  0.00     0.217 HD
ENDBRANCH  31  34
BRANCH  32  36
HETATM   36  O4  UNL     1     -13.639  12.117  30.614  1.00  0.00    -0.353 OA
HETATM   37  C13 UNL     1     -13.763  12.385  29.236  1.00  0.00     0.210 C 
ENDBRANCH  32  36
ENDBRANCH  27  28
ENDBRANCH   4  27
BRANCH   7  38
HETATM   38  O5  UNL     1      -7.839  13.684  27.674  1.00  0.00    -0.392 OA
ATOM     39  H5  UNL     1      -8.287  13.422  26.879  1.00  0.00     0.210 HD
ENDBRANCH   7  38
BRANCH   5  40
HETATM   40  C15 UNL     1      -8.790  14.741  31.343  1.00  0.00     0.152 C 
BRANCH  40  41
HETATM   41  C16 UNL     1      -9.037  15.193  32.708  1.00  0.00    -0.043 A 
HETATM   42  C17 UNL     1      -9.546  14.437  33.739  1.00  0.00     0.008 A 
HETATM   43  C18 UNL     1      -9.733  14.954  35.012  1.00  0.00     0.001 A 
HETATM   44  C19 UNL     1      -9.411  16.263  35.286  1.00  0.00     0.000 A 
HETATM   45  C20 UNL     1      -8.897  17.050  34.269  1.00  0.00     0.001 A 
HETATM   46  C21 UNL     1      -8.719  16.512  33.012  1.00  0.00     0.008 A 
ENDBRANCH  40  41
ENDBRANCH   5  40
TORSDOF 13
ENDMDL
