MODEL 12
REMARK VINA RESULT: -10.383380466      1.268      1.893
REMARK  13 active torsions:
REMARK  status: ('A' for Active; 'I' for Inactive)
REMARK    1  A    between atoms: O1_2  and  C2_3 
REMARK    2  A    between atoms: C4_5  and  C5_6 
REMARK    3  A    between atoms: C5_6  and  N1_7 
REMARK    4  A    between atoms: N2_10  and  C7_11 
REMARK    5  A    between atoms: C7_11  and  C8_12 
REMARK    6  A    between atoms: C11_15  and  O3_16 
REMARK    7  A    between atoms: C12_18  and  O4_19 
REMARK    8  A    between atoms: N3_22  and  C15_23 
REMARK    9  A    between atoms: C15_23  and  C16_24 
REMARK   10  A    between atoms: C23_31  and  O5_32 
REMARK   11  A    between atoms: C24_34  and  C25_35 
REMARK   12  A    between atoms: C25_35  and  C26_36 
REMARK   13  A    between atoms: C34_44  and  O6_45 
ROOT
HETATM    1  N1  UNL     1     -10.358  15.256  28.488  1.00  0.00    -0.321 N 
HETATM    2  C6  UNL     1      -9.211  15.205  27.678  1.00  0.00     0.336 C 
HETATM    3  O2  UNL     1      -8.490  14.150  27.731  1.00  0.00    -0.246 OA
HETATM    4  N2  UNL     1      -8.734  16.190  26.791  1.00  0.00    -0.257 N 
HETATM    5  N3  UNL     1      -9.001  17.552  26.665  1.00  0.00    -0.218 NA
HETATM    6  C22 UNL     1     -10.323  17.923  27.071  1.00  0.00     0.148 C 
HETATM    7  C23 UNL     1     -10.733  17.604  28.448  1.00  0.00     0.156 C 
HETATM    8  C24 UNL     1     -11.338  16.295  28.725  1.00  0.00     0.123 C 
ENDROOT
BRANCH   1   9
HETATM    9  C5  UNL     1     -10.555  13.982  29.208  1.00  0.00     0.166 C 
BRANCH   9  10
HETATM   10  C4  UNL     1     -10.583  14.200  30.676  1.00  0.00    -0.037 A 
HETATM   11  C3  UNL     1      -9.532  14.887  31.222  1.00  0.00     0.048 A 
HETATM   12  C2  UNL     1      -9.439  15.187  32.562  1.00  0.00     0.101 A 
HETATM   13  C34 UNL     1     -10.480  14.752  33.356  1.00  0.00     0.099 A 
HETATM   14  C33 UNL     1     -11.552  14.055  32.832  1.00  0.00     0.040 A 
HETATM   15  C32 UNL     1     -11.605  13.777  31.485  1.00  0.00     0.012 A 
BRANCH  12  16
HETATM   16  O1  UNL     1      -8.352  15.886  33.069  1.00  0.00    -0.353 OA
HETATM   17  C1  UNL     1      -8.409  17.311  33.188  1.00  0.00     0.210 C 
ENDBRANCH  12  16
BRANCH  13  18
HETATM   18  O6  UNL     1     -10.403  15.045  34.710  1.00  0.00    -0.358 OA
ATOM     19  H6  UNL     1     -11.151  14.807  35.246  1.00  0.00     0.217 HD
ENDBRANCH  13  18
ENDBRANCH   9  10
ENDBRANCH   1   9
BRANCH   8  20
HETATM   20  C25 UNL     1     -12.665  15.993  28.107  1.00  0.00     0.066 C 
BRANCH  20  21
HETATM   21  C26 UNL     1     -13.350  14.819  28.691  1.00  0.00    -0.056 A 
HETATM   22  C27 UNL     1     -14.148  14.935  29.820  1.00  0.00     0.007 A 
HETATM   23  C28 UNL     1     -14.791  13.858  30.382  1.00  0.00     0.001 A 
HETATM   24  C29 UNL     1     -14.663  12.605  29.832  1.00  0.00     0.000 A 
HETATM   25  C30 UNL     1     -13.881  12.458  28.716  1.00  0.00     0.001 A 
HETATM   26  C31 UNL     1     -13.247  13.551  28.173  1.00  0.00     0.007 A 
ENDBRANCH  20  21
ENDBRANCH   8  20
BRANCH   4  27
HETATM   27  C7  UNL     1      -7.781  15.699  25.814  1.00  0.00     0.186 C 
BRANCH  27  28
HETATM   28  C8  UNL     1      -8.110  16.038  24.422  1.00  0.00    -0.036 A 
HETATM   29  C9  UNL     1      -9.351  15.801  23.898  1.00  0.00     0.012 A 
HETATM   30  C10 UNL     1      -9.651  16.112  22.567  1.00  0.00     0.040 A 
HETATM   31  C11 UNL     1      -8.692  16.666  21.755  1.00  0.00     0.099 A 
HETATM   32  C12 UNL     1      -7.426  16.913  22.270  1.00  0.00     0.101 A 
HETATM   33  C14 UNL     1      -7.168  16.597  23.575  1.00  0.00     0.048 A 
BRANCH  31  34
HETATM   34  O3  UNL     1      -8.903  17.002  20.438  1.00  0.00    -0.358 OA
ATOM     35  H3  UNL     1      -8.261  17.444  19.894  1.00  0.00     0.217 HD
ENDBRANCH  31  34
BRANCH  32  36
HETATM   36  O4  UNL     1      -6.435  17.475  21.462  1.00  0.00    -0.353 OA
HETATM   37  C13 UNL     1      -5.818  18.664  21.900  1.00  0.00     0.210 C 
ENDBRANCH  32  36
ENDBRANCH  27  28
ENDBRANCH   4  27
BRANCH   7  38
HETATM   38  O5  UNL     1     -11.624  18.596  28.914  1.00  0.00    -0.392 OA
ATOM     39  H5  UNL     1     -12.122  18.253  29.646  1.00  0.00     0.210 HD
ENDBRANCH   7  38
BRANCH   5  40
HETATM   40  C15 UNL     1      -8.032  18.340  27.325  1.00  0.00     0.152 C 
BRANCH  40  41
HETATM   41  C16 UNL     1      -6.634  18.123  26.971  1.00  0.00    -0.043 A 
HETATM   42  C17 UNL     1      -5.770  17.231  27.564  1.00  0.00     0.008 A 
HETATM   43  C18 UNL     1      -4.455  17.087  27.146  1.00  0.00     0.001 A 
HETATM   44  C19 UNL     1      -3.968  17.847  26.108  1.00  0.00     0.000 A 
HETATM   45  C20 UNL     1      -4.812  18.754  25.491  1.00  0.00     0.001 A 
HETATM   46  C21 UNL     1      -6.116  18.878  25.925  1.00  0.00     0.008 A 
ENDBRANCH  40  41
ENDBRANCH   5  40
TORSDOF 13
ENDMDL
