MODEL 6
REMARK VINA RESULT: -5.873984485      1.834      4.569
REMARK  5 active torsions:
REMARK  status: ('A' for Active; 'I' for Inactive)
REMARK    1  A    between atoms: C3_6  and  O2_7 
REMARK    2  A    between atoms: C4_9  and  O3_10 
REMARK    3  A    between atoms: C5_12  and  O4_13 
REMARK    4  A    between atoms: C6_15  and  C7_16 
REMARK    5  A    between atoms: C7_16  and  O5_17 
ROOT
HETATM    1  O1  UNL     1      30.623  66.521   8.975  1.00  0.00    -0.262 OA
HETATM    2  C1  UNL     1      29.800  65.916   9.713  1.00  0.00     0.311 C 
HETATM    3  N1  UNL     1      30.005  65.303  10.979  1.00  0.00    -0.329 N 
ATOM      4  H1  UNL     1      30.897  64.989  11.362  1.00  0.00     0.165 HD
HETATM    5  C2  UNL     1      28.734  65.211  11.613  1.00  0.00     0.222 C 
HETATM    6  C3  UNL     1      28.574  64.014  12.516  1.00  0.00     0.192 C 
HETATM    7  C4  UNL     1      27.234  64.214  13.198  1.00  0.00     0.181 C 
HETATM    8  C5  UNL     1      26.169  64.230  12.154  1.00  0.00     0.174 C 
HETATM    9  C6  UNL     1      26.673  64.165  10.739  1.00  0.00     0.144 C 
HETATM   10  N2  UNL     1      27.814  64.984  10.488  1.00  0.00    -0.311 N 
HETATM   11  C8  UNL     1      28.377  65.698   9.412  1.00  0.00     0.313 C 
HETATM   12  O6  UNL     1      27.726  66.062   8.397  1.00  0.00    -0.262 OA
ENDROOT
BRANCH   9  13
HETATM   13  C7  UNL     1      25.497  64.517   9.835  1.00  0.00     0.192 C 
BRANCH  13  14
HETATM   14  O5  UNL     1      25.586  63.833   8.624  1.00  0.00    -0.399 OA
ATOM     15  H5  UNL     1      25.100  63.018   8.663  1.00  0.00     0.209 HD
ENDBRANCH  13  14
ENDBRANCH   9  13
BRANCH   8  16
HETATM   16  O4  UNL     1      25.340  63.110  12.392  1.00  0.00    -0.391 OA
ATOM     17  H4  UNL     1      25.245  62.654  11.564  1.00  0.00     0.210 HD
ENDBRANCH   8  16
BRANCH   7  18
HETATM   18  O3  UNL     1      27.310  65.480  13.823  1.00  0.00    -0.390 OA
ATOM     19  H3  UNL     1      26.676  65.454  14.530  1.00  0.00     0.210 HD
ENDBRANCH   7  18
BRANCH   6  20
HETATM   20  O2  UNL     1      29.602  63.927  13.464  1.00  0.00    -0.389 OA
ATOM     21  H2  UNL     1      29.271  63.947  14.355  1.00  0.00     0.210 HD
ENDBRANCH   6  20
TORSDOF 5
ENDMDL
