MODEL 2
REMARK VINA RESULT: -6.307641991      2.871      3.854
REMARK  5 active torsions:
REMARK  status: ('A' for Active; 'I' for Inactive)
REMARK    1  A    between atoms: C3_6  and  O2_7 
REMARK    2  A    between atoms: C4_9  and  O3_10 
REMARK    3  A    between atoms: C5_12  and  O4_13 
REMARK    4  A    between atoms: C6_15  and  C7_16 
REMARK    5  A    between atoms: C7_16  and  O5_17 
ROOT
HETATM    1  O1  UNL     1      29.428  64.272  12.489  1.00  0.00    -0.262 OA
HETATM    2  C1  UNL     1      28.431  64.425  11.732  1.00  0.00     0.311 C 
HETATM    3  N1  UNL     1      27.897  65.619  11.175  1.00  0.00    -0.329 N 
ATOM      4  H1  UNL     1      28.039  66.566  11.526  1.00  0.00     0.165 HD
HETATM    5  C2  UNL     1      27.129  65.246  10.037  1.00  0.00     0.222 C 
HETATM    6  C3  UNL     1      25.940  66.134   9.770  1.00  0.00     0.192 C 
HETATM    7  C4  UNL     1      25.384  65.656   8.442  1.00  0.00     0.181 C 
HETATM    8  C5  UNL     1      24.955  64.236   8.591  1.00  0.00     0.174 C 
HETATM    9  C6  UNL     1      25.271  63.620   9.925  1.00  0.00     0.144 C 
HETATM   10  N2  UNL     1      26.569  63.941  10.424  1.00  0.00    -0.311 N 
HETATM   11  C8  UNL     1      27.558  63.351  11.235  1.00  0.00     0.313 C 
HETATM   12  O6  UNL     1      27.633  62.114  11.458  1.00  0.00    -0.262 OA
ENDROOT
BRANCH   9  13
HETATM   13  C7  UNL     1      25.064  62.116   9.777  1.00  0.00     0.192 C 
BRANCH  13  14
HETATM   14  O5  UNL     1      24.767  61.788   8.455  1.00  0.00    -0.399 OA
ATOM     15  H5  UNL     1      24.139  61.077   8.420  1.00  0.00     0.209 HD
ENDBRANCH  13  14
ENDBRANCH   9  13
BRANCH   8  16
HETATM   16  O4  UNL     1      23.555  64.204   8.398  1.00  0.00    -0.391 OA
ATOM     17  H4  UNL     1      23.402  63.866   7.524  1.00  0.00     0.210 HD
ENDBRANCH   8  16
BRANCH   7  18
HETATM   18  O3  UNL     1      26.460  65.737   7.528  1.00  0.00    -0.390 OA
ATOM     19  H3  UNL     1      26.678  64.838   7.311  1.00  0.00     0.210 HD
ENDBRANCH   7  18
BRANCH   6  20
HETATM   20  O2  UNL     1      26.297  67.487   9.698  1.00  0.00    -0.389 OA
ATOM     21  H2  UNL     1      26.742  67.697   8.885  1.00  0.00     0.210 HD
ENDBRANCH   6  20
TORSDOF 5
ENDMDL
