MODEL 5
REMARK VINA RESULT: -6.113366966      2.338      5.288
REMARK  5 active torsions:
REMARK  status: ('A' for Active; 'I' for Inactive)
REMARK    1  A    between atoms: C3_6  and  O2_7 
REMARK    2  A    between atoms: C4_9  and  O3_10 
REMARK    3  A    between atoms: C5_12  and  O4_13 
REMARK    4  A    between atoms: C6_15  and  C7_16 
REMARK    5  A    between atoms: C7_16  and  O5_17 
ROOT
HETATM    1  O1  UNL     1      23.602  64.468   8.742  1.00  0.00    -0.262 OA
HETATM    2  C1  UNL     1      24.610  64.441   9.499  1.00  0.00     0.311 C 
HETATM    3  N1  UNL     1      24.717  63.985  10.841  1.00  0.00    -0.329 N 
ATOM      4  H1  UNL     1      23.952  63.886  11.510  1.00  0.00     0.165 HD
HETATM    5  C2  UNL     1      26.089  63.691  11.079  1.00  0.00     0.222 C 
HETATM    6  C3  UNL     1      26.540  63.929  12.497  1.00  0.00     0.192 C 
HETATM    7  C4  UNL     1      27.961  63.399  12.551  1.00  0.00     0.181 C 
HETATM    8  C5  UNL     1      28.796  64.182  11.596  1.00  0.00     0.174 C 
HETATM    9  C6  UNL     1      28.036  65.181  10.768  1.00  0.00     0.144 C 
HETATM   10  N2  UNL     1      26.792  64.697  10.265  1.00  0.00    -0.311 N 
HETATM   11  C8  UNL     1      25.962  64.897   9.145  1.00  0.00     0.313 C 
HETATM   12  O6  UNL     1      26.363  65.386   8.056  1.00  0.00    -0.262 OA
ENDROOT
BRANCH   9  13
HETATM   13  C7  UNL     1      28.973  65.634   9.654  1.00  0.00     0.192 C 
BRANCH  13  14
HETATM   14  O5  UNL     1      29.868  64.619   9.320  1.00  0.00    -0.399 OA
ATOM     15  H5  UNL     1      29.406  63.864   8.977  1.00  0.00     0.209 HD
ENDBRANCH  13  14
ENDBRANCH   9  13
BRANCH   8  16
HETATM   16  O4  UNL     1      29.764  64.871  12.362  1.00  0.00    -0.391 OA
ATOM     17  H4  UNL     1      30.395  64.227  12.657  1.00  0.00     0.210 HD
ENDBRANCH   8  16
BRANCH   7  18
HETATM   18  O3  UNL     1      27.880  62.053  12.123  1.00  0.00    -0.390 OA
ATOM     19  H3  UNL     1      26.967  61.809  12.221  1.00  0.00     0.210 HD
ENDBRANCH   7  18
BRANCH   6  20
HETATM   20  O2  UNL     1      25.730  63.266  13.428  1.00  0.00    -0.389 OA
ATOM     21  H2  UNL     1      25.974  62.353  13.528  1.00  0.00     0.210 HD
ENDBRANCH   6  20
TORSDOF 5
ENDMDL
