MODEL 1
REMARK VINA RESULT: -5.251755413      0.000      0.000
REMARK  0 active torsions:
REMARK  status: ('A' for Active; 'I' for Inactive)
ROOT
HETATM    1  C1  UNL     1     111.876   6.316  50.391  1.00  0.00     0.158 C 
HETATM    2  N1  UNL     1     112.396   7.635  50.110  1.00  0.00    -0.332 N 
HETATM    3  C2  UNL     1     111.832   8.814  50.502  1.00  0.00     0.184 A 
HETATM    4  N2  UNL     1     112.561   9.839  50.079  1.00  0.00    -0.346 N 
ATOM      5  H2  UNL     1     112.351  10.824  50.241  1.00  0.00     0.167 HD
HETATM    6  C3  UNL     1     113.617   9.368  49.404  1.00  0.00     0.119 A 
HETATM    7  C4  UNL     1     114.690   9.927  48.751  1.00  0.00     0.148 A 
HETATM    8  N3  UNL     1     114.848  11.327  48.697  1.00  0.00    -0.080 NA
HETATM    9  N4  UNL     1     115.585   9.131  48.166  1.00  0.00    -0.339 N 
ATOM     10  H4  UNL     1     116.375   9.563  47.687  1.00  0.00     0.167 HD
HETATM   11  C5  UNL     1     115.502   7.795  48.174  1.00  0.00     0.185 A 
HETATM   12  N5  UNL     1     114.448   7.230  48.816  1.00  0.00    -0.332 N 
HETATM   13  C6  UNL     1     114.330   5.772  48.843  1.00  0.00     0.158 C 
HETATM   14  C7  UNL     1     113.501   7.969  49.431  1.00  0.00     0.141 A 
ENDROOT
TORSDOF 0
ENDMDL
