MODEL 3
REMARK VINA RESULT: -5.245150451      1.670      3.625
REMARK  0 active torsions:
REMARK  status: ('A' for Active; 'I' for Inactive)
ROOT
HETATM    1  C1  UNL     1     116.468   6.662  48.761  1.00  0.00     0.158 C 
HETATM    2  N1  UNL     1     115.025   6.666  48.855  1.00  0.00    -0.332 N 
HETATM    3  C2  UNL     1     114.251   5.621  49.270  1.00  0.00     0.184 A 
HETATM    4  N2  UNL     1     112.967   5.956  49.237  1.00  0.00    -0.346 N 
ATOM      5  H2  UNL     1     112.189   5.350  49.498  1.00  0.00     0.167 HD
HETATM    6  C3  UNL     1     112.861   7.220  48.806  1.00  0.00     0.119 A 
HETATM    7  C4  UNL     1     111.823   8.090  48.572  1.00  0.00     0.148 A 
HETATM    8  N3  UNL     1     110.489   7.693  48.796  1.00  0.00    -0.080 NA
HETATM    9  N4  UNL     1     112.089   9.318  48.128  1.00  0.00    -0.339 N 
ATOM     10  H4  UNL     1     111.306   9.951  47.960  1.00  0.00     0.167 HD
HETATM   11  C5  UNL     1     113.328   9.766  47.890  1.00  0.00     0.185 A 
HETATM   12  N5  UNL     1     114.362   8.917  48.118  1.00  0.00    -0.332 N 
HETATM   13  C6  UNL     1     115.728   9.376  47.869  1.00  0.00     0.158 C 
HETATM   14  C7  UNL     1     114.173   7.658  48.567  1.00  0.00     0.141 A 
ENDROOT
TORSDOF 0
ENDMDL
