MODEL 2
REMARK VINA RESULT: -5.248171223      1.543      1.884
REMARK  0 active torsions:
REMARK  status: ('A' for Active; 'I' for Inactive)
ROOT
HETATM    1  C1  UNL     1     113.591   6.094  49.351  1.00  0.00     0.158 C 
HETATM    2  N1  UNL     1     113.196   7.392  48.850  1.00  0.00    -0.332 N 
HETATM    3  C2  UNL     1     111.916   7.854  48.757  1.00  0.00     0.184 A 
HETATM    4  N2  UNL     1     111.903   9.082  48.255  1.00  0.00    -0.346 N 
ATOM      5  H2  UNL     1     111.070   9.645  48.085  1.00  0.00     0.167 HD
HETATM    6  C3  UNL     1     113.164   9.461  48.007  1.00  0.00     0.119 A 
HETATM    7  C4  UNL     1     113.766  10.588  47.502  1.00  0.00     0.148 A 
HETATM    8  N3  UNL     1     112.993  11.698  47.104  1.00  0.00    -0.080 NA
HETATM    9  N4  UNL     1     115.093  10.625  47.389  1.00  0.00    -0.339 N 
ATOM     10  H4  UNL     1     115.523  11.470  47.012  1.00  0.00     0.167 HD
HETATM   11  C5  UNL     1     115.893   9.611  47.744  1.00  0.00     0.185 A 
HETATM   12  N5  UNL     1     115.311   8.492  48.245  1.00  0.00    -0.332 N 
HETATM   13  C6  UNL     1     116.158   7.367  48.643  1.00  0.00     0.158 C 
HETATM   14  C7  UNL     1     113.974   8.380  48.389  1.00  0.00     0.141 A 
ENDROOT
TORSDOF 0
ENDMDL
