MODEL 16
REMARK VINA RESULT: -7.614003359      3.127      6.515
REMARK  7 active torsions:
REMARK  status: ('A' for Active; 'I' for Inactive)
REMARK    1  A    between atoms: C1_2  and  C2_4 
REMARK    2  A    between atoms: N3_8  and  C4_9 
REMARK    3  A    between atoms: C5_11  and  C6_12 
REMARK    4  A    between atoms: C6_12  and  O3_13 
REMARK    5  A    between atoms: O3_13  and  P1_14 
REMARK    6  A    between atoms: C7_18  and  O7_19 
REMARK    7  A    between atoms: C8_21  and  O8_22 
ROOT
HETATM    1  C4  UNL     1     -24.620  36.654  46.410  1.00  0.00     0.259 C 
HETATM    2  O2  UNL     1     -23.300  36.197  46.417  1.00  0.00    -0.354 OA
HETATM    3  C5  UNL     1     -22.856  36.212  47.708  1.00  0.00     0.180 C 
HETATM    4  C7  UNL     1     -24.062  36.297  48.620  1.00  0.00     0.182 C 
HETATM    5  C8  UNL     1     -25.167  35.936  47.647  1.00  0.00     0.198 C 
ENDROOT
BRANCH   1   6
HETATM    6  N3  UNL     1     -25.313  36.312  45.229  1.00  0.00    -0.301 N 
HETATM    7  C3  UNL     1     -26.498  35.496  45.114  1.00  0.00     0.252 A 
HETATM    8  N2  UNL     1     -26.808  35.453  43.685  1.00  0.00    -0.365 N 
HETATM    9  C2  UNL     1     -25.969  36.125  43.001  1.00  0.00     0.163 A 
ATOM     10  H2  UNL     1     -27.599  34.949  43.285  1.00  0.00     0.161 HD
HETATM   11  C9  UNL     1     -24.973  36.712  43.916  1.00  0.00     0.278 A 
HETATM   12  O9  UNL     1     -24.011  37.431  43.546  1.00  0.00    -0.266 OA
BRANCH   9  13
HETATM   13  C1  UNL     1     -25.997  36.282  41.557  1.00  0.00     0.286 C 
HETATM   14  N1  UNL     1     -26.233  37.573  40.990  1.00  0.00    -0.056 NA
HETATM   15  O1  UNL     1     -25.820  35.317  40.780  1.00  0.00    -0.269 OA
ENDBRANCH   9  13
ENDBRANCH   1   6
BRANCH   5  16
HETATM   16  O8  UNL     1     -26.391  36.436  48.034  1.00  0.00    -0.388 OA
ATOM     17  H8  UNL     1     -26.312  37.290  48.444  1.00  0.00     0.210 HD
ENDBRANCH   5  16
BRANCH   3  18
HETATM   18  C6  UNL     1     -22.096  34.964  48.097  1.00  0.00     0.217 C 
BRANCH  18  19
HETATM   19  O3  UNL     1     -20.771  35.347  48.048  1.00  0.00    -0.280 OA
BRANCH  19  20
HETATM   20  P1  UNL     1     -19.808  34.879  49.130  1.00  0.00     0.422 P 
HETATM   21  O4  UNL     1     -20.035  36.078  50.164  1.00  0.00    -0.617 OA
HETATM   22  O5  UNL     1     -18.522  34.919  48.045  1.00  0.00    -0.617 OA
HETATM   23  O6  UNL     1     -20.708  33.475  49.264  1.00  0.00    -0.617 OA
ENDBRANCH  19  20
ENDBRANCH  18  19
ENDBRANCH   3  18
BRANCH   4  24
HETATM   24  O7  UNL     1     -24.210  37.624  48.993  1.00  0.00    -0.390 OA
ATOM     25  H7  UNL     1     -24.621  37.636  49.850  1.00  0.00     0.210 HD
ENDBRANCH   4  24
TORSDOF 7
ENDMDL
