MODEL 3
REMARK VINA RESULT: -9.048915378      0.067      1.056
REMARK  7 active torsions:
REMARK  status: ('A' for Active; 'I' for Inactive)
REMARK    1  A    between atoms: C1_2  and  C2_4 
REMARK    2  A    between atoms: N3_8  and  C4_9 
REMARK    3  A    between atoms: C5_11  and  C6_12 
REMARK    4  A    between atoms: C6_12  and  O3_13 
REMARK    5  A    between atoms: O3_13  and  P1_14 
REMARK    6  A    between atoms: C7_18  and  O7_19 
REMARK    7  A    between atoms: C8_21  and  O8_22 
ROOT
HETATM    1  C4  UNL     1     -24.830  35.592  46.114  1.00  0.00     0.259 C 
HETATM    2  O2  UNL     1     -24.245  35.870  44.876  1.00  0.00    -0.354 OA
HETATM    3  C5  UNL     1     -25.247  36.116  43.982  1.00  0.00     0.180 C 
HETATM    4  C7  UNL     1     -26.513  36.406  44.762  1.00  0.00     0.182 C 
HETATM    5  C8  UNL     1     -25.935  36.652  46.142  1.00  0.00     0.198 C 
ENDROOT
BRANCH   1   6
HETATM    6  N3  UNL     1     -23.924  35.716  47.189  1.00  0.00    -0.301 N 
HETATM    7  C3  UNL     1     -23.967  36.682  48.261  1.00  0.00     0.252 A 
HETATM    8  N2  UNL     1     -22.811  36.381  49.105  1.00  0.00    -0.365 N 
HETATM    9  C2  UNL     1     -22.142  35.395  48.654  1.00  0.00     0.163 A 
ATOM     10  H2  UNL     1     -22.569  36.898  49.951  1.00  0.00     0.161 HD
HETATM   11  C9  UNL     1     -22.789  34.907  47.423  1.00  0.00     0.278 A 
HETATM   12  O9  UNL     1     -22.369  33.940  46.739  1.00  0.00    -0.266 OA
BRANCH   9  13
HETATM   13  C1  UNL     1     -20.940  34.849  49.260  1.00  0.00     0.286 C 
HETATM   14  N1  UNL     1     -19.707  34.880  48.538  1.00  0.00    -0.056 NA
HETATM   15  O1  UNL     1     -20.943  34.345  50.405  1.00  0.00    -0.269 OA
ENDBRANCH   9  13
ENDBRANCH   1   6
BRANCH   5  16
HETATM   16  O8  UNL     1     -26.850  36.416  47.144  1.00  0.00    -0.388 OA
ATOM     17  H8  UNL     1     -27.635  36.940  47.039  1.00  0.00     0.210 HD
ENDBRANCH   5  16
BRANCH   3  18
HETATM   18  C6  UNL     1     -24.986  37.319  43.102  1.00  0.00     0.217 C 
BRANCH  18  19
HETATM   19  O3  UNL     1     -24.120  38.096  43.845  1.00  0.00    -0.280 OA
BRANCH  19  20
HETATM   20  P1  UNL     1     -24.066  39.600  43.613  1.00  0.00     0.422 P 
HETATM   21  O4  UNL     1     -24.584  39.611  42.100  1.00  0.00    -0.617 OA
HETATM   22  O5  UNL     1     -22.419  39.624  43.953  1.00  0.00    -0.617 OA
HETATM   23  O6  UNL     1     -25.153  39.789  44.872  1.00  0.00    -0.617 OA
ENDBRANCH  19  20
ENDBRANCH  18  19
ENDBRANCH   3  18
BRANCH   4  24
HETATM   24  O7  UNL     1     -27.261  35.240  44.792  1.00  0.00    -0.390 OA
ATOM     25  H7  UNL     1     -26.731  34.550  44.408  1.00  0.00     0.210 HD
ENDBRANCH   4  24
TORSDOF 7
ENDMDL
