MODEL 1
REMARK VINA RESULT: -9.117555387      0.000      0.000
REMARK  7 active torsions:
REMARK  status: ('A' for Active; 'I' for Inactive)
REMARK    1  A    between atoms: C1_2  and  C2_4 
REMARK    2  A    between atoms: N3_8  and  C4_9 
REMARK    3  A    between atoms: C5_11  and  C6_12 
REMARK    4  A    between atoms: C6_12  and  O3_13 
REMARK    5  A    between atoms: O3_13  and  P1_14 
REMARK    6  A    between atoms: C7_18  and  O7_19 
REMARK    7  A    between atoms: C8_21  and  O8_22 
ROOT
HETATM    1  C4  UNL     1     -24.845  35.593  46.106  1.00  0.00     0.259 C 
HETATM    2  O2  UNL     1     -24.262  35.885  44.870  1.00  0.00    -0.354 OA
HETATM    3  C5  UNL     1     -25.266  36.129  43.978  1.00  0.00     0.180 C 
HETATM    4  C7  UNL     1     -26.534  36.404  44.760  1.00  0.00     0.182 C 
HETATM    5  C8  UNL     1     -25.958  36.644  46.142  1.00  0.00     0.198 C 
ENDROOT
BRANCH   1   6
HETATM    6  N3  UNL     1     -23.940  35.717  47.182  1.00  0.00    -0.301 N 
HETATM    7  C3  UNL     1     -23.987  36.678  48.258  1.00  0.00     0.252 A 
HETATM    8  N2  UNL     1     -22.830  36.380  49.101  1.00  0.00    -0.365 N 
HETATM    9  C2  UNL     1     -22.157  35.398  48.646  1.00  0.00     0.163 A 
ATOM     10  H2  UNL     1     -22.591  36.893  49.949  1.00  0.00     0.161 HD
HETATM   11  C9  UNL     1     -22.802  34.912  47.413  1.00  0.00     0.278 A 
HETATM   12  O9  UNL     1     -22.376  33.950  46.726  1.00  0.00    -0.266 OA
BRANCH   9  13
HETATM   13  C1  UNL     1     -20.952  34.855  49.251  1.00  0.00     0.286 C 
HETATM   14  N1  UNL     1     -19.720  34.892  48.528  1.00  0.00    -0.056 NA
HETATM   15  O1  UNL     1     -20.953  34.348  50.395  1.00  0.00    -0.269 OA
ENDBRANCH   9  13
ENDBRANCH   1   6
BRANCH   5  16
HETATM   16  O8  UNL     1     -26.871  36.393  47.142  1.00  0.00    -0.388 OA
ATOM     17  H8  UNL     1     -26.517  36.588  48.002  1.00  0.00     0.210 HD
ENDBRANCH   5  16
BRANCH   3  18
HETATM   18  C6  UNL     1     -25.015  37.340  43.107  1.00  0.00     0.217 C 
BRANCH  18  19
HETATM   19  O3  UNL     1     -24.034  38.040  43.780  1.00  0.00    -0.280 OA
BRANCH  19  20
HETATM   20  P1  UNL     1     -23.984  39.558  43.678  1.00  0.00     0.422 P 
HETATM   21  O4  UNL     1     -22.422  39.749  43.962  1.00  0.00    -0.617 OA
HETATM   22  O5  UNL     1     -25.104  39.711  44.923  1.00  0.00    -0.617 OA
HETATM   23  O6  UNL     1     -24.539  39.428  42.104  1.00  0.00    -0.617 OA
ENDBRANCH  19  20
ENDBRANCH  18  19
ENDBRANCH   3  18
BRANCH   4  24
HETATM   24  O7  UNL     1     -27.273  35.231  44.782  1.00  0.00    -0.390 OA
ATOM     25  H7  UNL     1     -27.824  35.226  44.007  1.00  0.00     0.210 HD
ENDBRANCH   4  24
TORSDOF 7
ENDMDL
