MODEL 2
REMARK VINA RESULT: -9.105321039      2.119      3.010
REMARK  7 active torsions:
REMARK  status: ('A' for Active; 'I' for Inactive)
REMARK    1  A    between atoms: C1_2  and  C2_4 
REMARK    2  A    between atoms: N3_8  and  C4_9 
REMARK    3  A    between atoms: C5_11  and  C6_12 
REMARK    4  A    between atoms: C6_12  and  O3_13 
REMARK    5  A    between atoms: O3_13  and  P1_14 
REMARK    6  A    between atoms: C7_18  and  O7_19 
REMARK    7  A    between atoms: C8_21  and  O8_22 
ROOT
HETATM    1  C4  UNL     1     -25.050  36.383  47.265  1.00  0.00     0.259 C 
HETATM    2  O2  UNL     1     -26.021  35.551  46.701  1.00  0.00    -0.354 OA
HETATM    3  C5  UNL     1     -26.950  36.343  46.089  1.00  0.00     0.180 C 
HETATM    4  C7  UNL     1     -26.346  37.720  45.902  1.00  0.00     0.182 C 
HETATM    5  C8  UNL     1     -24.881  37.411  46.143  1.00  0.00     0.198 C 
ENDROOT
BRANCH   1   6
HETATM    6  N3  UNL     1     -23.852  35.701  47.567  1.00  0.00    -0.301 N 
HETATM    7  C3  UNL     1     -23.234  34.640  46.807  1.00  0.00     0.252 A 
HETATM    8  N2  UNL     1     -22.022  34.286  47.545  1.00  0.00    -0.365 N 
HETATM    9  C2  UNL     1     -21.885  34.994  48.595  1.00  0.00     0.163 A 
ATOM     10  H2  UNL     1     -21.366  33.561  47.255  1.00  0.00     0.161 HD
HETATM   11  C9  UNL     1     -23.019  35.931  48.686  1.00  0.00     0.278 A 
HETATM   12  O9  UNL     1     -23.174  36.767  49.612  1.00  0.00    -0.266 OA
BRANCH   9  13
HETATM   13  C1  UNL     1     -20.788  34.889  49.542  1.00  0.00     0.286 C 
HETATM   14  N1  UNL     1     -19.470  35.272  49.143  1.00  0.00    -0.056 NA
HETATM   15  O1  UNL     1     -20.955  34.471  50.710  1.00  0.00    -0.269 OA
ENDBRANCH   9  13
ENDBRANCH   1   6
BRANCH   5  16
HETATM   16  O8  UNL     1     -24.174  38.517  46.561  1.00  0.00    -0.388 OA
ATOM     17  H8  UNL     1     -23.523  38.784  45.922  1.00  0.00     0.210 HD
ENDBRANCH   5  16
BRANCH   3  18
HETATM   18  C6  UNL     1     -27.352  35.849  44.718  1.00  0.00     0.217 C 
BRANCH  18  19
HETATM   19  O3  UNL     1     -26.522  36.536  43.856  1.00  0.00    -0.280 OA
BRANCH  19  20
HETATM   20  P1  UNL     1     -25.992  35.847  42.606  1.00  0.00     0.422 P 
HETATM   21  O4  UNL     1     -26.318  37.008  41.556  1.00  0.00    -0.617 OA
HETATM   22  O5  UNL     1     -27.060  34.565  42.822  1.00  0.00    -0.617 OA
HETATM   23  O6  UNL     1     -24.487  35.775  43.335  1.00  0.00    -0.617 OA
ENDBRANCH  19  20
ENDBRANCH  18  19
ENDBRANCH   3  18
BRANCH   4  24
HETATM   24  O7  UNL     1     -26.810  38.522  46.934  1.00  0.00    -0.390 OA
ATOM     25  H7  UNL     1     -27.743  38.644  46.803  1.00  0.00     0.210 HD
ENDBRANCH   4  24
TORSDOF 7
ENDMDL
