MODEL 19
REMARK VINA RESULT: -7.333400929      3.249      6.304
REMARK  7 active torsions:
REMARK  status: ('A' for Active; 'I' for Inactive)
REMARK    1  A    between atoms: C1_2  and  C2_4 
REMARK    2  A    between atoms: N3_8  and  C4_9 
REMARK    3  A    between atoms: C5_11  and  C6_12 
REMARK    4  A    between atoms: C6_12  and  O3_13 
REMARK    5  A    between atoms: O3_13  and  P1_14 
REMARK    6  A    between atoms: C7_18  and  O7_19 
REMARK    7  A    between atoms: C8_21  and  O8_22 
ROOT
HETATM    1  C4  UNL     1     -25.269  37.220  45.976  1.00  0.00     0.259 C 
HETATM    2  O2  UNL     1     -24.029  36.899  46.536  1.00  0.00    -0.354 OA
HETATM    3  C5  UNL     1     -24.200  36.759  47.883  1.00  0.00     0.180 C 
HETATM    4  C7  UNL     1     -25.680  36.584  48.155  1.00  0.00     0.182 C 
HETATM    5  C8  UNL     1     -26.180  36.271  46.759  1.00  0.00     0.198 C 
ENDROOT
BRANCH   1   6
HETATM    6  N3  UNL     1     -25.315  36.998  44.583  1.00  0.00    -0.301 N 
HETATM    7  C3  UNL     1     -24.698  37.796  43.549  1.00  0.00     0.252 A 
HETATM    8  N2  UNL     1     -25.047  37.140  42.289  1.00  0.00    -0.365 N 
HETATM    9  C2  UNL     1     -25.762  36.103  42.479  1.00  0.00     0.163 A 
ATOM     10  H2  UNL     1     -24.753  37.472  41.370  1.00  0.00     0.161 HD
HETATM   11  C9  UNL     1     -25.982  35.939  43.927  1.00  0.00     0.278 A 
HETATM   12  O9  UNL     1     -26.651  35.005  44.439  1.00  0.00    -0.266 OA
BRANCH   9  13
HETATM   13  C1  UNL     1     -26.273  35.232  41.434  1.00  0.00     0.286 C 
HETATM   14  N1  UNL     1     -27.345  34.333  41.724  1.00  0.00    -0.056 NA
HETATM   15  O1  UNL     1     -25.804  35.241  40.274  1.00  0.00    -0.269 OA
ENDBRANCH   9  13
ENDBRANCH   1   6
BRANCH   5  16
HETATM   16  O8  UNL     1     -27.512  36.584  46.596  1.00  0.00    -0.388 OA
ATOM     17  H8  UNL     1     -28.071  36.061  47.158  1.00  0.00     0.210 HD
ENDBRANCH   5  16
BRANCH   3  18
HETATM   18  C6  UNL     1     -23.501  35.545  48.454  1.00  0.00     0.217 C 
BRANCH  18  19
HETATM   19  O3  UNL     1     -22.185  35.703  48.069  1.00  0.00    -0.280 OA
BRANCH  19  20
HETATM   20  P1  UNL     1     -21.096  34.881  48.745  1.00  0.00     0.422 P 
HETATM   21  O4  UNL     1     -19.856  35.399  47.878  1.00  0.00    -0.617 OA
HETATM   22  O5  UNL     1     -21.882  33.450  48.341  1.00  0.00    -0.617 OA
HETATM   23  O6  UNL     1     -21.482  35.635  50.189  1.00  0.00    -0.617 OA
ENDBRANCH  19  20
ENDBRANCH  18  19
ENDBRANCH   3  18
BRANCH   4  24
HETATM   24  O7  UNL     1     -26.180  37.817  48.543  1.00  0.00    -0.390 OA
ATOM     25  H7  UNL     1     -26.808  37.665  49.240  1.00  0.00     0.210 HD
ENDBRANCH   4  24
TORSDOF 7
ENDMDL
