MODEL 4
REMARK VINA RESULT: -5.846675057      2.162      3.664
REMARK  7 active torsions:
REMARK  status: ('A' for Active; 'I' for Inactive)
REMARK    1  A    between atoms: C2_2  and  S1_4 
REMARK    2  A    between atoms: S1_4  and  C4_5 
REMARK    3  A    between atoms: C5_7  and  C6_8 
REMARK    4  A    between atoms: C6_8  and  O2_9 
REMARK    5  A    between atoms: C7_11  and  O3_12 
REMARK    6  A    between atoms: C8_14  and  O4_15 
REMARK    7  A    between atoms: C9_17  and  O5_18 
ROOT
HETATM    1  C4  UNL     1     -14.048 -28.812 -27.281  1.00  0.00     0.215 C 
HETATM    2  O1  UNL     1     -13.904 -29.783 -28.249  1.00  0.00    -0.363 OA
HETATM    3  C5  UNL     1     -12.845 -29.431 -29.063  1.00  0.00     0.178 C 
HETATM    4  C7  UNL     1     -11.609 -29.845 -28.272  1.00  0.00     0.180 C 
HETATM    5  C8  UNL     1     -11.511 -28.847 -27.156  1.00  0.00     0.181 C 
HETATM    6  C9  UNL     1     -12.802 -28.311 -26.660  1.00  0.00     0.188 C 
ENDROOT
BRANCH   1   7
HETATM    7  S1  UNL     1     -15.184 -29.435 -25.995  1.00  0.00    -0.131 SA
BRANCH   7   8
HETATM    8  C2  UNL     1     -16.890 -28.981 -26.326  1.00  0.00     0.041 C 
HETATM    9  C1  UNL     1     -17.292 -29.151 -27.763  1.00  0.00     0.021 C 
HETATM   10  C3  UNL     1     -17.250 -27.596 -25.865  1.00  0.00     0.021 C 
ENDBRANCH   7   8
ENDBRANCH   1   7
BRANCH   6  11
HETATM   11  O5  UNL     1     -12.791 -26.908 -26.747  1.00  0.00    -0.389 OA
ATOM     12  H5  UNL     1     -13.150 -26.552 -25.943  1.00  0.00     0.210 HD
ENDBRANCH   6  11
BRANCH   3  13
HETATM   13  C6  UNL     1     -12.883 -30.022 -30.432  1.00  0.00     0.198 C 
BRANCH  13  14
HETATM   14  O2  UNL     1     -11.601 -30.441 -30.774  1.00  0.00    -0.398 OA
ATOM     15  H2  UNL     1     -11.564 -31.389 -30.715  1.00  0.00     0.209 HD
ENDBRANCH  13  14
ENDBRANCH   3  13
BRANCH   5  16
HETATM   16  O4  UNL     1     -10.732 -29.442 -26.150  1.00  0.00    -0.390 OA
ATOM     17  H4  UNL     1     -10.211 -30.116 -26.570  1.00  0.00     0.210 HD
ENDBRANCH   5  16
BRANCH   4  18
HETATM   18  O3  UNL     1     -11.823 -31.140 -27.820  1.00  0.00    -0.390 OA
ATOM     19  H3  UNL     1     -11.670 -31.724 -28.554  1.00  0.00     0.210 HD
ENDBRANCH   4  18
TORSDOF 7
ENDMDL
