MODEL 9
REMARK VINA RESULT: -5.516198216      2.759      5.502
REMARK  7 active torsions:
REMARK  status: ('A' for Active; 'I' for Inactive)
REMARK    1  A    between atoms: C2_2  and  S1_4 
REMARK    2  A    between atoms: S1_4  and  C4_5 
REMARK    3  A    between atoms: C5_7  and  C6_8 
REMARK    4  A    between atoms: C6_8  and  O2_9 
REMARK    5  A    between atoms: C7_11  and  O3_12 
REMARK    6  A    between atoms: C8_14  and  O4_15 
REMARK    7  A    between atoms: C9_17  and  O5_18 
ROOT
HETATM    1  C4  UNL     1     -13.497 -28.165 -26.800  1.00  0.00     0.215 C 
HETATM    2  O1  UNL     1     -13.130 -27.170 -25.919  1.00  0.00    -0.363 OA
HETATM    3  C5  UNL     1     -14.232 -26.371 -25.684  1.00  0.00     0.178 C 
HETATM    4  C7  UNL     1     -15.054 -27.155 -24.666  1.00  0.00     0.180 C 
HETATM    5  C8  UNL     1     -15.638 -28.300 -25.440  1.00  0.00     0.181 C 
HETATM    6  C9  UNL     1     -14.809 -28.806 -26.561  1.00  0.00     0.188 C 
ENDROOT
BRANCH   1   7
HETATM    7  S1  UNL     1     -12.178 -29.427 -26.835  1.00  0.00    -0.131 SA
BRANCH   7   8
HETATM    8  C2  UNL     1     -10.708 -28.842 -27.685  1.00  0.00     0.041 C 
HETATM    9  C1  UNL     1     -10.942 -28.502 -29.129  1.00  0.00     0.021 C 
HETATM   10  C3  UNL     1      -9.532 -29.772 -27.574  1.00  0.00     0.021 C 
ENDBRANCH   7   8
ENDBRANCH   1   7
BRANCH   6  11
HETATM   11  O5  UNL     1     -15.553 -28.760 -27.753  1.00  0.00    -0.389 OA
ATOM     12  H5  UNL     1     -16.462 -28.946 -27.549  1.00  0.00     0.210 HD
ENDBRANCH   6  11
BRANCH   3  13
HETATM   13  C6  UNL     1     -13.917 -24.985 -25.231  1.00  0.00     0.198 C 
BRANCH  13  14
HETATM   14  O2  UNL     1     -14.523 -24.769 -23.997  1.00  0.00    -0.398 OA
ATOM     15  H2  UNL     1     -15.351 -25.236 -23.978  1.00  0.00     0.209 HD
ENDBRANCH  13  14
ENDBRANCH   3  13
BRANCH   5  16
HETATM   16  O4  UNL     1     -15.971 -29.292 -24.503  1.00  0.00    -0.390 OA
ATOM     17  H4  UNL     1     -16.407 -29.986 -24.983  1.00  0.00     0.210 HD
ENDBRANCH   5  16
BRANCH   4  18
HETATM   18  O3  UNL     1     -14.186 -27.568 -23.665  1.00  0.00    -0.390 OA
ATOM     19  H3  UNL     1     -14.353 -27.024 -22.904  1.00  0.00     0.210 HD
ENDBRANCH   4  18
TORSDOF 7
ENDMDL
