MODEL 7
REMARK VINA RESULT: -5.588151492      2.484      4.082
REMARK  7 active torsions:
REMARK  status: ('A' for Active; 'I' for Inactive)
REMARK    1  A    between atoms: C2_2  and  S1_4 
REMARK    2  A    between atoms: S1_4  and  C4_5 
REMARK    3  A    between atoms: C5_7  and  C6_8 
REMARK    4  A    between atoms: C6_8  and  O2_9 
REMARK    5  A    between atoms: C7_11  and  O3_12 
REMARK    6  A    between atoms: C8_14  and  O4_15 
REMARK    7  A    between atoms: C9_17  and  O5_18 
ROOT
HETATM    1  C4  UNL     1     -14.137 -28.899 -27.979  1.00  0.00     0.215 C 
HETATM    2  O1  UNL     1     -13.679 -29.780 -28.936  1.00  0.00    -0.363 OA
HETATM    3  C5  UNL     1     -12.386 -29.423 -29.269  1.00  0.00     0.178 C 
HETATM    4  C7  UNL     1     -11.536 -29.997 -28.140  1.00  0.00     0.180 C 
HETATM    5  C8  UNL     1     -11.823 -29.121 -26.956  1.00  0.00     0.181 C 
HETATM    6  C9  UNL     1     -13.190 -28.548 -26.898  1.00  0.00     0.188 C 
ENDROOT
BRANCH   1   7
HETATM    7  S1  UNL     1     -15.682 -29.564 -27.268  1.00  0.00    -0.131 SA
BRANCH   7   8
HETATM    8  C2  UNL     1     -17.043 -29.506 -28.439  1.00  0.00     0.041 C 
HETATM    9  C1  UNL     1     -18.380 -29.801 -27.823  1.00  0.00     0.021 C 
HETATM   10  C3  UNL     1     -16.843 -30.378 -29.647  1.00  0.00     0.021 C 
ENDBRANCH   7   8
ENDBRANCH   1   7
BRANCH   6  11
HETATM   11  O5  UNL     1     -13.108 -27.147 -26.813  1.00  0.00    -0.389 OA
ATOM     12  H5  UNL     1     -12.681 -26.918 -25.996  1.00  0.00     0.210 HD
ENDBRANCH   6  11
BRANCH   3  13
HETATM   13  C6  UNL     1     -11.939 -29.875 -30.619  1.00  0.00     0.198 C 
BRANCH  13  14
HETATM   14  O2  UNL     1     -10.577 -30.155 -30.568  1.00  0.00    -0.398 OA
ATOM     15  H2  UNL     1     -10.395 -30.638 -29.770  1.00  0.00     0.209 HD
ENDBRANCH  13  14
ENDBRANCH   3  13
BRANCH   5  16
HETATM   16  O4  UNL     1     -11.482 -29.863 -25.813  1.00  0.00    -0.390 OA
ATOM     17  H4  UNL     1     -11.673 -29.312 -25.063  1.00  0.00     0.210 HD
ENDBRANCH   5  16
BRANCH   4  18
HETATM   18  O3  UNL     1     -11.937 -31.311 -27.948  1.00  0.00    -0.390 OA
ATOM     19  H3  UNL     1     -12.539 -31.318 -27.213  1.00  0.00     0.210 HD
ENDBRANCH   4  18
TORSDOF 7
ENDMDL
