MODEL 5
REMARK VINA RESULT: -5.840193904      1.984      3.527
REMARK  7 active torsions:
REMARK  status: ('A' for Active; 'I' for Inactive)
REMARK    1  A    between atoms: C2_2  and  S1_4 
REMARK    2  A    between atoms: S1_4  and  C4_5 
REMARK    3  A    between atoms: C5_7  and  C6_8 
REMARK    4  A    between atoms: C6_8  and  O2_9 
REMARK    5  A    between atoms: C7_11  and  O3_12 
REMARK    6  A    between atoms: C8_14  and  O4_15 
REMARK    7  A    between atoms: C9_17  and  O5_18 
ROOT
HETATM    1  C4  UNL     1     -14.027 -28.810 -27.228  1.00  0.00     0.215 C 
HETATM    2  O1  UNL     1     -13.901 -29.774 -28.205  1.00  0.00    -0.363 OA
HETATM    3  C5  UNL     1     -12.855 -29.416 -29.035  1.00  0.00     0.178 C 
HETATM    4  C7  UNL     1     -11.606 -29.837 -28.268  1.00  0.00     0.180 C 
HETATM    5  C8  UNL     1     -11.489 -28.847 -27.146  1.00  0.00     0.181 C 
HETATM    6  C9  UNL     1     -12.771 -28.314 -26.624  1.00  0.00     0.188 C 
ENDROOT
BRANCH   1   7
HETATM    7  S1  UNL     1     -15.142 -29.442 -25.928  1.00  0.00    -0.131 SA
BRANCH   7   8
HETATM    8  C2  UNL     1     -15.675 -28.144 -24.807  1.00  0.00     0.041 C 
HETATM    9  C1  UNL     1     -16.774 -28.566 -23.874  1.00  0.00     0.021 C 
HETATM   10  C3  UNL     1     -16.067 -26.867 -25.499  1.00  0.00     0.021 C 
ENDBRANCH   7   8
ENDBRANCH   1   7
BRANCH   6  11
HETATM   11  O5  UNL     1     -12.761 -26.910 -26.701  1.00  0.00    -0.389 OA
ATOM     12  H5  UNL     1     -13.495 -26.575 -26.200  1.00  0.00     0.210 HD
ENDBRANCH   6  11
BRANCH   3  13
HETATM   13  C6  UNL     1     -12.916 -29.997 -30.408  1.00  0.00     0.198 C 
BRANCH  13  14
HETATM   14  O2  UNL     1     -11.660 -30.497 -30.738  1.00  0.00    -0.398 OA
ATOM     15  H2  UNL     1     -11.226 -30.780 -29.941  1.00  0.00     0.209 HD
ENDBRANCH  13  14
ENDBRANCH   3  13
BRANCH   5  16
HETATM   16  O4  UNL     1     -10.693 -29.450 -26.157  1.00  0.00    -0.390 OA
ATOM     17  H4  UNL     1     -10.277 -28.745 -25.675  1.00  0.00     0.210 HD
ENDBRANCH   5  16
BRANCH   4  18
HETATM   18  O3  UNL     1     -11.813 -31.135 -27.822  1.00  0.00    -0.390 OA
ATOM     19  H3  UNL     1     -12.736 -31.329 -27.937  1.00  0.00     0.210 HD
ENDBRANCH   4  18
TORSDOF 7
ENDMDL
