MODEL 6
REMARK VINA RESULT: -5.731557701      2.686      5.008
REMARK  7 active torsions:
REMARK  status: ('A' for Active; 'I' for Inactive)
REMARK    1  A    between atoms: C2_2  and  S1_4 
REMARK    2  A    between atoms: S1_4  and  C4_5 
REMARK    3  A    between atoms: C5_7  and  C6_8 
REMARK    4  A    between atoms: C6_8  and  O2_9 
REMARK    5  A    between atoms: C7_11  and  O3_12 
REMARK    6  A    between atoms: C8_14  and  O4_15 
REMARK    7  A    between atoms: C9_17  and  O5_18 
ROOT
HETATM    1  C4  UNL     1     -11.596 -29.691 -27.574  1.00  0.00     0.215 C 
HETATM    2  O1  UNL     1     -12.824 -30.237 -27.885  1.00  0.00    -0.363 OA
HETATM    3  C5  UNL     1     -13.377 -29.502 -28.916  1.00  0.00     0.178 C 
HETATM    4  C7  UNL     1     -12.676 -30.023 -30.167  1.00  0.00     0.180 C 
HETATM    5  C8  UNL     1     -11.282 -29.476 -30.085  1.00  0.00     0.181 C 
HETATM    6  C9  UNL     1     -10.740 -29.300 -28.716  1.00  0.00     0.188 C 
ENDROOT
BRANCH   1   7
HETATM    7  S1  UNL     1     -10.702 -30.851 -26.486  1.00  0.00    -0.131 SA
BRANCH   7   8
HETATM    8  C2  UNL     1      -8.920 -30.658 -26.614  1.00  0.00     0.041 C 
HETATM    9  C1  UNL     1      -8.146 -31.799 -26.018  1.00  0.00     0.021 C 
HETATM   10  C3  UNL     1      -8.408 -29.359 -26.057  1.00  0.00     0.021 C 
ENDBRANCH   7   8
ENDBRANCH   1   7
BRANCH   6  11
HETATM   11  O5  UNL     1     -10.339 -27.964 -28.538  1.00  0.00    -0.389 OA
ATOM     12  H5  UNL     1      -9.404 -27.949 -28.372  1.00  0.00     0.210 HD
ENDBRANCH   6  11
BRANCH   3  13
HETATM   13  C6  UNL     1     -14.864 -29.575 -29.011  1.00  0.00     0.198 C 
BRANCH  13  14
HETATM   14  O2  UNL     1     -15.204 -30.349 -30.117  1.00  0.00    -0.398 OA
ATOM     15  H2  UNL     1     -16.039 -30.771 -29.949  1.00  0.00     0.209 HD
ENDBRANCH  13  14
ENDBRANCH   3  13
BRANCH   5  16
HETATM   16  O4  UNL     1     -10.480 -30.293 -30.900  1.00  0.00    -0.390 OA
ATOM     17  H4  UNL     1      -9.827 -30.688 -30.333  1.00  0.00     0.210 HD
ENDBRANCH   5  16
BRANCH   4  18
HETATM   18  O3  UNL     1     -12.716 -31.410 -30.114  1.00  0.00    -0.390 OA
ATOM     19  H3  UNL     1     -12.380 -31.733 -30.942  1.00  0.00     0.210 HD
ENDBRANCH   4  18
TORSDOF 7
ENDMDL
