MODEL 4
REMARK VINA RESULT: -8.848503854      1.112      1.440
REMARK  5 active torsions:
REMARK  status: ('A' for Active; 'I' for Inactive)
REMARK    1  A    between atoms: N1_2  and  C2_4 
REMARK    2  A    between atoms: C5_9  and  C6_10 
REMARK    3  A    between atoms: C9_15  and  N4_16 
REMARK    4  A    between atoms: N4_16  and  C10_18 
REMARK    5  A    between atoms: C13_21  and  O1_22 
ROOT
HETATM    1  C6  UNL     1      -2.057   9.128  22.949  1.00  0.00     0.069 A 
HETATM    2  C7  UNL     1      -1.110   9.905  23.519  1.00  0.00     0.049 A 
HETATM    3  C8  UNL     1      -0.373   9.369  24.590  1.00  0.00     0.108 A 
HETATM    4  N3  UNL     1      -0.637   8.122  24.997  1.00  0.00    -0.202 N 
ATOM      5  H3  UNL     1      -0.095   7.748  25.776  1.00  0.00     0.183 HD
HETATM    6  C9  UNL     1      -1.564   7.341  24.452  1.00  0.00     0.683 A 
HETATM    7  N5  UNL     1      -2.265   7.856  23.430  1.00  0.00    -0.190 N 
ATOM      8  H5  UNL     1      -2.983   7.280  22.992  1.00  0.00     0.184 HD
ENDROOT
BRANCH   1   9
HETATM    9  C5  UNL     1      -2.855   9.568  21.808  1.00  0.00     0.058 A 
HETATM   10  C3  UNL     1      -2.605  10.069  20.586  1.00  0.00     0.027 A 
HETATM   11  N2  UNL     1      -3.621  10.336  19.801  1.00  0.00    -0.339 N 
HETATM   12  C4  UNL     1      -1.195  10.308  20.082  1.00  0.00     0.070 C 
HETATM   13  C2  UNL     1      -4.856  10.114  20.212  1.00  0.00     0.145 A 
ATOM     14  H2  UNL     1      -3.457  10.717  18.870  1.00  0.00     0.168 HD
HETATM   15  S1  UNL     1      -4.586   9.494  21.791  1.00  0.00    -0.050 SA
BRANCH  13  16
HETATM   16  N1  UNL     1      -6.097  10.325  19.538  1.00  0.00    -0.375 N 
HETATM   17  C1  UNL     1      -6.262   9.907  18.193  1.00  0.00     0.148 C 
ATOM     18  H1  UNL     1      -6.868  10.781  20.026  1.00  0.00     0.161 HD
ENDBRANCH  13  16
ENDBRANCH   1   9
BRANCH   6  19
HETATM   19  N4  UNL     1      -1.808   6.021  24.906  1.00  0.00    -0.192 N 
ATOM     20  H4  UNL     1      -2.668   5.583  24.578  1.00  0.00     0.184 HD
BRANCH  19  21
HETATM   21  C10 UNL     1      -1.005   5.249  25.753  1.00  0.00     0.049 A 
HETATM   22  C11 UNL     1       0.023   5.734  26.508  1.00  0.00     0.033 A 
HETATM   23  C12 UNL     1       0.805   4.915  27.329  1.00  0.00     0.039 A 
HETATM   24  C13 UNL     1       0.566   3.574  27.410  1.00  0.00     0.065 A 
HETATM   25  C14 UNL     1      -0.465   3.059  26.660  1.00  0.00     0.039 A 
HETATM   26  C15 UNL     1      -1.222   3.861  25.862  1.00  0.00     0.033 A 
BRANCH  24  27
HETATM   27  O1  UNL     1       1.335   2.750  28.222  1.00  0.00    -0.361 OA
ATOM     28  H1  UNL     1       1.208   1.809  28.234  1.00  0.00     0.217 HD
ENDBRANCH  24  27
ENDBRANCH  19  21
ENDBRANCH   6  19
TORSDOF 5
ENDMDL
