MODEL 2
REMARK VINA RESULT: -9.079197953      0.836      1.333
REMARK  5 active torsions:
REMARK  status: ('A' for Active; 'I' for Inactive)
REMARK    1  A    between atoms: N1_2  and  C2_4 
REMARK    2  A    between atoms: C5_9  and  C6_10 
REMARK    3  A    between atoms: C9_15  and  N4_16 
REMARK    4  A    between atoms: N4_16  and  C10_18 
REMARK    5  A    between atoms: C13_21  and  O1_22 
ROOT
HETATM    1  C6  UNL     1      -2.335   8.800  22.955  1.00  0.00     0.069 A 
HETATM    2  C7  UNL     1      -1.389   9.716  23.257  1.00  0.00     0.049 A 
HETATM    3  C8  UNL     1      -0.460   9.399  24.264  1.00  0.00     0.108 A 
HETATM    4  N3  UNL     1      -0.551   8.213  24.878  1.00  0.00    -0.202 N 
ATOM      5  H3  UNL     1       0.129   7.998  25.607  1.00  0.00     0.183 HD
HETATM    6  C9  UNL     1      -1.472   7.298  24.596  1.00  0.00     0.683 A 
HETATM    7  N5  UNL     1      -2.357   7.604  23.634  1.00  0.00    -0.190 N 
ATOM      8  H5  UNL     1      -3.076   6.921  23.397  1.00  0.00     0.184 HD
ENDROOT
BRANCH   1   9
HETATM    9  C5  UNL     1      -3.324   9.008  21.902  1.00  0.00     0.058 A 
HETATM   10  C3  UNL     1      -4.487   9.672  21.782  1.00  0.00     0.027 A 
HETATM   11  N2  UNL     1      -5.106   9.644  20.626  1.00  0.00    -0.339 N 
HETATM   12  C4  UNL     1      -5.087  10.466  22.926  1.00  0.00     0.070 C 
HETATM   13  C2  UNL     1      -4.589   8.977  19.611  1.00  0.00     0.145 A 
ATOM     14  H2  UNL     1      -5.990  10.138  20.511  1.00  0.00     0.168 HD
HETATM   15  S1  UNL     1      -3.151   8.350  20.308  1.00  0.00    -0.050 SA
BRANCH  13  16
HETATM   16  N1  UNL     1      -5.080   8.812  18.280  1.00  0.00    -0.375 N 
HETATM   17  C1  UNL     1      -5.098   7.528  17.677  1.00  0.00     0.148 C 
ATOM     18  H1  UNL     1      -5.419   9.621  17.760  1.00  0.00     0.161 HD
ENDBRANCH  13  16
ENDBRANCH   1   9
BRANCH   6  19
HETATM   19  N4  UNL     1      -1.530   6.048  25.262  1.00  0.00    -0.192 N 
ATOM     20  H4  UNL     1      -2.365   5.487  25.097  1.00  0.00     0.184 HD
BRANCH  19  21
HETATM   21  C10 UNL     1      -0.573   5.495  26.120  1.00  0.00     0.049 A 
HETATM   22  C11 UNL     1      -0.504   4.176  26.465  1.00  0.00     0.033 A 
HETATM   23  C12 UNL     1       0.466   3.677  27.339  1.00  0.00     0.039 A 
HETATM   24  C13 UNL     1       1.400   4.503  27.893  1.00  0.00     0.065 A 
HETATM   25  C14 UNL     1       1.355   5.837  27.562  1.00  0.00     0.039 A 
HETATM   26  C15 UNL     1       0.407   6.317  26.711  1.00  0.00     0.033 A 
BRANCH  24  27
HETATM   27  O1  UNL     1       2.370   4.020  28.763  1.00  0.00    -0.361 OA
ATOM     28  H1  UNL     1       2.181   3.872  29.682  1.00  0.00     0.217 HD
ENDBRANCH  24  27
ENDBRANCH  19  21
ENDBRANCH   6  19
TORSDOF 5
ENDMDL
