MODEL 1
REMARK VINA RESULT: -9.203510829      0.000      0.000
REMARK  5 active torsions:
REMARK  status: ('A' for Active; 'I' for Inactive)
REMARK    1  A    between atoms: N1_2  and  C2_4 
REMARK    2  A    between atoms: C5_9  and  C6_10 
REMARK    3  A    between atoms: C9_15  and  N4_16 
REMARK    4  A    between atoms: N4_16  and  C10_18 
REMARK    5  A    between atoms: C13_21  and  O1_22 
ROOT
HETATM    1  C6  UNL     1      -2.441   8.777  22.903  1.00  0.00     0.069 A 
HETATM    2  C7  UNL     1      -1.322   9.508  23.107  1.00  0.00     0.049 A 
HETATM    3  C8  UNL     1      -0.425   9.078  24.100  1.00  0.00     0.108 A 
HETATM    4  N3  UNL     1      -0.713   7.973  24.798  1.00  0.00    -0.202 N 
ATOM      5  H3  UNL     1      -0.053   7.675  25.516  1.00  0.00     0.183 HD
HETATM    6  C9  UNL     1      -1.807   7.241  24.615  1.00  0.00     0.683 A 
HETATM    7  N5  UNL     1      -2.661   7.654  23.666  1.00  0.00    -0.190 N 
ATOM      8  H5  UNL     1      -3.509   7.112  23.503  1.00  0.00     0.184 HD
ENDROOT
BRANCH   1   9
HETATM    9  C5  UNL     1      -3.421   9.110  21.874  1.00  0.00     0.058 A 
HETATM   10  C3  UNL     1      -4.572   9.803  21.819  1.00  0.00     0.027 A 
HETATM   11  N2  UNL     1      -5.186   9.905  20.664  1.00  0.00    -0.339 N 
HETATM   12  C4  UNL     1      -5.164  10.488  23.036  1.00  0.00     0.070 C 
HETATM   13  C2  UNL     1      -4.675   9.335  19.588  1.00  0.00     0.145 A 
ATOM     14  H2  UNL     1      -6.060  10.424  20.597  1.00  0.00     0.168 HD
HETATM   15  S1  UNL     1      -3.252   8.614  20.222  1.00  0.00    -0.050 SA
BRANCH  13  16
HETATM   16  N1  UNL     1      -5.162   9.315  18.245  1.00  0.00    -0.375 N 
HETATM   17  C1  UNL     1      -6.466   9.789  17.949  1.00  0.00     0.148 C 
ATOM     18  H1  UNL     1      -4.569   8.958  17.496  1.00  0.00     0.161 HD
ENDBRANCH  13  16
ENDBRANCH   1   9
BRANCH   6  19
HETATM   19  N4  UNL     1      -2.073   6.070  25.369  1.00  0.00    -0.192 N 
ATOM     20  H4  UNL     1      -3.048   5.779  25.420  1.00  0.00     0.184 HD
BRANCH  19  21
HETATM   21  C10 UNL     1      -1.151   5.269  26.051  1.00  0.00     0.049 A 
HETATM   22  C11 UNL     1      -0.070   5.738  26.740  1.00  0.00     0.033 A 
HETATM   23  C12 UNL     1       0.830   4.890  27.395  1.00  0.00     0.039 A 
HETATM   24  C13 UNL     1       0.662   3.537  27.370  1.00  0.00     0.065 A 
HETATM   25  C14 UNL     1      -0.420   3.037  26.682  1.00  0.00     0.039 A 
HETATM   26  C15 UNL     1      -1.292   3.867  26.047  1.00  0.00     0.033 A 
BRANCH  24  27
HETATM   27  O1  UNL     1       1.548   2.685  28.015  1.00  0.00    -0.361 OA
ATOM     28  H1  UNL     1       2.150   2.135  27.529  1.00  0.00     0.217 HD
ENDBRANCH  24  27
ENDBRANCH  19  21
ENDBRANCH   6  19
TORSDOF 5
ENDMDL
