MODEL 3
REMARK VINA RESULT: -8.855759749      3.995      6.150
REMARK  5 active torsions:
REMARK  status: ('A' for Active; 'I' for Inactive)
REMARK    1  A    between atoms: N1_2  and  C2_4 
REMARK    2  A    between atoms: C5_9  and  C6_10 
REMARK    3  A    between atoms: C9_15  and  N4_16 
REMARK    4  A    between atoms: N4_16  and  C10_18 
REMARK    5  A    between atoms: C13_21  and  O1_22 
ROOT
HETATM    1  C6  UNL     1       0.174   5.204  26.454  1.00  0.00     0.069 A 
HETATM    2  C7  UNL     1      -0.103   3.901  26.684  1.00  0.00     0.049 A 
HETATM    3  C8  UNL     1       0.620   3.241  27.693  1.00  0.00     0.108 A 
HETATM    4  N3  UNL     1       1.545   3.923  28.379  1.00  0.00    -0.202 N 
ATOM      5  H3  UNL     1       2.061   3.430  29.107  1.00  0.00     0.183 HD
HETATM    6  C9  UNL     1       1.833   5.203  28.169  1.00  0.00     0.683 A 
HETATM    7  N5  UNL     1       1.141   5.830  27.205  1.00  0.00    -0.190 N 
ATOM      8  H5  UNL     1       1.341   6.813  27.021  1.00  0.00     0.184 HD
ENDROOT
BRANCH   1   9
HETATM    9  C5  UNL     1      -0.540   5.996  25.457  1.00  0.00     0.058 A 
HETATM   10  C3  UNL     1      -1.827   6.228  25.144  1.00  0.00     0.027 A 
HETATM   11  N2  UNL     1      -2.090   7.049  24.155  1.00  0.00    -0.339 N 
HETATM   12  C4  UNL     1      -2.973   5.595  25.908  1.00  0.00     0.070 C 
HETATM   13  C2  UNL     1      -1.107   7.629  23.492  1.00  0.00     0.145 A 
ATOM     14  H2  UNL     1      -3.058   7.241  23.898  1.00  0.00     0.168 HD
HETATM   15  S1  UNL     1       0.271   6.991  24.294  1.00  0.00    -0.050 SA
BRANCH  13  16
HETATM   16  N1  UNL     1      -1.157   8.545  22.398  1.00  0.00    -0.375 N 
HETATM   17  C1  UNL     1      -2.259   8.534  21.504  1.00  0.00     0.148 C 
ATOM     18  H1  UNL     1      -0.396   9.209  22.258  1.00  0.00     0.161 HD
ENDBRANCH  13  16
ENDBRANCH   1   9
BRANCH   6  19
HETATM   19  N4  UNL     1       2.814   5.895  28.923  1.00  0.00    -0.192 N 
ATOM     20  H4  UNL     1       2.962   5.568  29.877  1.00  0.00     0.184 HD
BRANCH  19  21
HETATM   21  C10 UNL     1       3.602   6.974  28.509  1.00  0.00     0.049 A 
HETATM   22  C11 UNL     1       4.727   7.409  29.149  1.00  0.00     0.033 A 
HETATM   23  C12 UNL     1       5.472   8.503  28.699  1.00  0.00     0.039 A 
HETATM   24  C13 UNL     1       5.098   9.193  27.583  1.00  0.00     0.065 A 
HETATM   25  C14 UNL     1       3.969   8.776  26.918  1.00  0.00     0.039 A 
HETATM   26  C15 UNL     1       3.248   7.710  27.361  1.00  0.00     0.033 A 
BRANCH  24  27
HETATM   27  O1  UNL     1       5.830  10.282  27.126  1.00  0.00    -0.361 OA
ATOM     28  H1  UNL     1       6.655  10.168  26.670  1.00  0.00     0.217 HD
ENDBRANCH  24  27
ENDBRANCH  19  21
ENDBRANCH   6  19
TORSDOF 5
ENDMDL
