MODEL 2
REMARK VINA RESULT: -9.008990797      4.397      8.549
REMARK  4 active torsions:
REMARK  status: ('A' for Active; 'I' for Inactive)
REMARK    1  A    between atoms: C4_8  and  C5_9 
REMARK    2  A    between atoms: C8_14  and  N4_15 
REMARK    3  A    between atoms: N4_15  and  C9_17 
REMARK    4  A    between atoms: C13_21  and  N5_22 
ROOT
HETATM    1  C5  UNL     1      12.980  -8.324  11.144  1.00  0.00     0.069 A 
HETATM    2  C6  UNL     1      14.219  -8.599  11.588  1.00  0.00     0.049 A 
HETATM    3  C7  UNL     1      15.176  -7.570  11.508  1.00  0.00     0.108 A 
HETATM    4  N3  UNL     1      14.803  -6.394  11.002  1.00  0.00    -0.202 N 
ATOM      5  H3  UNL     1      15.510  -5.660  10.951  1.00  0.00     0.183 HD
HETATM    6  C8  UNL     1      13.589  -6.102  10.558  1.00  0.00     0.683 A 
HETATM    7  N6  UNL     1      12.672  -7.092  10.637  1.00  0.00    -0.190 N 
ATOM      8  H6  UNL     1      11.722  -6.916  10.309  1.00  0.00     0.184 HD
ENDROOT
BRANCH   6   9
HETATM    9  N4  UNL     1      13.195  -4.850  10.026  1.00  0.00    -0.192 N 
ATOM     10  H4  UNL     1      12.369  -4.418  10.440  1.00  0.00     0.184 HD
BRANCH   9  11
HETATM   11  C9  UNL     1      13.822  -4.142   8.989  1.00  0.00     0.051 A 
HETATM   12  C10 UNL     1      13.624  -4.387   7.654  1.00  0.00     0.030 A 
HETATM   13  C11 UNL     1      14.296  -3.651   6.668  1.00  0.00     0.005 A 
HETATM   14  C12 UNL     1      15.176  -2.657   7.007  1.00  0.00     0.036 A 
HETATM   15  C13 UNL     1      15.403  -2.378   8.356  1.00  0.00     0.105 A 
HETATM   16  C14 UNL     1      14.728  -3.118   9.287  1.00  0.00     0.066 A 
BRANCH  15  17
HETATM   17  N5  UNL     1      16.314  -1.348   8.704  1.00  0.00    -0.116 N 
HETATM   18  O1  UNL     1      17.137  -0.961   7.870  1.00  0.00    -0.532 OA
HETATM   19  O2  UNL     1      16.280  -0.796   9.946  1.00  0.00    -0.532 OA
ENDBRANCH  15  17
ENDBRANCH   9  11
ENDBRANCH   6   9
BRANCH   1  20
HETATM   20  C4  UNL     1      11.879  -9.285  11.186  1.00  0.00     0.057 A 
HETATM   21  C2  UNL     1      11.338 -10.083  12.142  1.00  0.00     0.026 A 
HETATM   22  C1  UNL     1      11.876 -10.113  13.568  1.00  0.00     0.070 C 
HETATM   23  N1  UNL     1      10.316 -10.827  11.810  1.00  0.00    -0.342 N 
HETATM   24  C3  UNL     1       9.833 -10.803  10.592  1.00  0.00     0.159 A 
ATOM     25  H1  UNL     1       9.888 -11.436  12.508  1.00  0.00     0.167 HD
HETATM   26  N2  UNL     1       8.718 -11.558  10.063  1.00  0.00    -0.074 NA
HETATM   27  S1  UNL     1      10.852  -9.672   9.832  1.00  0.00    -0.053 SA
ENDBRANCH   1  20
TORSDOF 4
ENDMDL
