MODEL 1
REMARK VINA RESULT: -9.261282744      0.000      0.000
REMARK  4 active torsions:
REMARK  status: ('A' for Active; 'I' for Inactive)
REMARK    1  A    between atoms: C4_8  and  C5_9 
REMARK    2  A    between atoms: C8_14  and  N4_15 
REMARK    3  A    between atoms: N4_15  and  C9_17 
REMARK    4  A    between atoms: C13_21  and  N5_22 
ROOT
HETATM    1  C5  UNL     1      15.493  -5.325   8.827  1.00  0.00     0.069 A 
HETATM    2  C6  UNL     1      14.624  -6.021   8.073  1.00  0.00     0.049 A 
HETATM    3  C7  UNL     1      14.191  -7.264   8.570  1.00  0.00     0.108 A 
HETATM    4  N3  UNL     1      14.662  -7.677   9.748  1.00  0.00    -0.202 N 
ATOM      5  H3  UNL     1      14.337  -8.580  10.093  1.00  0.00     0.183 HD
HETATM    6  C8  UNL     1      15.518  -7.008  10.506  1.00  0.00     0.683 A 
HETATM    7  N6  UNL     1      15.932  -5.814  10.026  1.00  0.00    -0.190 N 
ATOM      8  H6  UNL     1      16.591  -5.261  10.574  1.00  0.00     0.184 HD
ENDROOT
BRANCH   6   9
HETATM    9  N4  UNL     1      16.012  -7.446  11.759  1.00  0.00    -0.192 N 
ATOM     10  H4  UNL     1      17.025  -7.449  11.874  1.00  0.00     0.184 HD
BRANCH   9  11
HETATM   11  C9  UNL     1      15.253  -7.877  12.859  1.00  0.00     0.051 A 
HETATM   12  C10 UNL     1      15.541  -7.572  14.164  1.00  0.00     0.030 A 
HETATM   13  C11 UNL     1      14.749  -8.049  15.218  1.00  0.00     0.005 A 
HETATM   14  C12 UNL     1      13.656  -8.838  14.977  1.00  0.00     0.036 A 
HETATM   15  C13 UNL     1      13.331  -9.169  13.661  1.00  0.00     0.105 A 
HETATM   16  C14 UNL     1      14.128  -8.685  12.661  1.00  0.00     0.066 A 
BRANCH  15  17
HETATM   17  N5  UNL     1      12.198  -9.987  13.413  1.00  0.00    -0.116 N 
HETATM   18  O1  UNL     1      11.686  -9.987  12.291  1.00  0.00    -0.532 OA
HETATM   19  O2  UNL     1      11.684 -10.762  14.406  1.00  0.00    -0.532 OA
ENDBRANCH  15  17
ENDBRANCH   9  11
ENDBRANCH   6   9
BRANCH   1  20
HETATM   20  C4  UNL     1      16.011  -4.011   8.451  1.00  0.00     0.057 A 
HETATM   21  C2  UNL     1      15.464  -2.785   8.251  1.00  0.00     0.026 A 
HETATM   22  C1  UNL     1      13.969  -2.532   8.414  1.00  0.00     0.070 C 
HETATM   23  N1  UNL     1      16.264  -1.804   7.923  1.00  0.00    -0.342 N 
HETATM   24  C3  UNL     1      17.553  -2.002   7.792  1.00  0.00     0.159 A 
ATOM     25  H1  UNL     1      15.880  -0.872   7.767  1.00  0.00     0.167 HD
HETATM   26  N2  UNL     1      18.568  -1.035   7.437  1.00  0.00    -0.074 NA
HETATM   27  S1  UNL     1      17.692  -3.661   8.144  1.00  0.00    -0.053 SA
ENDBRANCH   1  20
TORSDOF 4
ENDMDL
