MODEL 3
REMARK VINA RESULT: -9.005935725      4.233      8.444
REMARK  4 active torsions:
REMARK  status: ('A' for Active; 'I' for Inactive)
REMARK    1  A    between atoms: C4_8  and  C5_9 
REMARK    2  A    between atoms: C8_14  and  N4_15 
REMARK    3  A    between atoms: N4_15  and  C9_17 
REMARK    4  A    between atoms: C13_21  and  N5_22 
ROOT
HETATM    1  C5  UNL     1      13.386  -8.072  11.824  1.00  0.00     0.069 A 
HETATM    2  C6  UNL     1      13.987  -7.713  12.971  1.00  0.00     0.049 A 
HETATM    3  C7  UNL     1      15.047  -6.789  12.883  1.00  0.00     0.108 A 
HETATM    4  N3  UNL     1      15.390  -6.330  11.679  1.00  0.00    -0.202 N 
ATOM      5  H3  UNL     1      16.160  -5.661  11.634  1.00  0.00     0.183 HD
HETATM    6  C8  UNL     1      14.812  -6.671  10.536  1.00  0.00     0.683 A 
HETATM    7  N6  UNL     1      13.795  -7.557  10.624  1.00  0.00    -0.190 N 
ATOM      8  H6  UNL     1      13.318  -7.850   9.772  1.00  0.00     0.184 HD
ENDROOT
BRANCH   6   9
HETATM    9  N4  UNL     1      15.176  -6.177   9.260  1.00  0.00    -0.192 N 
ATOM     10  H4  UNL     1      15.257  -6.863   8.511  1.00  0.00     0.184 HD
BRANCH   9  11
HETATM   11  C9  UNL     1      15.435  -4.840   8.918  1.00  0.00     0.051 A 
HETATM   12  C10 UNL     1      14.507  -3.832   8.974  1.00  0.00     0.030 A 
HETATM   13  C11 UNL     1      14.830  -2.520   8.602  1.00  0.00     0.005 A 
HETATM   14  C12 UNL     1      16.089  -2.199   8.169  1.00  0.00     0.036 A 
HETATM   15  C13 UNL     1      17.061  -3.198   8.099  1.00  0.00     0.105 A 
HETATM   16  C14 UNL     1      16.707  -4.465   8.471  1.00  0.00     0.066 A 
BRANCH  15  17
HETATM   17  N5  UNL     1      18.365  -2.863   7.650  1.00  0.00    -0.116 N 
HETATM   18  O1  UNL     1      19.267  -3.701   7.735  1.00  0.00    -0.532 OA
HETATM   19  O2  UNL     1      18.615  -1.631   7.133  1.00  0.00    -0.532 OA
ENDBRANCH  15  17
ENDBRANCH   9  11
ENDBRANCH   6   9
BRANCH   1  20
HETATM   20  C4  UNL     1      12.260  -9.001  11.763  1.00  0.00     0.057 A 
HETATM   21  C2  UNL     1      11.699  -9.887  12.626  1.00  0.00     0.026 A 
HETATM   22  C1  UNL     1      12.239 -10.092  14.037  1.00  0.00     0.070 C 
HETATM   23  N1  UNL     1      10.656 -10.562  12.217  1.00  0.00    -0.342 N 
HETATM   24  C3  UNL     1      10.172 -10.388  11.012  1.00  0.00     0.159 A 
ATOM     25  H1  UNL     1      10.214 -11.233  12.844  1.00  0.00     0.167 HD
HETATM   26  N2  UNL     1       9.036 -11.048  10.408  1.00  0.00    -0.074 NA
HETATM   27  S1  UNL     1      11.220  -9.206  10.379  1.00  0.00    -0.053 SA
ENDBRANCH   1  20
TORSDOF 4
ENDMDL
