MODEL 3
REMARK VINA RESULT: -8.926497523      1.328      1.631
REMARK  4 active torsions:
REMARK  status: ('A' for Active; 'I' for Inactive)
REMARK    1  A    between atoms: C5_7  and  C6_8 
REMARK    2  A    between atoms: C9_13  and  N3_14 
REMARK    3  A    between atoms: N3_14  and  C10_16 
REMARK    4  A    between atoms: C13_19  and  N4_20 
ROOT
HETATM    1  C6  UNL     1      26.729  41.988   9.411  1.00  0.00     0.069 A 
HETATM    2  C7  UNL     1      27.928  41.467   9.051  1.00  0.00     0.049 A 
HETATM    3  C8  UNL     1      28.985  41.547   9.984  1.00  0.00     0.108 A 
HETATM    4  N2  UNL     1      28.765  42.126  11.170  1.00  0.00    -0.202 N 
ATOM      5  H2  UNL     1      29.539  42.175  11.833  1.00  0.00     0.183 HD
HETATM    6  C9  UNL     1      27.596  42.641  11.534  1.00  0.00     0.683 A 
HETATM    7  N5  UNL     1      26.601  42.564  10.651  1.00  0.00    -0.190 N 
ATOM      8  H5  UNL     1      25.695  42.954  10.911  1.00  0.00     0.184 HD
ENDROOT
BRANCH   6   9
HETATM    9  N3  UNL     1      27.410  43.245  12.785  1.00  0.00    -0.192 N 
ATOM     10  H3  UNL     1      27.160  42.612  13.545  1.00  0.00     0.184 HD
BRANCH   9  11
HETATM   11  C10 UNL     1      27.521  44.595  13.136  1.00  0.00     0.049 A 
HETATM   12  C11 UNL     1      27.784  44.949  14.470  1.00  0.00     0.032 A 
HETATM   13  C12 UNL     1      27.907  46.260  14.854  1.00  0.00     0.031 A 
HETATM   14  C13 UNL     1      27.778  47.275  13.956  1.00  0.00     0.029 A 
HETATM   15  C16 UNL     1      27.523  46.964  12.656  1.00  0.00     0.031 A 
HETATM   16  C17 UNL     1      27.395  45.615  12.249  1.00  0.00     0.032 A 
BRANCH  14  17
HETATM   17  N4  UNL     1      27.899  48.656  14.310  1.00  0.00    -0.390 N 
HETATM   18  C14 UNL     1      28.783  49.071  15.393  1.00  0.00     0.149 C 
HETATM   19  C15 UNL     1      27.159  49.690  13.621  1.00  0.00     0.149 C 
ENDBRANCH  14  17
ENDBRANCH   9  11
ENDBRANCH   6   9
BRANCH   1  20
HETATM   20  C5  UNL     1      25.531  42.018   8.552  1.00  0.00     0.056 A 
HETATM   21  C3  UNL     1      24.941  41.127   7.720  1.00  0.00     0.025 A 
HETATM   22  N1  UNL     1      23.865  41.509   7.081  1.00  0.00    -0.357 N 
HETATM   23  C4  UNL     1      25.490  39.728   7.490  1.00  0.00     0.070 C 
HETATM   24  C2  UNL     1      23.382  42.717   7.248  1.00  0.00     0.048 A 
ATOM     25  H1  UNL     1      23.397  40.861   6.448  1.00  0.00     0.166 HD
HETATM   26  C1  UNL     1      22.158  43.300   6.586  1.00  0.00     0.076 C 
HETATM   27  S1  UNL     1      24.473  43.394   8.359  1.00  0.00    -0.073 SA
ENDBRANCH   1  20
TORSDOF 4
ENDMDL
