MODEL 1
REMARK VINA RESULT: -8.986938852      0.000      0.000
REMARK  4 active torsions:
REMARK  status: ('A' for Active; 'I' for Inactive)
REMARK    1  A    between atoms: C5_7  and  C6_8 
REMARK    2  A    between atoms: C9_13  and  N3_14 
REMARK    3  A    between atoms: N3_14  and  C10_16 
REMARK    4  A    between atoms: C13_19  and  N4_20 
ROOT
HETATM    1  C6  UNL     1      26.183  43.129   9.868  1.00  0.00     0.069 A 
HETATM    2  C7  UNL     1      27.174  42.371   9.339  1.00  0.00     0.049 A 
HETATM    3  C8  UNL     1      28.302  42.109  10.148  1.00  0.00     0.108 A 
HETATM    4  N2  UNL     1      28.346  42.611  11.387  1.00  0.00    -0.202 N 
ATOM      5  H2  UNL     1      29.167  42.412  11.959  1.00  0.00     0.183 HD
HETATM    6  C9  UNL     1      27.381  43.355  11.916  1.00  0.00     0.683 A 
HETATM    7  N5  UNL     1      26.319  43.601  11.150  1.00  0.00    -0.190 N 
ATOM      8  H5  UNL     1      25.567  44.171  11.537  1.00  0.00     0.184 HD
ENDROOT
BRANCH   6   9
HETATM    9  N3  UNL     1      27.471  43.867  13.218  1.00  0.00    -0.192 N 
ATOM     10  H3  UNL     1      27.384  43.180  13.967  1.00  0.00     0.184 HD
BRANCH   9  11
HETATM   11  C10 UNL     1      27.662  45.191  13.632  1.00  0.00     0.049 A 
HETATM   12  C11 UNL     1      27.961  45.464  14.977  1.00  0.00     0.032 A 
HETATM   13  C12 UNL     1      28.162  46.746  15.422  1.00  0.00     0.031 A 
HETATM   14  C13 UNL     1      28.079  47.808  14.577  1.00  0.00     0.029 A 
HETATM   15  C16 UNL     1      27.790  47.576  13.267  1.00  0.00     0.031 A 
HETATM   16  C17 UNL     1      27.582  46.258  12.798  1.00  0.00     0.032 A 
BRANCH  14  17
HETATM   17  N4  UNL     1      28.282  49.162  14.995  1.00  0.00    -0.390 N 
HETATM   18  C14 UNL     1      27.395  50.223  14.531  1.00  0.00     0.149 C 
HETATM   19  C15 UNL     1      29.359  49.536  15.884  1.00  0.00     0.149 C 
ENDBRANCH  14  17
ENDBRANCH   9  11
ENDBRANCH   6   9
BRANCH   1  20
HETATM   20  C5  UNL     1      24.954  43.524   9.155  1.00  0.00     0.056 A 
HETATM   21  C3  UNL     1      24.299  43.056   8.066  1.00  0.00     0.025 A 
HETATM   22  N1  UNL     1      23.213  43.682   7.691  1.00  0.00    -0.357 N 
HETATM   23  C4  UNL     1      24.789  41.862   7.263  1.00  0.00     0.070 C 
HETATM   24  C2  UNL     1      22.780  44.727   8.355  1.00  0.00     0.048 A 
ATOM     25  H1  UNL     1      22.698  43.354   6.874  1.00  0.00     0.166 HD
HETATM   26  C1  UNL     1      21.553  45.548   8.048  1.00  0.00     0.076 C 
HETATM   27  S1  UNL     1      23.938  44.877   9.589  1.00  0.00    -0.073 SA
ENDBRANCH   1  20
TORSDOF 4
ENDMDL
