MODEL 4
REMARK VINA RESULT: -8.784316560      1.185      1.903
REMARK  4 active torsions:
REMARK  status: ('A' for Active; 'I' for Inactive)
REMARK    1  A    between atoms: C5_7  and  C6_8 
REMARK    2  A    between atoms: C9_13  and  N3_14 
REMARK    3  A    between atoms: N3_14  and  C10_16 
REMARK    4  A    between atoms: C13_19  and  N4_20 
ROOT
HETATM    1  C6  UNL     1      25.646  43.696   9.925  1.00  0.00     0.069 A 
HETATM    2  C7  UNL     1      26.319  42.774   9.194  1.00  0.00     0.049 A 
HETATM    3  C8  UNL     1      27.453  42.171   9.782  1.00  0.00     0.108 A 
HETATM    4  N2  UNL     1      27.813  42.529  11.020  1.00  0.00    -0.202 N 
ATOM      5  H2  UNL     1      28.634  42.084  11.431  1.00  0.00     0.183 HD
HETATM    6  C9  UNL     1      27.162  43.432  11.745  1.00  0.00     0.683 A 
HETATM    7  N5  UNL     1      26.093  43.998  11.187  1.00  0.00    -0.190 N 
ATOM      8  H5  UNL     1      25.579  44.695  11.727  1.00  0.00     0.184 HD
ENDROOT
BRANCH   6   9
HETATM    9  N3  UNL     1      27.577  43.782  13.037  1.00  0.00    -0.192 N 
ATOM     10  H3  UNL     1      27.774  43.000  13.662  1.00  0.00     0.184 HD
BRANCH   9  11
HETATM   11  C10 UNL     1      27.759  45.056  13.588  1.00  0.00     0.049 A 
HETATM   12  C11 UNL     1      27.735  46.185  12.753  1.00  0.00     0.032 A 
HETATM   13  C12 UNL     1      27.903  47.452  13.253  1.00  0.00     0.031 A 
HETATM   14  C13 UNL     1      28.100  47.666  14.582  1.00  0.00     0.029 A 
HETATM   15  C16 UNL     1      28.129  46.591  15.417  1.00  0.00     0.031 A 
HETATM   16  C17 UNL     1      27.957  45.282  14.912  1.00  0.00     0.032 A 
BRANCH  14  17
HETATM   17  N4  UNL     1      28.278  48.968  15.149  1.00  0.00    -0.390 N 
HETATM   18  C14 UNL     1      27.234  49.979  15.032  1.00  0.00     0.149 C 
HETATM   19  C15 UNL     1      29.486  49.336  15.855  1.00  0.00     0.149 C 
ENDBRANCH  14  17
ENDBRANCH   9  11
ENDBRANCH   6   9
BRANCH   1  20
HETATM   20  C5  UNL     1      24.464  44.443   9.456  1.00  0.00     0.056 A 
HETATM   21  C3  UNL     1      23.926  45.649   9.755  1.00  0.00     0.025 A 
HETATM   22  N1  UNL     1      22.824  45.996   9.140  1.00  0.00    -0.357 N 
HETATM   23  C4  UNL     1      24.537  46.590  10.781  1.00  0.00     0.070 C 
HETATM   24  C2  UNL     1      22.267  45.194   8.265  1.00  0.00     0.048 A 
ATOM     25  H1  UNL     1      22.395  46.898   9.344  1.00  0.00     0.166 HD
HETATM   26  C1  UNL     1      21.004  45.451   7.480  1.00  0.00     0.076 C 
HETATM   27  S1  UNL     1      23.318  43.860   8.274  1.00  0.00    -0.073 SA
ENDBRANCH   1  20
TORSDOF 4
ENDMDL
