MODEL 2
REMARK VINA RESULT: -8.967576433      2.873      7.429
REMARK  4 active torsions:
REMARK  status: ('A' for Active; 'I' for Inactive)
REMARK    1  A    between atoms: C5_7  and  C6_8 
REMARK    2  A    between atoms: C9_13  and  N3_14 
REMARK    3  A    between atoms: N3_14  and  C10_16 
REMARK    4  A    between atoms: C13_19  and  N4_20 
ROOT
HETATM    1  C6  UNL     1      26.981  41.164   9.202  1.00  0.00     0.069 A 
HETATM    2  C7  UNL     1      27.259  39.841   9.104  1.00  0.00     0.049 A 
HETATM    3  C8  UNL     1      26.485  39.073   8.207  1.00  0.00     0.108 A 
HETATM    4  N2  UNL     1      25.522  39.673   7.498  1.00  0.00    -0.202 N 
ATOM      5  H2  UNL     1      24.973  39.104   6.853  1.00  0.00     0.183 HD
HETATM    6  C9  UNL     1      25.240  40.968   7.586  1.00  0.00     0.683 A 
HETATM    7  N5  UNL     1      25.972  41.690   8.434  1.00  0.00    -0.190 N 
ATOM      8  H5  UNL     1      25.771  42.686   8.516  1.00  0.00     0.184 HD
ENDROOT
BRANCH   6   9
HETATM    9  N3  UNL     1      24.218  41.556   6.828  1.00  0.00    -0.192 N 
ATOM     10  H3  UNL     1      24.019  41.106   5.934  1.00  0.00     0.184 HD
BRANCH   9  11
HETATM   11  C10 UNL     1      23.431  42.675   7.129  1.00  0.00     0.049 A 
HETATM   12  C11 UNL     1      22.226  42.884   6.439  1.00  0.00     0.032 A 
HETATM   13  C12 UNL     1      21.424  43.964   6.708  1.00  0.00     0.031 A 
HETATM   14  C13 UNL     1      21.763  44.878   7.656  1.00  0.00     0.029 A 
HETATM   15  C16 UNL     1      22.926  44.702   8.342  1.00  0.00     0.031 A 
HETATM   16  C17 UNL     1      23.760  43.593   8.073  1.00  0.00     0.032 A 
BRANCH  14  17
HETATM   17  N4  UNL     1      20.958  46.019   7.972  1.00  0.00    -0.390 N 
HETATM   18  C14 UNL     1      19.512  45.981   7.787  1.00  0.00     0.149 C 
HETATM   19  C15 UNL     1      21.532  47.245   8.480  1.00  0.00     0.149 C 
ENDBRANCH  14  17
ENDBRANCH   9  11
ENDBRANCH   6   9
BRANCH   1  20
HETATM   20  C5  UNL     1      27.667  42.104  10.108  1.00  0.00     0.056 A 
HETATM   21  C3  UNL     1      28.937  42.227  10.560  1.00  0.00     0.025 A 
HETATM   22  N1  UNL     1      29.197  43.199  11.396  1.00  0.00    -0.357 N 
HETATM   23  C4  UNL     1      30.050  41.275  10.152  1.00  0.00     0.070 C 
HETATM   24  C2  UNL     1      28.250  44.022  11.779  1.00  0.00     0.048 A 
ATOM     25  H1  UNL     1      30.145  43.317  11.754  1.00  0.00     0.166 HD
HETATM   26  C1  UNL     1      28.393  45.183  12.731  1.00  0.00     0.076 C 
HETATM   27  S1  UNL     1      26.896  43.433  10.940  1.00  0.00    -0.073 SA
ENDBRANCH   1  20
TORSDOF 4
ENDMDL
