MODEL 1
REMARK VINA RESULT: -8.266906749      0.000      0.000
REMARK  19 active torsions:
REMARK  status: ('A' for Active; 'I' for Inactive)
REMARK    1  A    between atoms: O1_2  and  C2_3 
REMARK    2  A    between atoms: C2_3  and  C3_5 
REMARK    3  A    between atoms: C4_6  and  O3_7 
REMARK    4  A    between atoms: C8_12  and  O4_13 
REMARK    5  A    between atoms: O4_13  and  C9_14 
REMARK    6  A    between atoms: C9_14  and  C10_15 
REMARK    7  A    between atoms: C10_15  and  C11_16 
REMARK    8  A    between atoms: C11_16  and  C12_17 
REMARK    9  A    between atoms: C12_17  and  N1_18 
REMARK       I    between atoms: N1_18  and  C13_20 
REMARK   10  A    between atoms: C13_20  and  C14_22 
REMARK   11  A    between atoms: C14_22  and  C15_23 
REMARK   12  A    between atoms: C14_22  and  N2_38 
REMARK   13  A    between atoms: C15_23  and  C16_24 
REMARK   14  A    between atoms: C19_27  and  O6_28 
REMARK   15  A    between atoms: O6_28  and  C20_29 
REMARK   16  A    between atoms: C20_29  and  C21_30 
REMARK   17  A    between atoms: C20_29  and  C22_33 
REMARK       I    between atoms: N2_38  and  C25_40 
REMARK   18  A    between atoms: C25_40  and  O12_42 
REMARK   19  A    between atoms: O12_42  and  C26_43 
ROOT
HETATM    1  C14 UNL     1      31.046  30.910  17.707  1.00  0.00     0.183 C 
ENDROOT
BRANCH   1   2
HETATM    2  C13 UNL     1      29.984  29.906  17.815  1.00  0.00     0.240 C 
HETATM    3  N1  UNL     1      28.849  30.088  18.648  1.00  0.00    -0.359 N 
ATOM      4  H1  UNL     1      28.756  30.943  19.196  1.00  0.00     0.162 HD
HETATM    5  O5  UNL     1      30.041  28.813  17.153  1.00  0.00    -0.271 OA
BRANCH   3   6
HETATM    6  C12 UNL     1      27.806  29.055  18.728  1.00  0.00     0.122 C 
BRANCH   6   7
HETATM    7  C11 UNL     1      26.731  29.577  19.648  1.00  0.00     0.022 C 
BRANCH   7   8
HETATM    8  C10 UNL     1      27.392  30.676  20.485  1.00  0.00     0.028 C 
BRANCH   8   9
HETATM    9  C9  UNL     1      26.700  30.790  21.796  1.00  0.00     0.175 C 
BRANCH   9  10
HETATM   10  O4  UNL     1      25.797  29.798  22.065  1.00  0.00    -0.350 OA
BRANCH  10  11
HETATM   11  C8  UNL     1      24.504  29.795  22.453  1.00  0.00     0.087 A 
HETATM   12  C3  UNL     1      23.928  28.517  22.644  1.00  0.00     0.105 A 
HETATM   13  C4  UNL     1      22.624  28.437  23.035  1.00  0.00     0.084 A 
HETATM   14  C5  UNL     1      21.851  29.599  23.249  1.00  0.00     0.038 A 
HETATM   15  C6  UNL     1      22.393  30.840  23.069  1.00  0.00     0.005 A 
HETATM   16  C7  UNL     1      23.720  30.924  22.670  1.00  0.00     0.038 A 
BRANCH  12  17
HETATM   17  C2  UNL     1      24.734  27.329  22.422  1.00  0.00     0.298 C 
HETATM   18  O2  UNL     1      25.271  26.631  23.307  1.00  0.00    -0.259 OA
BRANCH  17  19
HETATM   19  O1  UNL     1      24.949  26.895  21.110  1.00  0.00    -0.322 OA
HETATM   20  C1  UNL     1      26.001  25.986  20.798  1.00  0.00     0.213 C 
ENDBRANCH  17  19
ENDBRANCH  12  17
BRANCH  13  21
HETATM   21  O3  UNL     1      21.979  27.242  23.244  1.00  0.00    -0.360 OA
ATOM     22  H3  UNL     1      21.037  27.145  23.177  1.00  0.00     0.217 HD
ENDBRANCH  13  21
ENDBRANCH  10  11
ENDBRANCH   9  10
ENDBRANCH   8   9
ENDBRANCH   7   8
ENDBRANCH   6   7
ENDBRANCH   3   6
ENDBRANCH   1   2
BRANCH   1  23
HETATM   23  C15 UNL     1      31.444  31.509  19.031  1.00  0.00     0.073 C 
BRANCH  23  24
HETATM   24  C16 UNL     1      32.442  30.655  19.732  1.00  0.00    -0.056 A 
HETATM   25  C17 UNL     1      32.041  29.789  20.717  1.00  0.00     0.010 A 
HETATM   26  C18 UNL     1      32.902  28.962  21.418  1.00  0.00     0.037 A 
HETATM   27  C19 UNL     1      34.241  29.003  21.114  1.00  0.00     0.070 A 
HETATM   28  C23 UNL     1      34.663  29.888  20.106  1.00  0.00     0.037 A 
HETATM   29  C24 UNL     1      33.787  30.699  19.424  1.00  0.00     0.010 A 
BRANCH  27  30
HETATM   30  O6  UNL     1      35.165  28.225  21.751  1.00  0.00    -0.324 OA
BRANCH  30  31
HETATM   31  C20 UNL     1      36.180  27.462  21.181  1.00  0.00     0.329 C 
BRANCH  31  32
HETATM   32  C21 UNL     1      37.507  28.056  21.581  1.00  0.00     0.214 C 
HETATM   33  O7  UNL     1      37.727  28.389  22.778  1.00  0.00    -0.646 OA
HETATM   34  O8  UNL     1      38.453  28.219  20.602  1.00  0.00    -0.646 OA
ENDBRANCH  31  32
BRANCH  31  35
HETATM   35  C22 UNL     1      36.111  26.053  21.675  1.00  0.00     0.214 C 
HETATM   36  O9  UNL     1      37.042  25.261  21.421  1.00  0.00    -0.646 OA
HETATM   37  O10 UNL     1      35.010  25.665  22.405  1.00  0.00    -0.646 OA
ENDBRANCH  31  35
ENDBRANCH  30  31
ENDBRANCH  27  30
ENDBRANCH  23  24
ENDBRANCH   1  23
BRANCH   1  38
HETATM   38  N2  UNL     1      30.730  31.936  16.733  1.00  0.00    -0.323 N 
HETATM   39  C25 UNL     1      31.655  32.438  15.806  1.00  0.00     0.362 C 
HETATM   40  O11 UNL     1      32.826  31.981  15.812  1.00  0.00    -0.238 OA
ATOM     41  H2  UNL     1      29.783  32.314  16.721  1.00  0.00     0.165 HD
BRANCH  39  42
HETATM   42  O12 UNL     1      31.374  33.424  14.861  1.00  0.00    -0.294 OA
BRANCH  42  43
HETATM   43  C26 UNL     1      30.496  33.206  13.775  1.00  0.00     0.061 C 
HETATM   44  C27 UNL     1      30.575  31.798  13.256  1.00  0.00     0.046 C 
HETATM   45  C28 UNL     1      30.978  34.125  12.653  1.00  0.00     0.046 C 
HETATM   46  C29 UNL     1      29.067  33.550  14.138  1.00  0.00     0.046 C 
ENDBRANCH  42  43
ENDBRANCH  39  42
ENDBRANCH   1  38
TORSDOF 19
ENDMDL
