MODEL 4
REMARK VINA RESULT: -7.829517073      4.626      7.399
REMARK  19 active torsions:
REMARK  status: ('A' for Active; 'I' for Inactive)
REMARK    1  A    between atoms: O1_2  and  C2_3 
REMARK    2  A    between atoms: C2_3  and  C3_5 
REMARK    3  A    between atoms: C4_6  and  O3_7 
REMARK    4  A    between atoms: C8_12  and  O4_13 
REMARK    5  A    between atoms: O4_13  and  C9_14 
REMARK    6  A    between atoms: C9_14  and  C10_15 
REMARK    7  A    between atoms: C10_15  and  C11_16 
REMARK    8  A    between atoms: C11_16  and  C12_17 
REMARK    9  A    between atoms: C12_17  and  N1_18 
REMARK       I    between atoms: N1_18  and  C13_20 
REMARK   10  A    between atoms: C13_20  and  C14_22 
REMARK   11  A    between atoms: C14_22  and  C15_23 
REMARK   12  A    between atoms: C14_22  and  N2_38 
REMARK   13  A    between atoms: C15_23  and  C16_24 
REMARK   14  A    between atoms: C19_27  and  O6_28 
REMARK   15  A    between atoms: O6_28  and  C20_29 
REMARK   16  A    between atoms: C20_29  and  C21_30 
REMARK   17  A    between atoms: C20_29  and  C22_33 
REMARK       I    between atoms: N2_38  and  C25_40 
REMARK   18  A    between atoms: C25_40  and  O12_42 
REMARK   19  A    between atoms: O12_42  and  C26_43 
ROOT
HETATM    1  C14 UNL     1      31.151  31.091  17.247  1.00  0.00     0.183 C 
ENDROOT
BRANCH   1   2
HETATM    2  C13 UNL     1      30.641  29.720  17.324  1.00  0.00     0.240 C 
HETATM    3  N1  UNL     1      31.386  28.605  16.855  1.00  0.00    -0.359 N 
ATOM      4  H1  UNL     1      32.310  28.750  16.449  1.00  0.00     0.162 HD
HETATM    5  O5  UNL     1      29.490  29.471  17.823  1.00  0.00    -0.271 OA
BRANCH   3   6
HETATM    6  C12 UNL     1      30.837  27.245  16.950  1.00  0.00     0.122 C 
BRANCH   6   7
HETATM    7  C11 UNL     1      31.967  26.335  17.361  1.00  0.00     0.022 C 
BRANCH   7   8
HETATM    8  C10 UNL     1      32.237  26.644  18.837  1.00  0.00     0.028 C 
BRANCH   8   9
HETATM    9  C9  UNL     1      32.611  25.392  19.548  1.00  0.00     0.175 C 
BRANCH   9  10
HETATM   10  O4  UNL     1      33.518  24.602  18.897  1.00  0.00    -0.350 OA
BRANCH  10  11
HETATM   11  C8  UNL     1      34.865  24.518  18.920  1.00  0.00     0.087 A 
HETATM   12  C3  UNL     1      35.392  23.358  19.536  1.00  0.00     0.105 A 
HETATM   13  C4  UNL     1      36.746  23.205  19.598  1.00  0.00     0.084 A 
HETATM   14  C5  UNL     1      37.618  24.177  19.062  1.00  0.00     0.038 A 
HETATM   15  C6  UNL     1      37.124  25.303  18.465  1.00  0.00     0.005 A 
HETATM   16  C7  UNL     1      35.747  25.460  18.401  1.00  0.00     0.038 A 
BRANCH  12  17
HETATM   17  C2  UNL     1      34.485  22.363  20.082  1.00  0.00     0.298 C 
HETATM   18  O2  UNL     1      34.062  22.322  21.256  1.00  0.00    -0.259 OA
BRANCH  17  19
HETATM   19  O1  UNL     1      34.020  21.342  19.246  1.00  0.00    -0.322 OA
HETATM   20  C1  UNL     1      34.075  19.977  19.650  1.00  0.00     0.213 C 
ENDBRANCH  17  19
ENDBRANCH  12  17
BRANCH  13  21
HETATM   21  O3  UNL     1      37.349  22.114  20.176  1.00  0.00    -0.360 OA
ATOM     22  H3  UNL     1      37.215  21.870  21.084  1.00  0.00     0.217 HD
ENDBRANCH  13  21
ENDBRANCH  10  11
ENDBRANCH   9  10
ENDBRANCH   8   9
ENDBRANCH   7   8
ENDBRANCH   6   7
ENDBRANCH   3   6
ENDBRANCH   1   2
BRANCH   1  23
HETATM   23  C15 UNL     1      31.410  31.713  18.595  1.00  0.00     0.073 C 
BRANCH  23  24
HETATM   24  C16 UNL     1      32.296  30.852  19.426  1.00  0.00    -0.056 A 
HETATM   25  C17 UNL     1      31.770  30.104  20.449  1.00  0.00     0.010 A 
HETATM   26  C18 UNL     1      32.520  29.279  21.270  1.00  0.00     0.037 A 
HETATM   27  C19 UNL     1      33.875  29.198  21.053  1.00  0.00     0.070 A 
HETATM   28  C23 UNL     1      34.423  29.961  20.007  1.00  0.00     0.037 A 
HETATM   29  C24 UNL     1      33.656  30.773  19.206  1.00  0.00     0.010 A 
BRANCH  27  30
HETATM   30  O6  UNL     1      34.696  28.412  21.810  1.00  0.00    -0.324 OA
BRANCH  30  31
HETATM   31  C20 UNL     1      35.641  27.489  21.372  1.00  0.00     0.329 C 
BRANCH  31  32
HETATM   32  C21 UNL     1      37.015  28.045  21.648  1.00  0.00     0.214 C 
HETATM   33  O7  UNL     1      37.264  28.630  22.738  1.00  0.00    -0.646 OA
HETATM   34  O8  UNL     1      37.972  27.890  20.678  1.00  0.00    -0.646 OA
ENDBRANCH  31  32
BRANCH  31  35
HETATM   35  C22 UNL     1      35.484  26.196  22.104  1.00  0.00     0.214 C 
HETATM   36  O9  UNL     1      36.458  25.422  22.209  1.00  0.00    -0.646 OA
HETATM   37  O10 UNL     1      34.255  25.892  22.645  1.00  0.00    -0.646 OA
ENDBRANCH  31  35
ENDBRANCH  30  31
ENDBRANCH  27  30
ENDBRANCH  23  24
ENDBRANCH   1  23
BRANCH   1  38
HETATM   38  N2  UNL     1      30.315  31.939  16.422  1.00  0.00    -0.323 N 
HETATM   39  C25 UNL     1      30.687  32.396  15.149  1.00  0.00     0.362 C 
HETATM   40  O11 UNL     1      31.807  32.058  14.689  1.00  0.00    -0.238 OA
ATOM     41  H2  UNL     1      29.405  32.220  16.787  1.00  0.00     0.165 HD
BRANCH  39  42
HETATM   42  O12 UNL     1      29.900  33.212  14.339  1.00  0.00    -0.294 OA
BRANCH  42  43
HETATM   43  C26 UNL     1      30.097  34.608  14.246  1.00  0.00     0.061 C 
HETATM   44  C27 UNL     1      30.877  35.148  15.413  1.00  0.00     0.046 C 
HETATM   45  C28 UNL     1      28.705  35.236  14.311  1.00  0.00     0.046 C 
HETATM   46  C29 UNL     1      30.770  34.991  12.945  1.00  0.00     0.046 C 
ENDBRANCH  42  43
ENDBRANCH  39  42
ENDBRANCH   1  38
TORSDOF 19
ENDMDL
