MODEL 2
REMARK VINA RESULT: -8.165490746      4.891      7.720
REMARK  19 active torsions:
REMARK  status: ('A' for Active; 'I' for Inactive)
REMARK    1  A    between atoms: O1_2  and  C2_3 
REMARK    2  A    between atoms: C2_3  and  C3_5 
REMARK    3  A    between atoms: C4_6  and  O3_7 
REMARK    4  A    between atoms: C8_12  and  O4_13 
REMARK    5  A    between atoms: O4_13  and  C9_14 
REMARK    6  A    between atoms: C9_14  and  C10_15 
REMARK    7  A    between atoms: C10_15  and  C11_16 
REMARK    8  A    between atoms: C11_16  and  C12_17 
REMARK    9  A    between atoms: C12_17  and  N1_18 
REMARK       I    between atoms: N1_18  and  C13_20 
REMARK   10  A    between atoms: C13_20  and  C14_22 
REMARK   11  A    between atoms: C14_22  and  C15_23 
REMARK   12  A    between atoms: C14_22  and  N2_38 
REMARK   13  A    between atoms: C15_23  and  C16_24 
REMARK   14  A    between atoms: C19_27  and  O6_28 
REMARK   15  A    between atoms: O6_28  and  C20_29 
REMARK   16  A    between atoms: C20_29  and  C21_30 
REMARK   17  A    between atoms: C20_29  and  C22_33 
REMARK       I    between atoms: N2_38  and  C25_40 
REMARK   18  A    between atoms: C25_40  and  O12_42 
REMARK   19  A    between atoms: O12_42  and  C26_43 
ROOT
HETATM    1  C14 UNL     1      31.575  31.246  17.391  1.00  0.00     0.183 C 
ENDROOT
BRANCH   1   2
HETATM    2  C13 UNL     1      31.559  29.840  16.980  1.00  0.00     0.240 C 
HETATM    3  N1  UNL     1      32.643  29.238  16.288  1.00  0.00    -0.359 N 
ATOM      4  H1  UNL     1      33.468  29.793  16.063  1.00  0.00     0.162 HD
HETATM    5  O5  UNL     1      30.553  29.090  17.233  1.00  0.00    -0.271 OA
BRANCH   3   6
HETATM    6  C12 UNL     1      32.586  27.824  15.892  1.00  0.00     0.122 C 
BRANCH   6   7
HETATM    7  C11 UNL     1      33.939  27.224  16.184  1.00  0.00     0.022 C 
BRANCH   7   8
HETATM    8  C10 UNL     1      34.203  27.490  17.669  1.00  0.00     0.028 C 
BRANCH   8   9
HETATM    9  C9  UNL     1      33.600  26.403  18.486  1.00  0.00     0.175 C 
BRANCH   9  10
HETATM   10  O4  UNL     1      34.109  25.154  18.258  1.00  0.00    -0.350 OA
BRANCH  10  11
HETATM   11  C8  UNL     1      34.539  24.162  19.067  1.00  0.00     0.087 A 
HETATM   12  C3  UNL     1      35.864  23.722  18.838  1.00  0.00     0.105 A 
HETATM   13  C4  UNL     1      36.366  22.720  19.616  1.00  0.00     0.084 A 
HETATM   14  C5  UNL     1      35.590  22.125  20.635  1.00  0.00     0.038 A 
HETATM   15  C6  UNL     1      34.309  22.540  20.867  1.00  0.00     0.005 A 
HETATM   16  C7  UNL     1      33.796  23.558  20.076  1.00  0.00     0.038 A 
BRANCH  12  17
HETATM   17  C2  UNL     1      36.653  24.343  17.788  1.00  0.00     0.298 C 
HETATM   18  O2  UNL     1      36.969  23.819  16.700  1.00  0.00    -0.259 OA
BRANCH  17  19
HETATM   19  O1  UNL     1      37.120  25.648  17.978  1.00  0.00    -0.322 OA
HETATM   20  C1  UNL     1      38.362  25.899  18.631  1.00  0.00     0.213 C 
ENDBRANCH  17  19
ENDBRANCH  12  17
BRANCH  13  21
HETATM   21  O3  UNL     1      37.640  22.226  19.469  1.00  0.00    -0.360 OA
ATOM     22  H3  UNL     1      38.029  21.612  20.079  1.00  0.00     0.217 HD
ENDBRANCH  13  21
ENDBRANCH  10  11
ENDBRANCH   9  10
ENDBRANCH   8   9
ENDBRANCH   7   8
ENDBRANCH   6   7
ENDBRANCH   3   6
ENDBRANCH   1   2
BRANCH   1  23
HETATM   23  C15 UNL     1      31.412  31.440  18.877  1.00  0.00     0.073 C 
BRANCH  23  24
HETATM   24  C16 UNL     1      32.417  30.651  19.639  1.00  0.00    -0.056 A 
HETATM   25  C17 UNL     1      32.011  29.720  20.562  1.00  0.00     0.010 A 
HETATM   26  C18 UNL     1      32.878  28.946  21.313  1.00  0.00     0.037 A 
HETATM   27  C19 UNL     1      34.229  29.111  21.129  1.00  0.00     0.070 A 
HETATM   28  C23 UNL     1      34.656  30.062  20.185  1.00  0.00     0.037 A 
HETATM   29  C24 UNL     1      33.774  30.819  19.452  1.00  0.00     0.010 A 
BRANCH  27  30
HETATM   30  O6  UNL     1      35.160  28.393  21.824  1.00  0.00    -0.324 OA
BRANCH  30  31
HETATM   31  C20 UNL     1      36.171  27.582  21.314  1.00  0.00     0.329 C 
BRANCH  31  32
HETATM   32  C21 UNL     1      37.501  28.156  21.734  1.00  0.00     0.214 C 
HETATM   33  O7  UNL     1      37.744  28.389  22.950  1.00  0.00    -0.646 OA
HETATM   34  O8  UNL     1      38.423  28.412  20.752  1.00  0.00    -0.646 OA
ENDBRANCH  31  32
BRANCH  31  35
HETATM   35  C22 UNL     1      36.048  26.195  21.856  1.00  0.00     0.214 C 
HETATM   36  O9  UNL     1      36.966  25.371  21.660  1.00  0.00    -0.646 OA
HETATM   37  O10 UNL     1      34.914  25.863  22.562  1.00  0.00    -0.646 OA
ENDBRANCH  31  35
ENDBRANCH  30  31
ENDBRANCH  27  30
ENDBRANCH  23  24
ENDBRANCH   1  23
BRANCH   1  38
HETATM   38  N2  UNL     1      30.625  32.045  16.642  1.00  0.00    -0.323 N 
HETATM   39  C25 UNL     1      30.829  32.454  15.317  1.00  0.00     0.362 C 
HETATM   40  O11 UNL     1      31.891  32.116  14.736  1.00  0.00    -0.238 OA
ATOM     41  H2  UNL     1      29.760  32.325  17.105  1.00  0.00     0.165 HD
BRANCH  39  42
HETATM   42  O12 UNL     1      29.930  33.222  14.578  1.00  0.00    -0.294 OA
BRANCH  42  43
HETATM   43  C26 UNL     1      30.152  34.589  14.295  1.00  0.00     0.061 C 
HETATM   44  C27 UNL     1      30.988  35.257  15.351  1.00  0.00     0.046 C 
HETATM   45  C28 UNL     1      28.777  35.254  14.324  1.00  0.00     0.046 C 
HETATM   46  C29 UNL     1      30.783  34.779  12.932  1.00  0.00     0.046 C 
ENDBRANCH  42  43
ENDBRANCH  39  42
ENDBRANCH   1  38
TORSDOF 19
ENDMDL
