MODEL 3
REMARK VINA RESULT: -7.977423260      5.119      6.992
REMARK  19 active torsions:
REMARK  status: ('A' for Active; 'I' for Inactive)
REMARK    1  A    between atoms: O1_2  and  C2_3 
REMARK    2  A    between atoms: C2_3  and  C3_5 
REMARK    3  A    between atoms: C4_6  and  O3_7 
REMARK    4  A    between atoms: C8_12  and  O4_13 
REMARK    5  A    between atoms: O4_13  and  C9_14 
REMARK    6  A    between atoms: C9_14  and  C10_15 
REMARK    7  A    between atoms: C10_15  and  C11_16 
REMARK    8  A    between atoms: C11_16  and  C12_17 
REMARK    9  A    between atoms: C12_17  and  N1_18 
REMARK       I    between atoms: N1_18  and  C13_20 
REMARK   10  A    between atoms: C13_20  and  C14_22 
REMARK   11  A    between atoms: C14_22  and  C15_23 
REMARK   12  A    between atoms: C14_22  and  N2_38 
REMARK   13  A    between atoms: C15_23  and  C16_24 
REMARK   14  A    between atoms: C19_27  and  O6_28 
REMARK   15  A    between atoms: O6_28  and  C20_29 
REMARK   16  A    between atoms: C20_29  and  C21_30 
REMARK   17  A    between atoms: C20_29  and  C22_33 
REMARK       I    between atoms: N2_38  and  C25_40 
REMARK   18  A    between atoms: C25_40  and  O12_42 
REMARK   19  A    between atoms: O12_42  and  C26_43 
ROOT
HETATM    1  C14 UNL     1      35.304  30.159  16.681  1.00  0.00     0.183 C 
ENDROOT
BRANCH   1   2
HETATM    2  C13 UNL     1      34.094  30.949  16.447  1.00  0.00     0.240 C 
HETATM    3  N1  UNL     1      33.043  31.029  17.399  1.00  0.00    -0.359 N 
ATOM      4  H1  UNL     1      33.122  30.523  18.281  1.00  0.00     0.162 HD
HETATM    5  O5  UNL     1      33.934  31.607  15.361  1.00  0.00    -0.271 OA
BRANCH   3   6
HETATM    6  C12 UNL     1      31.843  31.832  17.125  1.00  0.00     0.122 C 
BRANCH   6   7
HETATM    7  C11 UNL     1      31.075  31.942  18.417  1.00  0.00     0.022 C 
BRANCH   7   8
HETATM    8  C10 UNL     1      32.047  31.517  19.521  1.00  0.00     0.028 C 
BRANCH   8   9
HETATM    9  C9  UNL     1      31.571  30.254  20.147  1.00  0.00     0.175 C 
BRANCH   9  10
HETATM   10  O4  UNL     1      32.265  29.130  19.790  1.00  0.00    -0.350 OA
BRANCH  10  11
HETATM   11  C8  UNL     1      32.921  28.179  20.489  1.00  0.00     0.087 A 
HETATM   12  C3  UNL     1      32.765  26.857  20.010  1.00  0.00     0.105 A 
HETATM   13  C4  UNL     1      33.397  25.843  20.668  1.00  0.00     0.084 A 
HETATM   14  C5  UNL     1      34.195  26.093  21.806  1.00  0.00     0.038 A 
HETATM   15  C6  UNL     1      34.354  27.364  22.280  1.00  0.00     0.005 A 
HETATM   16  C7  UNL     1      33.711  28.398  21.613  1.00  0.00     0.038 A 
BRANCH  12  17
HETATM   17  C2  UNL     1      31.944  26.612  18.837  1.00  0.00     0.298 C 
HETATM   18  O2  UNL     1      32.045  27.193  17.737  1.00  0.00    -0.259 OA
BRANCH  17  19
HETATM   19  O1  UNL     1      30.937  25.643  18.909  1.00  0.00    -0.322 OA
HETATM   20  C1  UNL     1      30.657  24.789  17.803  1.00  0.00     0.213 C 
ENDBRANCH  17  19
ENDBRANCH  12  17
BRANCH  13  21
HETATM   21  O3  UNL     1      33.306  24.528  20.278  1.00  0.00    -0.360 OA
ATOM     22  H3  UNL     1      33.955  24.106  19.729  1.00  0.00     0.217 HD
ENDBRANCH  13  21
ENDBRANCH  10  11
ENDBRANCH   9  10
ENDBRANCH   8   9
ENDBRANCH   7   8
ENDBRANCH   6   7
ENDBRANCH   3   6
ENDBRANCH   1   2
BRANCH   1  23
HETATM   23  C15 UNL     1      35.610  29.944  18.141  1.00  0.00     0.073 C 
BRANCH  23  24
HETATM   24  C16 UNL     1      35.975  28.526  18.413  1.00  0.00    -0.056 A 
HETATM   25  C17 UNL     1      36.794  28.213  19.468  1.00  0.00     0.010 A 
HETATM   26  C18 UNL     1      37.183  26.925  19.791  1.00  0.00     0.037 A 
HETATM   27  C19 UNL     1      36.725  25.890  19.013  1.00  0.00     0.070 A 
HETATM   28  C23 UNL     1      35.884  26.199  17.929  1.00  0.00     0.037 A 
HETATM   29  C24 UNL     1      35.512  27.488  17.630  1.00  0.00     0.010 A 
BRANCH  27  30
HETATM   30  O6  UNL     1      37.054  24.586  19.253  1.00  0.00    -0.324 OA
BRANCH  30  31
HETATM   31  C20 UNL     1      36.447  23.699  20.138  1.00  0.00     0.329 C 
BRANCH  31  32
HETATM   32  C21 UNL     1      36.234  22.387  19.427  1.00  0.00     0.214 C 
HETATM   33  O7  UNL     1      36.649  22.220  18.247  1.00  0.00    -0.646 OA
HETATM   34  O8  UNL     1      35.578  21.393  20.108  1.00  0.00    -0.646 OA
ENDBRANCH  31  32
BRANCH  31  35
HETATM   35  C22 UNL     1      37.323  23.470  21.327  1.00  0.00     0.214 C 
HETATM   36  O9  UNL     1      36.829  23.493  22.473  1.00  0.00    -0.646 OA
HETATM   37  O10 UNL     1      38.664  23.238  21.121  1.00  0.00    -0.646 OA
ENDBRANCH  31  35
ENDBRANCH  30  31
ENDBRANCH  27  30
ENDBRANCH  23  24
ENDBRANCH   1  23
BRANCH   1  38
HETATM   38  N2  UNL     1      36.451  30.692  15.970  1.00  0.00    -0.323 N 
HETATM   39  C25 UNL     1      37.090  30.024  14.916  1.00  0.00     0.362 C 
HETATM   40  O11 UNL     1      36.656  28.899  14.560  1.00  0.00    -0.238 OA
ATOM     41  H2  UNL     1      36.811  31.603  16.253  1.00  0.00     0.165 HD
BRANCH  39  42
HETATM   42  O12 UNL     1      38.192  30.516  14.220  1.00  0.00    -0.294 OA
BRANCH  42  43
HETATM   43  C26 UNL     1      38.078  31.513  13.224  1.00  0.00     0.061 C 
HETATM   44  C27 UNL     1      38.947  31.224  12.031  1.00  0.00     0.046 C 
HETATM   45  C28 UNL     1      38.600  32.803  13.856  1.00  0.00     0.046 C 
HETATM   46  C29 UNL     1      36.640  31.703  12.789  1.00  0.00     0.046 C 
ENDBRANCH  42  43
ENDBRANCH  39  42
ENDBRANCH   1  38
TORSDOF 19
ENDMDL
