MODEL 1
REMARK VINA RESULT: -10.310419261      0.000      0.000
REMARK  15 active torsions:
REMARK  status: ('A' for Active; 'I' for Inactive)
REMARK    1  A    between atoms: C2_2  and  C3_4 
REMARK    2  A    between atoms: N1_8  and  C7_9 
REMARK    3  A    between atoms: C8_11  and  C9_12 
REMARK    4  A    between atoms: C9_12  and  O3_13 
REMARK    5  A    between atoms: O3_13  and  P1_14 
REMARK    6  A    between atoms: P1_14  and  O6_17 
REMARK    7  A    between atoms: O6_17  and  P2_18 
REMARK    8  A    between atoms: P2_18  and  O9_21 
REMARK    9  A    between atoms: O9_21  and  C10_22 
REMARK   10  A    between atoms: C10_22  and  C11_23 
REMARK   11  A    between atoms: C12_25  and  N2_26 
REMARK   12  A    between atoms: C18_39  and  O11_40 
REMARK   13  A    between atoms: C19_42  and  O12_43 
REMARK   14  A    between atoms: C20_45  and  O13_46 
REMARK   15  A    between atoms: C21_48  and  O14_49 
ROOT
HETATM    1  P2  UNL     1       2.627  16.014  83.226  1.00  0.00     0.417 P 
HETATM    2  O7  UNL     1       1.117  16.000  83.410  1.00  0.00    -0.624 OA
HETATM    3  O8  UNL     1       3.000  14.908  81.987  1.00  0.00    -0.624 OA
ENDROOT
BRANCH   1   4
HETATM    4  O6  UNL     1       3.390  15.533  84.662  1.00  0.00    -0.180 OA
BRANCH   4   5
HETATM    5  P1  UNL     1       3.001  16.595  85.914  1.00  0.00     0.417 P 
HETATM    6  O4  UNL     1       3.159  15.882  87.254  1.00  0.00    -0.624 OA
HETATM    7  O5  UNL     1       1.395  17.091  85.763  1.00  0.00    -0.624 OA
BRANCH   5   8
HETATM    8  O3  UNL     1       3.991  17.940  85.944  1.00  0.00    -0.287 OA
BRANCH   8   9
HETATM    9  C9  UNL     1       5.204  17.720  86.572  1.00  0.00     0.216 C 
BRANCH   9  10
HETATM   10  C8  UNL     1       5.813  16.463  86.013  1.00  0.00     0.180 C 
HETATM   11  O2  UNL     1       6.554  16.665  84.875  1.00  0.00    -0.353 OA
HETATM   12  C7  UNL     1       7.488  15.673  84.761  1.00  0.00     0.259 C 
HETATM   13  C21 UNL     1       7.533  14.905  86.050  1.00  0.00     0.198 C 
HETATM   14  C20 UNL     1       6.830  15.865  86.994  1.00  0.00     0.182 C 
BRANCH  12  15
HETATM   15  N1  UNL     1       8.795  16.297  84.586  1.00  0.00    -0.336 N 
HETATM   16  C6  UNL     1       9.152  17.430  85.213  1.00  0.00     0.093 A 
HETATM   17  C5  UNL     1      10.400  18.010  85.035  1.00  0.00     0.018 A 
HETATM   18  C4  UNL     1      11.315  17.424  84.195  1.00  0.00     0.018 A 
HETATM   19  C3  UNL     1      10.948  16.263  83.553  1.00  0.00     0.025 A 
HETATM   20  C22 UNL     1       9.696  15.728  83.765  1.00  0.00     0.108 A 
BRANCH  19  21
HETATM   21  C2  UNL     1      11.894  15.606  82.650  1.00  0.00     0.157 C 
HETATM   22  C1  UNL     1      12.918  16.396  81.936  1.00  0.00     0.097 C 
HETATM   23  O1  UNL     1      11.833  14.380  82.484  1.00  0.00    -0.293 OA
ENDBRANCH  19  21
ENDBRANCH  12  15
BRANCH  13  24
HETATM   24  O14 UNL     1       6.724  13.778  85.920  1.00  0.00    -0.388 OA
ATOM     25  H14 UNL     1       7.279  13.027  85.743  1.00  0.00     0.210 HD
ENDBRANCH  13  24
BRANCH  14  26
HETATM   26  O13 UNL     1       6.223  15.232  88.050  1.00  0.00    -0.390 OA
ATOM     27  H13 UNL     1       6.610  14.383  88.231  1.00  0.00     0.210 HD
ENDBRANCH  14  26
ENDBRANCH   9  10
ENDBRANCH   8   9
ENDBRANCH   5   8
ENDBRANCH   4   5
ENDBRANCH   1   4
BRANCH   1  28
HETATM   28  O9  UNL     1       3.159  17.542  82.732  1.00  0.00    -0.287 OA
BRANCH  28  29
HETATM   29  C10 UNL     1       2.706  17.758  81.454  1.00  0.00     0.216 C 
BRANCH  29  30
HETATM   30  C11 UNL     1       2.530  19.221  81.129  1.00  0.00     0.180 C 
HETATM   31  O10 UNL     1       1.260  19.688  81.460  1.00  0.00    -0.353 OA
HETATM   32  C12 UNL     1       1.415  21.062  81.168  1.00  0.00     0.262 C 
HETATM   33  C18 UNL     1       2.644  21.428  81.930  1.00  0.00     0.198 C 
HETATM   34  C19 UNL     1       3.419  20.109  81.951  1.00  0.00     0.182 C 
BRANCH  32  35
HETATM   35  N2  UNL     1       0.255  21.824  81.503  1.00  0.00    -0.297 N 
HETATM   36  C13 UNL     1       0.162  22.862  82.348  1.00  0.00     0.188 A 
HETATM   37  N3  UNL     1      -1.114  23.279  82.364  1.00  0.00    -0.346 N 
HETATM   38  C14 UNL     1      -1.833  22.514  81.535  1.00  0.00     0.119 A 
ATOM     39  H3  UNL     1      -1.477  24.054  82.918  1.00  0.00     0.167 HD
HETATM   40  C15 UNL     1      -3.187  22.516  81.182  1.00  0.00     0.148 A 
HETATM   41  C17 UNL     1      -0.972  21.598  80.992  1.00  0.00     0.142 A 
HETATM   42  N4  UNL     1      -4.070  23.455  81.737  1.00  0.00    -0.080 NA
HETATM   43  N5  UNL     1      -3.661  21.605  80.295  1.00  0.00    -0.339 N 
HETATM   44  C16 UNL     1      -2.795  20.727  79.785  1.00  0.00     0.183 A 
ATOM     45  H5  UNL     1      -4.645  21.593  80.026  1.00  0.00     0.167 HD
HETATM   46  N6  UNL     1      -1.492  20.710  80.112  1.00  0.00    -0.336 N 
ATOM     47  H6  UNL     1      -0.881  20.013  79.688  1.00  0.00     0.168 HD
ENDBRANCH  32  35
BRANCH  33  48
HETATM   48  O11 UNL     1       3.415  22.374  81.230  1.00  0.00    -0.388 OA
ATOM     49  H11 UNL     1       3.712  23.071  81.805  1.00  0.00     0.210 HD
ENDBRANCH  33  48
BRANCH  34  50
HETATM   50  O12 UNL     1       4.637  20.224  81.317  1.00  0.00    -0.390 OA
ATOM     51  H12 UNL     1       4.839  21.146  81.210  1.00  0.00     0.210 HD
ENDBRANCH  34  50
ENDBRANCH  29  30
ENDBRANCH  28  29
ENDBRANCH   1  28
TORSDOF 15
ENDMDL
