MODEL 2
REMARK VINA RESULT: -10.129976278      1.243      1.949
REMARK  15 active torsions:
REMARK  status: ('A' for Active; 'I' for Inactive)
REMARK    1  A    between atoms: C2_2  and  C3_4 
REMARK    2  A    between atoms: N1_8  and  C7_9 
REMARK    3  A    between atoms: C8_11  and  C9_12 
REMARK    4  A    between atoms: C9_12  and  O3_13 
REMARK    5  A    between atoms: O3_13  and  P1_14 
REMARK    6  A    between atoms: P1_14  and  O6_17 
REMARK    7  A    between atoms: O6_17  and  P2_18 
REMARK    8  A    between atoms: P2_18  and  O9_21 
REMARK    9  A    between atoms: O9_21  and  C10_22 
REMARK   10  A    between atoms: C10_22  and  C11_23 
REMARK   11  A    between atoms: C12_25  and  N2_26 
REMARK   12  A    between atoms: C18_39  and  O11_40 
REMARK   13  A    between atoms: C19_42  and  O12_43 
REMARK   14  A    between atoms: C20_45  and  O13_46 
REMARK   15  A    between atoms: C21_48  and  O14_49 
ROOT
HETATM    1  P2  UNL     1       2.951  16.301  83.260  1.00  0.00     0.417 P 
HETATM    2  O7  UNL     1       2.365  15.948  84.619  1.00  0.00    -0.624 OA
HETATM    3  O8  UNL     1       3.102  14.853  82.379  1.00  0.00    -0.624 OA
ENDROOT
BRANCH   1   4
HETATM    4  O6  UNL     1       4.480  17.008  83.455  1.00  0.00    -0.180 OA
BRANCH   4   5
HETATM    5  P1  UNL     1       5.664  15.812  83.578  1.00  0.00     0.417 P 
HETATM    6  O4  UNL     1       7.043  16.440  83.396  1.00  0.00    -0.624 OA
HETATM    7  O5  UNL     1       5.442  14.661  82.366  1.00  0.00    -0.624 OA
BRANCH   5   8
HETATM    8  O3  UNL     1       5.655  15.053  85.066  1.00  0.00    -0.287 OA
BRANCH   8   9
HETATM    9  C9  UNL     1       5.405  15.909  86.123  1.00  0.00     0.216 C 
BRANCH   9  10
HETATM   10  C8  UNL     1       6.639  15.986  86.981  1.00  0.00     0.180 C 
HETATM   11  O2  UNL     1       7.764  15.475  86.381  1.00  0.00    -0.353 OA
HETATM   12  C7  UNL     1       8.873  16.062  86.924  1.00  0.00     0.259 C 
HETATM   13  C21 UNL     1       8.437  17.227  87.765  1.00  0.00     0.198 C 
HETATM   14  C20 UNL     1       7.020  17.445  87.261  1.00  0.00     0.182 C 
BRANCH  12  15
HETATM   15  N1  UNL     1       9.685  16.596  85.837  1.00  0.00    -0.336 N 
HETATM   16  C6  UNL     1      10.060  17.885  85.772  1.00  0.00     0.093 A 
HETATM   17  C5  UNL     1      10.833  18.376  84.731  1.00  0.00     0.018 A 
HETATM   18  C4  UNL     1      11.239  17.537  83.722  1.00  0.00     0.018 A 
HETATM   19  C3  UNL     1      10.854  16.217  83.790  1.00  0.00     0.025 A 
HETATM   20  C22 UNL     1      10.086  15.780  84.847  1.00  0.00     0.108 A 
BRANCH  19  21
HETATM   21  C2  UNL     1      11.266  15.289  82.735  1.00  0.00     0.157 C 
HETATM   22  C1  UNL     1      12.515  15.520  81.982  1.00  0.00     0.097 C 
HETATM   23  O1  UNL     1      10.560  14.305  82.474  1.00  0.00    -0.293 OA
ENDBRANCH  19  21
ENDBRANCH  12  15
BRANCH  13  24
HETATM   24  O14 UNL     1       8.349  16.806  89.091  1.00  0.00    -0.388 OA
ATOM     25  H14 UNL     1       9.194  16.935  89.505  1.00  0.00     0.210 HD
ENDBRANCH  13  24
BRANCH  14  26
HETATM   26  O13 UNL     1       6.201  18.026  88.197  1.00  0.00    -0.390 OA
ATOM     27  H13 UNL     1       6.115  18.963  88.067  1.00  0.00     0.210 HD
ENDBRANCH  14  26
ENDBRANCH   9  10
ENDBRANCH   8   9
ENDBRANCH   5   8
ENDBRANCH   4   5
ENDBRANCH   1   4
BRANCH   1  28
HETATM   28  O9  UNL     1       1.910  17.322  82.402  1.00  0.00    -0.287 OA
BRANCH  28  29
HETATM   29  C10 UNL     1       2.553  17.723  81.257  1.00  0.00     0.216 C 
BRANCH  29  30
HETATM   30  C11 UNL     1       2.395  19.196  80.975  1.00  0.00     0.180 C 
HETATM   31  O10 UNL     1       1.134  19.672  81.333  1.00  0.00    -0.353 OA
HETATM   32  C12 UNL     1       1.306  21.051  81.078  1.00  0.00     0.262 C 
HETATM   33  C18 UNL     1       2.548  21.378  81.836  1.00  0.00     0.198 C 
HETATM   34  C19 UNL     1       3.304  20.048  81.812  1.00  0.00     0.182 C 
BRANCH  32  35
HETATM   35  N2  UNL     1       0.161  21.819  81.447  1.00  0.00    -0.297 N 
HETATM   36  C13 UNL     1       0.098  22.852  82.301  1.00  0.00     0.188 A 
HETATM   37  N3  UNL     1      -1.175  23.279  82.351  1.00  0.00    -0.346 N 
HETATM   38  C14 UNL     1      -1.921  22.526  81.535  1.00  0.00     0.119 A 
ATOM     39  H3  UNL     1      -1.517  24.053  82.920  1.00  0.00     0.167 HD
HETATM   40  C15 UNL     1      -3.282  22.540  81.217  1.00  0.00     0.148 A 
HETATM   41  C17 UNL     1      -1.080  21.607  80.966  1.00  0.00     0.142 A 
HETATM   42  N4  UNL     1      -4.144  23.482  81.799  1.00  0.00    -0.080 NA
HETATM   43  N5  UNL     1      -3.785  21.639  80.335  1.00  0.00    -0.339 N 
HETATM   44  C16 UNL     1      -2.940  20.757  79.798  1.00  0.00     0.183 A 
ATOM     45  H5  UNL     1      -4.776  21.636  80.091  1.00  0.00     0.167 HD
HETATM   46  N6  UNL     1      -1.629  20.729  80.093  1.00  0.00    -0.336 N 
ATOM     47  H6  UNL     1      -1.034  20.030  79.649  1.00  0.00     0.168 HD
ENDBRANCH  32  35
BRANCH  33  48
HETATM   48  O11 UNL     1       3.326  22.333  81.155  1.00  0.00    -0.388 OA
ATOM     49  H11 UNL     1       3.333  23.164  81.616  1.00  0.00     0.210 HD
ENDBRANCH  33  48
BRANCH  34  50
HETATM   50  O12 UNL     1       4.517  20.164  81.168  1.00  0.00    -0.390 OA
ATOM     51  H12 UNL     1       5.190  19.771  81.713  1.00  0.00     0.210 HD
ENDBRANCH  34  50
ENDBRANCH  29  30
ENDBRANCH  28  29
ENDBRANCH   1  28
TORSDOF 15
ENDMDL
