MODEL 14
REMARK VINA RESULT: -9.820214569      2.278     11.407
REMARK  15 active torsions:
REMARK  status: ('A' for Active; 'I' for Inactive)
REMARK    1  A    between atoms: C2_2  and  C3_4 
REMARK    2  A    between atoms: N1_8  and  C7_9 
REMARK    3  A    between atoms: C8_11  and  C9_12 
REMARK    4  A    between atoms: C9_12  and  O3_13 
REMARK    5  A    between atoms: O3_13  and  P1_14 
REMARK    6  A    between atoms: P1_14  and  O6_17 
REMARK    7  A    between atoms: O6_17  and  P2_18 
REMARK    8  A    between atoms: P2_18  and  O9_21 
REMARK    9  A    between atoms: O9_21  and  C10_22 
REMARK   10  A    between atoms: C10_22  and  C11_23 
REMARK   11  A    between atoms: C12_25  and  N2_26 
REMARK   12  A    between atoms: C18_39  and  O11_40 
REMARK   13  A    between atoms: C19_42  and  O12_43 
REMARK   14  A    between atoms: C20_45  and  O13_46 
REMARK   15  A    between atoms: C21_48  and  O14_49 
ROOT
HETATM    1  P2  UNL     1       4.116  16.342  85.232  1.00  0.00     0.417 P 
HETATM    2  O7  UNL     1       2.957  15.559  85.831  1.00  0.00    -0.624 OA
HETATM    3  O8  UNL     1       4.858  17.202  86.499  1.00  0.00    -0.624 OA
ENDROOT
BRANCH   1   4
HETATM    4  O6  UNL     1       3.537  17.434  84.070  1.00  0.00    -0.180 OA
BRANCH   4   5
HETATM    5  P1  UNL     1       2.273  16.739  83.195  1.00  0.00     0.417 P 
HETATM    6  O4  UNL     1       1.102  16.454  84.130  1.00  0.00    -0.624 OA
HETATM    7  O5  UNL     1       2.781  15.277  82.521  1.00  0.00    -0.624 OA
BRANCH   5   8
HETATM    8  O3  UNL     1       1.709  17.738  81.980  1.00  0.00    -0.287 OA
BRANCH   8   9
HETATM    9  C9  UNL     1       2.604  17.901  80.938  1.00  0.00     0.216 C 
BRANCH   9  10
HETATM   10  C8  UNL     1       2.634  19.356  80.554  1.00  0.00     0.180 C 
HETATM   11  O2  UNL     1       1.808  19.668  79.502  1.00  0.00    -0.353 OA
HETATM   12  C7  UNL     1       1.457  20.987  79.579  1.00  0.00     0.259 C 
HETATM   13  C21 UNL     1       1.877  21.520  80.917  1.00  0.00     0.198 C 
HETATM   14  C20 UNL     1       2.100  20.233  81.694  1.00  0.00     0.182 C 
BRANCH  12  15
HETATM   15  N1  UNL     1       0.002  21.076  79.517  1.00  0.00    -0.336 N 
HETATM   16  C6  UNL     1      -0.725  20.462  78.569  1.00  0.00     0.093 A 
HETATM   17  C5  UNL     1      -2.108  20.557  78.525  1.00  0.00     0.018 A 
HETATM   18  C4  UNL     1      -2.776  21.298  79.470  1.00  0.00     0.018 A 
HETATM   19  C3  UNL     1      -2.029  21.927  80.439  1.00  0.00     0.025 A 
HETATM   20  C22 UNL     1      -0.657  21.800  80.439  1.00  0.00     0.108 A 
BRANCH  19  21
HETATM   21  C2  UNL     1      -2.701  22.726  81.465  1.00  0.00     0.157 C 
HETATM   22  C1  UNL     1      -4.176  22.771  81.531  1.00  0.00     0.097 C 
HETATM   23  O1  UNL     1      -2.026  23.368  82.282  1.00  0.00    -0.293 OA
ENDBRANCH  19  21
ENDBRANCH  12  15
BRANCH  13  24
HETATM   24  O14 UNL     1       3.116  22.143  80.776  1.00  0.00    -0.388 OA
ATOM     25  H14 UNL     1       3.796  21.491  80.899  1.00  0.00     0.210 HD
ENDBRANCH  13  24
BRANCH  14  26
HETATM   26  O13 UNL     1       3.009  20.371  82.713  1.00  0.00    -0.390 OA
ATOM     27  H13 UNL     1       2.635  20.804  83.472  1.00  0.00     0.210 HD
ENDBRANCH  14  26
ENDBRANCH   9  10
ENDBRANCH   8   9
ENDBRANCH   5   8
ENDBRANCH   4   5
ENDBRANCH   1   4
BRANCH   1  28
HETATM   28  O9  UNL     1       5.270  15.298  84.570  1.00  0.00    -0.287 OA
BRANCH  28  29
HETATM   29  C10 UNL     1       6.240  16.062  83.967  1.00  0.00     0.216 C 
BRANCH  29  30
HETATM   30  C11 UNL     1       7.632  15.734  84.446  1.00  0.00     0.180 C 
HETATM   31  O10 UNL     1       8.618  16.315  83.649  1.00  0.00    -0.353 OA
HETATM   32  C12 UNL     1       9.773  15.952  84.375  1.00  0.00     0.262 C 
HETATM   33  C18 UNL     1       9.460  16.419  85.757  1.00  0.00     0.198 C 
HETATM   34  C19 UNL     1       7.934  16.316  85.797  1.00  0.00     0.182 C 
BRANCH  32  35
HETATM   35  N2  UNL     1      10.965  16.503  83.815  1.00  0.00    -0.297 N 
HETATM   36  C13 UNL     1      11.594  17.636  84.158  1.00  0.00     0.188 A 
HETATM   37  N3  UNL     1      12.675  17.772  83.374  1.00  0.00    -0.346 N 
HETATM   38  C14 UNL     1      12.738  16.734  82.533  1.00  0.00     0.119 A 
ATOM     39  H3  UNL     1      13.341  18.544  83.412  1.00  0.00     0.167 HD
HETATM   40  C15 UNL     1      13.643  16.386  81.525  1.00  0.00     0.148 A 
HETATM   41  C17 UNL     1      11.662  15.934  82.810  1.00  0.00     0.142 A 
HETATM   42  N4  UNL     1      14.747  17.205  81.240  1.00  0.00    -0.080 NA
HETATM   43  N5  UNL     1      13.462  15.248  80.809  1.00  0.00    -0.339 N 
HETATM   44  C16 UNL     1      12.404  14.491  81.104  1.00  0.00     0.183 A 
ATOM     45  H5  UNL     1      14.113  14.980  80.071  1.00  0.00     0.167 HD
HETATM   46  N6  UNL     1      11.524  14.809  82.069  1.00  0.00    -0.336 N 
ATOM     47  H6  UNL     1      10.734  14.188  82.247  1.00  0.00     0.168 HD
ENDBRANCH  32  35
BRANCH  33  48
HETATM   48  O11 UNL     1       9.980  15.538  86.723  1.00  0.00    -0.388 OA
ATOM     49  H11 UNL     1      10.837  15.821  87.021  1.00  0.00     0.210 HD
ENDBRANCH  33  48
BRANCH  34  50
HETATM   50  O12 UNL     1       7.508  15.431  86.763  1.00  0.00    -0.390 OA
ATOM     51  H12 UNL     1       6.964  15.900  87.386  1.00  0.00     0.210 HD
ENDBRANCH  34  50
ENDBRANCH  29  30
ENDBRANCH  28  29
ENDBRANCH   1  28
TORSDOF 15
ENDMDL
