MODEL 3
REMARK VINA RESULT: -10.128745152      1.613      2.371
REMARK  15 active torsions:
REMARK  status: ('A' for Active; 'I' for Inactive)
REMARK    1  A    between atoms: C2_2  and  C3_4 
REMARK    2  A    between atoms: N1_8  and  C7_9 
REMARK    3  A    between atoms: C8_11  and  C9_12 
REMARK    4  A    between atoms: C9_12  and  O3_13 
REMARK    5  A    between atoms: O3_13  and  P1_14 
REMARK    6  A    between atoms: P1_14  and  O6_17 
REMARK    7  A    between atoms: O6_17  and  P2_18 
REMARK    8  A    between atoms: P2_18  and  O9_21 
REMARK    9  A    between atoms: O9_21  and  C10_22 
REMARK   10  A    between atoms: C10_22  and  C11_23 
REMARK   11  A    between atoms: C12_25  and  N2_26 
REMARK   12  A    between atoms: C18_39  and  O11_40 
REMARK   13  A    between atoms: C19_42  and  O12_43 
REMARK   14  A    between atoms: C20_45  and  O13_46 
REMARK   15  A    between atoms: C21_48  and  O14_49 
ROOT
HETATM    1  P2  UNL     1       2.202  17.031  82.735  1.00  0.00     0.417 P 
HETATM    2  O7  UNL     1       2.256  15.516  82.864  1.00  0.00    -0.624 OA
HETATM    3  O8  UNL     1       2.563  17.417  81.116  1.00  0.00    -0.624 OA
ENDROOT
BRANCH   1   4
HETATM    4  O6  UNL     1       3.355  17.741  83.756  1.00  0.00    -0.180 OA
BRANCH   4   5
HETATM    5  P1  UNL     1       3.683  16.724  85.062  1.00  0.00     0.417 P 
HETATM    6  O4  UNL     1       2.438  15.906  85.395  1.00  0.00    -0.624 OA
HETATM    7  O5  UNL     1       4.089  17.645  86.415  1.00  0.00    -0.624 OA
BRANCH   5   8
HETATM    8  O3  UNL     1       4.917  15.645  84.740  1.00  0.00    -0.287 OA
BRANCH   8   9
HETATM    9  C9  UNL     1       6.079  16.250  84.296  1.00  0.00     0.216 C 
BRANCH   9  10
HETATM   10  C8  UNL     1       7.162  16.014  85.313  1.00  0.00     0.180 C 
HETATM   11  O2  UNL     1       8.275  15.392  84.802  1.00  0.00    -0.353 OA
HETATM   12  C7  UNL     1       9.364  15.713  85.565  1.00  0.00     0.259 C 
HETATM   13  C21 UNL     1       8.986  16.829  86.495  1.00  0.00     0.198 C 
HETATM   14  C20 UNL     1       7.714  17.344  85.842  1.00  0.00     0.182 C 
BRANCH  12  15
HETATM   15  N1  UNL     1      10.406  16.223  84.681  1.00  0.00    -0.336 N 
HETATM   16  C6  UNL     1      10.980  17.426  84.850  1.00  0.00     0.093 A 
HETATM   17  C5  UNL     1      11.970  17.896  83.999  1.00  0.00     0.018 A 
HETATM   18  C4  UNL     1      12.392  17.124  82.944  1.00  0.00     0.018 A 
HETATM   19  C3  UNL     1      11.802  15.892  82.772  1.00  0.00     0.025 A 
HETATM   20  C22 UNL     1      10.822  15.472  83.646  1.00  0.00     0.108 A 
BRANCH  19  21
HETATM   21  C2  UNL     1      12.222  15.038  81.660  1.00  0.00     0.157 C 
HETATM   22  C1  UNL     1      13.347  15.440  80.793  1.00  0.00     0.097 C 
HETATM   23  O1  UNL     1      11.628  13.972  81.448  1.00  0.00    -0.293 OA
ENDBRANCH  19  21
ENDBRANCH  12  15
BRANCH  13  24
HETATM   24  O14 UNL     1       8.632  16.278  87.725  1.00  0.00    -0.388 OA
ATOM     25  H14 UNL     1       9.127  16.718  88.406  1.00  0.00     0.210 HD
ENDBRANCH  13  24
BRANCH  14  26
HETATM   26  O13 UNL     1       6.858  17.943  86.733  1.00  0.00    -0.390 OA
ATOM     27  H13 UNL     1       5.977  18.024  86.386  1.00  0.00     0.210 HD
ENDBRANCH  14  26
ENDBRANCH   9  10
ENDBRANCH   8   9
ENDBRANCH   5   8
ENDBRANCH   4   5
ENDBRANCH   1   4
BRANCH   1  28
HETATM   28  O9  UNL     1       0.649  17.609  83.070  1.00  0.00    -0.287 OA
BRANCH  28  29
HETATM   29  C10 UNL     1       0.702  18.981  83.105  1.00  0.00     0.216 C 
BRANCH  29  30
HETATM   30  C11 UNL     1       0.676  19.609  81.734  1.00  0.00     0.180 C 
HETATM   31  O10 UNL     1      -0.578  20.125  81.411  1.00  0.00    -0.353 OA
HETATM   32  C12 UNL     1      -0.286  20.733  80.169  1.00  0.00     0.262 C 
HETATM   33  C18 UNL     1       0.892  21.590  80.487  1.00  0.00     0.198 C 
HETATM   34  C19 UNL     1       1.553  20.823  81.634  1.00  0.00     0.182 C 
BRANCH  32  35
HETATM   35  N2  UNL     1      -1.406  21.435  79.630  1.00  0.00    -0.297 N 
HETATM   36  C13 UNL     1      -1.774  21.545  78.345  1.00  0.00     0.188 A 
HETATM   37  N3  UNL     1      -2.887  22.293  78.287  1.00  0.00    -0.346 N 
HETATM   38  C14 UNL     1      -3.231  22.660  79.527  1.00  0.00     0.119 A 
ATOM     39  H3  UNL     1      -3.390  22.542  77.436  1.00  0.00     0.167 HD
HETATM   40  C15 UNL     1      -4.286  23.430  80.027  1.00  0.00     0.148 A 
HETATM   41  C17 UNL     1      -2.299  22.120  80.373  1.00  0.00     0.142 A 
HETATM   42  N4  UNL     1      -5.242  23.984  79.161  1.00  0.00    -0.080 NA
HETATM   43  N5  UNL     1      -4.397  23.649  81.362  1.00  0.00    -0.339 N 
HETATM   44  C16 UNL     1      -3.473  23.109  82.158  1.00  0.00     0.183 A 
ATOM     45  H5  UNL     1      -5.161  24.208  81.743  1.00  0.00     0.167 HD
HETATM   46  N6  UNL     1      -2.453  22.367  81.696  1.00  0.00    -0.336 N 
ATOM     47  H6  UNL     1      -1.778  21.981  82.356  1.00  0.00     0.168 HD
ENDBRANCH  32  35
BRANCH  33  48
HETATM   48  O11 UNL     1       1.799  21.630  79.411  1.00  0.00    -0.388 OA
ATOM     49  H11 UNL     1       1.358  21.479  78.583  1.00  0.00     0.210 HD
ENDBRANCH  33  48
BRANCH  34  50
HETATM   50  O12 UNL     1       2.830  20.420  81.308  1.00  0.00    -0.390 OA
ATOM     51  H12 UNL     1       3.034  20.731  80.434  1.00  0.00     0.210 HD
ENDBRANCH  34  50
ENDBRANCH  29  30
ENDBRANCH  28  29
ENDBRANCH   1  28
TORSDOF 15
ENDMDL
