MODEL 2
REMARK VINA RESULT: -6.685547355      1.182      2.805
REMARK  10 active torsions:
REMARK  status: ('A' for Active; 'I' for Inactive)
REMARK    1  A    between atoms: N1_2  and  C1_4 
REMARK    2  A    between atoms: C3_6  and  C4_7 
REMARK    3  A    between atoms: C4_7  and  O3_8 
REMARK    4  A    between atoms: C6_11  and  O4_12 
REMARK    5  A    between atoms: O4_12  and  C7_13 
REMARK    6  A    between atoms: C8_15  and  C9_16 
REMARK    7  A    between atoms: C9_16  and  O6_17 
REMARK    8  A    between atoms: C10_19  and  O7_20 
REMARK    9  A    between atoms: C11_22  and  O8_23 
REMARK   10  A    between atoms: C12_25  and  O9_26 
ROOT
HETATM    1  C7  UNL     1      52.017  19.143  35.663  1.00  0.00     0.298 C 
HETATM    2  O5  UNL     1      50.723  18.741  35.354  1.00  0.00    -0.348 OA
HETATM    3  C8  UNL     1      50.630  17.421  35.002  1.00  0.00     0.179 C 
HETATM    4  C10 UNL     1      51.129  16.474  36.065  1.00  0.00     0.180 C 
HETATM    5  C11 UNL     1      52.462  16.906  36.630  1.00  0.00     0.183 C 
HETATM    6  C12 UNL     1      52.491  18.390  36.909  1.00  0.00     0.205 C 
ENDROOT
BRANCH   1   7
HETATM    7  O4  UNL     1      52.922  18.858  34.644  1.00  0.00    -0.318 OA
BRANCH   7   8
HETATM    8  C6  UNL     1      53.259  19.644  33.577  1.00  0.00     0.075 A 
HETATM    9  C5  UNL     1      54.555  20.173  33.580  1.00  0.00     0.046 A 
HETATM   10  C3  UNL     1      55.024  20.979  32.570  1.00  0.00    -0.030 A 
HETATM   11  C2  UNL     1      54.172  21.265  31.525  1.00  0.00     0.045 A 
HETATM   12  C1  UNL     1      52.874  20.753  31.493  1.00  0.00     0.106 A 
HETATM   13  C13 UNL     1      52.442  19.953  32.518  1.00  0.00     0.073 A 
BRANCH  10  14
HETATM   14  C4  UNL     1      56.405  21.544  32.570  1.00  0.00     0.203 C 
BRANCH  14  15
HETATM   15  O3  UNL     1      56.954  21.262  31.312  1.00  0.00    -0.396 OA
ATOM     16  H3  UNL     1      56.530  20.471  31.001  1.00  0.00     0.209 HD
ENDBRANCH  14  15
ENDBRANCH  10  14
BRANCH  12  17
HETATM   17  N1  UNL     1      52.047  21.085  30.390  1.00  0.00    -0.116 N 
HETATM   18  O1  UNL     1      50.908  20.591  30.325  1.00  0.00    -0.532 OA
HETATM   19  O2  UNL     1      52.445  21.929  29.388  1.00  0.00    -0.532 OA
ENDBRANCH  12  17
ENDBRANCH   7   8
ENDBRANCH   1   7
BRANCH   6  20
HETATM   20  O9  UNL     1      53.845  18.734  37.081  1.00  0.00    -0.388 OA
ATOM     21  H9  UNL     1      54.347  17.995  36.759  1.00  0.00     0.210 HD
ENDBRANCH   6  20
BRANCH   3  22
HETATM   22  C9  UNL     1      49.139  17.117  34.802  1.00  0.00     0.198 C 
BRANCH  22  23
HETATM   23  O6  UNL     1      48.532  18.042  33.976  1.00  0.00    -0.398 OA
ATOM     24  H6  UNL     1      47.966  17.627  33.336  1.00  0.00     0.209 HD
ENDBRANCH  22  23
ENDBRANCH   3  22
BRANCH   5  25
HETATM   25  O8  UNL     1      52.703  16.239  37.826  1.00  0.00    -0.390 OA
ATOM     26  H8  UNL     1      53.636  16.096  37.930  1.00  0.00     0.210 HD
ENDBRANCH   5  25
BRANCH   4  27
HETATM   27  O7  UNL     1      50.182  16.344  37.077  1.00  0.00    -0.390 OA
ATOM     28  H7  UNL     1      50.393  15.600  37.631  1.00  0.00     0.210 HD
ENDBRANCH   4  27
TORSDOF 10
ENDMDL
