MODEL 3
REMARK VINA RESULT: -6.554743234      2.191      6.325
REMARK  10 active torsions:
REMARK  status: ('A' for Active; 'I' for Inactive)
REMARK    1  A    between atoms: N1_2  and  C1_4 
REMARK    2  A    between atoms: C3_6  and  C4_7 
REMARK    3  A    between atoms: C4_7  and  O3_8 
REMARK    4  A    between atoms: C6_11  and  O4_12 
REMARK    5  A    between atoms: O4_12  and  C7_13 
REMARK    6  A    between atoms: C8_15  and  C9_16 
REMARK    7  A    between atoms: C9_16  and  O6_17 
REMARK    8  A    between atoms: C10_19  and  O7_20 
REMARK    9  A    between atoms: C11_22  and  O8_23 
REMARK   10  A    between atoms: C12_25  and  O9_26 
ROOT
HETATM    1  C7  UNL     1      53.521  19.625  32.308  1.00  0.00     0.298 C 
HETATM    2  O5  UNL     1      52.932  20.540  31.442  1.00  0.00    -0.348 OA
HETATM    3  C8  UNL     1      53.123  21.844  31.815  1.00  0.00     0.179 C 
HETATM    4  C10 UNL     1      54.575  22.236  31.928  1.00  0.00     0.180 C 
HETATM    5  C11 UNL     1      55.381  21.215  32.696  1.00  0.00     0.183 C 
HETATM    6  C12 UNL     1      55.040  19.806  32.270  1.00  0.00     0.205 C 
ENDROOT
BRANCH   1   7
HETATM    7  O4  UNL     1      53.120  19.806  33.629  1.00  0.00    -0.318 OA
BRANCH   7   8
HETATM    8  C6  UNL     1      52.475  18.913  34.440  1.00  0.00     0.075 A 
HETATM    9  C5  UNL     1      51.230  18.455  33.994  1.00  0.00     0.046 A 
HETATM   10  C3  UNL     1      50.476  17.558  34.711  1.00  0.00    -0.030 A 
HETATM   11  C2  UNL     1      50.982  17.103  35.909  1.00  0.00     0.045 A 
HETATM   12  C1  UNL     1      52.220  17.539  36.381  1.00  0.00     0.106 A 
HETATM   13  C13 UNL     1      52.944  18.435  35.639  1.00  0.00     0.073 A 
BRANCH  10  14
HETATM   14  C4  UNL     1      49.148  17.068  34.238  1.00  0.00     0.203 C 
BRANCH  14  15
HETATM   15  O3  UNL     1      48.393  18.204  33.916  1.00  0.00    -0.396 OA
ATOM     16  H3  UNL     1      48.819  18.612  33.171  1.00  0.00     0.209 HD
ENDBRANCH  14  15
ENDBRANCH  10  14
BRANCH  12  17
HETATM   17  N1  UNL     1      52.684  17.032  37.622  1.00  0.00    -0.116 N 
HETATM   18  O1  UNL     1      52.819  15.804  37.754  1.00  0.00    -0.532 OA
HETATM   19  O2  UNL     1      52.993  17.836  38.686  1.00  0.00    -0.532 OA
ENDBRANCH  12  17
ENDBRANCH   7   8
ENDBRANCH   1   7
BRANCH   6  20
HETATM   20  O9  UNL     1      55.560  18.955  33.265  1.00  0.00    -0.388 OA
ATOM     21  H9  UNL     1      55.096  19.173  34.065  1.00  0.00     0.210 HD
ENDBRANCH   6  20
BRANCH   3  22
HETATM   22  C9  UNL     1      52.513  22.716  30.708  1.00  0.00     0.198 C 
BRANCH  22  23
HETATM   23  O6  UNL     1      52.469  22.053  29.498  1.00  0.00    -0.398 OA
ATOM     24  H6  UNL     1      51.579  21.837  29.246  1.00  0.00     0.209 HD
ENDBRANCH  22  23
ENDBRANCH   3  22
BRANCH   5  25
HETATM   25  O8  UNL     1      56.737  21.418  32.466  1.00  0.00    -0.390 OA
ATOM     26  H8  UNL     1      57.199  21.464  33.295  1.00  0.00     0.210 HD
ENDBRANCH   5  25
BRANCH   4  27
HETATM   27  O7  UNL     1      55.118  22.444  30.664  1.00  0.00    -0.390 OA
ATOM     28  H7  UNL     1      55.355  21.614  30.266  1.00  0.00     0.210 HD
ENDBRANCH   4  27
TORSDOF 10
ENDMDL
