MODEL 6
REMARK VINA RESULT: -6.305182527      2.748      6.746
REMARK  10 active torsions:
REMARK  status: ('A' for Active; 'I' for Inactive)
REMARK    1  A    between atoms: N1_2  and  C1_4 
REMARK    2  A    between atoms: C3_6  and  C4_7 
REMARK    3  A    between atoms: C4_7  and  O3_8 
REMARK    4  A    between atoms: C6_11  and  O4_12 
REMARK    5  A    between atoms: O4_12  and  C7_13 
REMARK    6  A    between atoms: C8_15  and  C9_16 
REMARK    7  A    between atoms: C9_16  and  O6_17 
REMARK    8  A    between atoms: C10_19  and  O7_20 
REMARK    9  A    between atoms: C11_22  and  O8_23 
REMARK   10  A    between atoms: C12_25  and  O9_26 
ROOT
HETATM    1  C7  UNL     1      51.976  20.009  31.695  1.00  0.00     0.298 C 
HETATM    2  O5  UNL     1      50.632  20.150  31.368  1.00  0.00    -0.348 OA
HETATM    3  C8  UNL     1      50.051  21.263  31.916  1.00  0.00     0.179 C 
HETATM    4  C10 UNL     1      50.725  22.554  31.521  1.00  0.00     0.180 C 
HETATM    5  C11 UNL     1      52.227  22.473  31.651  1.00  0.00     0.183 C 
HETATM    6  C12 UNL     1      52.763  21.175  31.093  1.00  0.00     0.205 C 
ENDROOT
BRANCH   1   7
HETATM    7  O4  UNL     1      52.197  20.033  33.070  1.00  0.00    -0.318 OA
BRANCH   7   8
HETATM    8  C6  UNL     1      51.897  19.062  33.985  1.00  0.00     0.075 A 
HETATM    9  C5  UNL     1      52.815  18.885  35.027  1.00  0.00     0.046 A 
HETATM   10  C3  UNL     1      52.637  17.945  36.013  1.00  0.00    -0.030 A 
HETATM   11  C2  UNL     1      51.507  17.158  35.958  1.00  0.00     0.045 A 
HETATM   12  C1  UNL     1      50.572  17.311  34.933  1.00  0.00     0.106 A 
HETATM   13  C13 UNL     1      50.783  18.259  33.967  1.00  0.00     0.073 A 
BRANCH  10  14
HETATM   14  C4  UNL     1      53.615  17.753  37.124  1.00  0.00     0.203 C 
BRANCH  14  15
HETATM   15  O3  UNL     1      52.919  17.127  38.167  1.00  0.00    -0.396 OA
ATOM     16  H3  UNL     1      52.016  17.414  38.103  1.00  0.00     0.209 HD
ENDBRANCH  14  15
ENDBRANCH  10  14
BRANCH  12  17
HETATM   17  N1  UNL     1      49.430  16.471  34.934  1.00  0.00    -0.116 N 
HETATM   18  O1  UNL     1      49.082  15.933  35.999  1.00  0.00    -0.532 OA
HETATM   19  O2  UNL     1      48.687  16.222  33.811  1.00  0.00    -0.532 OA
ENDBRANCH  12  17
ENDBRANCH   7   8
ENDBRANCH   1   7
BRANCH   6  20
HETATM   20  O9  UNL     1      54.079  21.050  31.577  1.00  0.00    -0.388 OA
ATOM     21  H9  UNL     1      54.518  21.863  31.359  1.00  0.00     0.210 HD
ENDBRANCH   6  20
BRANCH   3  22
HETATM   22  C9  UNL     1      48.617  21.327  31.373  1.00  0.00     0.198 C 
BRANCH  22  23
HETATM   23  O6  UNL     1      47.693  20.911  32.312  1.00  0.00    -0.398 OA
ATOM     24  H6  UNL     1      47.320  21.643  32.789  1.00  0.00     0.209 HD
ENDBRANCH  22  23
ENDBRANCH   3  22
BRANCH   5  25
HETATM   25  O8  UNL     1      52.816  23.518  30.948  1.00  0.00    -0.390 OA
ATOM     26  H8  UNL     1      52.558  23.475  30.035  1.00  0.00     0.210 HD
ENDBRANCH   5  25
BRANCH   4  27
HETATM   27  O7  UNL     1      50.359  22.913  30.227  1.00  0.00    -0.390 OA
ATOM     28  H7  UNL     1      50.895  23.636  29.922  1.00  0.00     0.210 HD
ENDBRANCH   4  27
TORSDOF 10
ENDMDL
