MODEL 5
REMARK VINA RESULT: -6.312353555      2.413      6.538
REMARK  10 active torsions:
REMARK  status: ('A' for Active; 'I' for Inactive)
REMARK    1  A    between atoms: N1_2  and  C1_4 
REMARK    2  A    between atoms: C3_6  and  C4_7 
REMARK    3  A    between atoms: C4_7  and  O3_8 
REMARK    4  A    between atoms: C6_11  and  O4_12 
REMARK    5  A    between atoms: O4_12  and  C7_13 
REMARK    6  A    between atoms: C8_15  and  C9_16 
REMARK    7  A    between atoms: C9_16  and  O6_17 
REMARK    8  A    between atoms: C10_19  and  O7_20 
REMARK    9  A    between atoms: C11_22  and  O8_23 
REMARK   10  A    between atoms: C12_25  and  O9_26 
ROOT
HETATM    1  C7  UNL     1      50.649  20.966  33.284  1.00  0.00     0.298 C 
HETATM    2  O5  UNL     1      51.873  21.561  32.999  1.00  0.00    -0.348 OA
HETATM    3  C8  UNL     1      52.377  21.214  31.774  1.00  0.00     0.179 C 
HETATM    4  C10 UNL     1      51.461  21.550  30.624  1.00  0.00     0.180 C 
HETATM    5  C11 UNL     1      50.037  21.120  30.888  1.00  0.00     0.183 C 
HETATM    6  C12 UNL     1      49.602  21.475  32.291  1.00  0.00     0.205 C 
ENDROOT
BRANCH   1   7
HETATM    7  O4  UNL     1      50.689  19.579  33.162  1.00  0.00    -0.318 OA
BRANCH   7   8
HETATM    8  C6  UNL     1      50.927  18.657  34.143  1.00  0.00     0.075 A 
HETATM    9  C5  UNL     1      50.012  17.603  34.241  1.00  0.00     0.046 A 
HETATM   10  C3  UNL     1      50.131  16.609  35.182  1.00  0.00    -0.030 A 
HETATM   11  C2  UNL     1      51.199  16.669  36.051  1.00  0.00     0.045 A 
HETATM   12  C1  UNL     1      52.130  17.706  35.979  1.00  0.00     0.106 A 
HETATM   13  C13 UNL     1      51.978  18.680  35.027  1.00  0.00     0.073 A 
BRANCH  10  14
HETATM   14  C4  UNL     1      49.156  15.484  35.289  1.00  0.00     0.203 C 
BRANCH  14  15
HETATM   15  O3  UNL     1      48.478  15.423  34.064  1.00  0.00    -0.396 OA
ATOM     16  H3  UNL     1      48.991  15.926  33.443  1.00  0.00     0.209 HD
ENDBRANCH  14  15
ENDBRANCH  10  14
BRANCH  12  17
HETATM   17  N1  UNL     1      53.206  17.710  36.902  1.00  0.00    -0.116 N 
HETATM   18  O1  UNL     1      53.020  17.250  38.041  1.00  0.00    -0.532 OA
HETATM   19  O2  UNL     1      54.448  18.197  36.596  1.00  0.00    -0.532 OA
ENDBRANCH  12  17
ENDBRANCH   7   8
ENDBRANCH   1   7
BRANCH   6  20
HETATM   20  O9  UNL     1      48.432  20.733  32.542  1.00  0.00    -0.388 OA
ATOM     21  H9  UNL     1      48.006  20.621  31.700  1.00  0.00     0.210 HD
ENDBRANCH   6  20
BRANCH   3  22
HETATM   22  C9  UNL     1      53.660  22.033  31.573  1.00  0.00     0.198 C 
BRANCH  22  23
HETATM   23  O6  UNL     1      54.200  21.842  30.317  1.00  0.00    -0.398 OA
ATOM     24  H6  UNL     1      54.904  21.205  30.327  1.00  0.00     0.209 HD
ENDBRANCH  22  23
ENDBRANCH   3  22
BRANCH   5  25
HETATM   25  O8  UNL     1      49.181  21.759  29.998  1.00  0.00    -0.390 OA
ATOM     26  H8  UNL     1      49.229  22.699  30.126  1.00  0.00     0.210 HD
ENDBRANCH   5  25
BRANCH   4  27
HETATM   27  O7  UNL     1      51.521  22.911  30.342  1.00  0.00    -0.390 OA
ATOM     28  H7  UNL     1      52.317  23.113  29.864  1.00  0.00     0.210 HD
ENDBRANCH   4  27
TORSDOF 10
ENDMDL
