MODEL 3
REMARK VINA RESULT: -7.641929244      2.054      3.206
REMARK  6 active torsions:
REMARK  status: ('A' for Active; 'I' for Inactive)
REMARK    1  A    between atoms: C2_3  and  C3_4 
REMARK    2  A    between atoms: C2_3  and  C16_21 
REMARK    3  A    between atoms: C3_4  and  N2_5 
REMARK    4  A    between atoms: N2_5  and  C4_7 
REMARK    5  A    between atoms: C7_10  and  N3_11 
REMARK    6  A    between atoms: N3_11  and  C8_13 
ROOT
HETATM    1  N1  UNL     1       5.155  16.981  15.029  1.00  0.00    -0.196 NA
HETATM    2  C1  UNL     1       4.259  17.140  15.709  1.00  0.00     0.073 C 
HETATM    3  C2  UNL     1       3.108  17.349  16.587  1.00  0.00     0.180 C 
ENDROOT
BRANCH   3   4
HETATM    4  C3  UNL     1       3.282  16.532  17.849  1.00  0.00     0.147 C 
BRANCH   4   5
HETATM    5  N2  UNL     1       3.592  15.146  17.561  1.00  0.00    -0.388 N 
ATOM      6  H2  UNL     1       4.211  14.897  16.790  1.00  0.00     0.159 HD
BRANCH   5   7
HETATM    7  C4  UNL     1       3.010  14.146  18.379  1.00  0.00     0.028 A 
HETATM    8  C5  UNL     1       1.735  13.665  18.168  1.00  0.00     0.031 A 
HETATM    9  C6  UNL     1       1.171  12.698  18.960  1.00  0.00     0.031 A 
HETATM   10  C7  UNL     1       1.886  12.149  20.035  1.00  0.00     0.032 A 
HETATM   11  C14 UNL     1       3.152  12.621  20.248  1.00  0.00     0.031 A 
HETATM   12  C15 UNL     1       3.705  13.605  19.432  1.00  0.00     0.031 A 
BRANCH  10  13
HETATM   13  N3  UNL     1       1.258  11.130  20.801  1.00  0.00    -0.356 N 
ATOM     14  H3  UNL     1       0.252  11.222  20.946  1.00  0.00     0.166 HD
BRANCH  13  15
HETATM   15  C8  UNL     1       1.879  10.007  21.381  1.00  0.00     0.032 A 
HETATM   16  C9  UNL     1       2.721   9.136  20.727  1.00  0.00     0.029 A 
HETATM   17  C10 UNL     1       3.278   8.031  21.351  1.00  0.00     0.002 A 
HETATM   18  C11 UNL     1       3.010   7.754  22.675  1.00  0.00     0.000 A 
HETATM   19  C12 UNL     1       2.169   8.625  23.332  1.00  0.00     0.002 A 
HETATM   20  C13 UNL     1       1.612   9.718  22.727  1.00  0.00     0.029 A 
ENDBRANCH  13  15
ENDBRANCH  10  13
ENDBRANCH   5   7
ENDBRANCH   4   5
ENDBRANCH   3   4
BRANCH   3  21
HETATM   21  C16 UNL     1       1.861  16.906  15.929  1.00  0.00     0.129 A 
HETATM   22  N4  UNL     1       1.665  16.314  14.739  1.00  0.00    -0.269 N 
HETATM   23  N5  UNL     1       0.363  16.114  14.599  1.00  0.00    -0.005 NA
ATOM     24  H4  UNL     1       2.389  16.063  14.064  1.00  0.00     0.185 HD
HETATM   25  N6  UNL     1      -0.290  16.562  15.669  1.00  0.00    -0.225 N 
HETATM   26  N7  UNL     1       0.641  17.040  16.467  1.00  0.00    -0.274 N 
ATOM     27  H6  UNL     1      -1.297  16.539  15.835  1.00  0.00     0.205 HD
ATOM     28  H7  UNL     1       0.457  17.458  17.379  1.00  0.00     0.189 HD
ENDBRANCH   3  21
TORSDOF 6
ENDMDL
