MODEL 14
REMARK VINA RESULT: -7.259445125      2.301      9.128
REMARK  6 active torsions:
REMARK  status: ('A' for Active; 'I' for Inactive)
REMARK    1  A    between atoms: C2_3  and  C3_4 
REMARK    2  A    between atoms: C2_3  and  C16_21 
REMARK    3  A    between atoms: C3_4  and  N2_5 
REMARK    4  A    between atoms: N2_5  and  C4_7 
REMARK    5  A    between atoms: C7_10  and  N3_11 
REMARK    6  A    between atoms: N3_11  and  C8_13 
ROOT
HETATM    1  N1  UNL     1       5.295   9.532  20.080  1.00  0.00    -0.196 NA
HETATM    2  C1  UNL     1       4.213   9.465  20.420  1.00  0.00     0.073 C 
HETATM    3  C2  UNL     1       2.819   9.378  20.852  1.00  0.00     0.180 C 
ENDROOT
BRANCH   3   4
HETATM    4  C3  UNL     1       2.222  10.768  20.913  1.00  0.00     0.147 C 
BRANCH   4   5
HETATM    5  N2  UNL     1       3.122  11.769  20.376  1.00  0.00    -0.388 N 
ATOM      6  H2  UNL     1       4.107  11.784  20.640  1.00  0.00     0.159 HD
BRANCH   5   7
HETATM    7  C4  UNL     1       2.596  12.727  19.474  1.00  0.00     0.028 A 
HETATM    8  C5  UNL     1       1.267  12.748  19.108  1.00  0.00     0.031 A 
HETATM    9  C6  UNL     1       0.757  13.674  18.234  1.00  0.00     0.031 A 
HETATM   10  C7  UNL     1       1.586  14.656  17.670  1.00  0.00     0.032 A 
HETATM   11  C14 UNL     1       2.906  14.640  18.031  1.00  0.00     0.031 A 
HETATM   12  C15 UNL     1       3.402  13.689  18.920  1.00  0.00     0.031 A 
BRANCH  10  13
HETATM   13  N3  UNL     1       0.993  15.604  16.795  1.00  0.00    -0.356 N 
ATOM     14  H3  UNL     1       0.754  16.510  17.198  1.00  0.00     0.166 HD
BRANCH  13  15
HETATM   15  C8  UNL     1       0.701  15.424  15.429  1.00  0.00     0.032 A 
HETATM   16  C9  UNL     1      -0.068  14.409  14.905  1.00  0.00     0.029 A 
HETATM   17  C10 UNL     1      -0.294  14.273  13.545  1.00  0.00     0.002 A 
HETATM   18  C11 UNL     1       0.251  15.162  12.643  1.00  0.00     0.000 A 
HETATM   19  C12 UNL     1       1.022  16.179  13.164  1.00  0.00     0.002 A 
HETATM   20  C13 UNL     1       1.252  16.324  14.504  1.00  0.00     0.029 A 
ENDBRANCH  13  15
ENDBRANCH  10  13
ENDBRANCH   5   7
ENDBRANCH   4   5
ENDBRANCH   3   4
BRANCH   3  21
HETATM   21  C16 UNL     1       2.726   8.784  22.202  1.00  0.00     0.129 A 
HETATM   22  N4  UNL     1       2.020   9.171  23.278  1.00  0.00    -0.269 N 
HETATM   23  N5  UNL     1       2.270   8.309  24.253  1.00  0.00    -0.005 NA
ATOM     24  H4  UNL     1       1.403   9.982  23.335  1.00  0.00     0.185 HD
HETATM   25  N6  UNL     1       3.120   7.372  23.835  1.00  0.00    -0.225 N 
HETATM   26  N7  UNL     1       3.384   7.680  22.583  1.00  0.00    -0.274 N 
ATOM     27  H6  UNL     1       3.486   6.585  24.370  1.00  0.00     0.205 HD
ATOM     28  H7  UNL     1       4.010   7.147  21.979  1.00  0.00     0.189 HD
ENDBRANCH   3  21
TORSDOF 6
ENDMDL
