MODEL 6
REMARK VINA RESULT: -7.559258330      3.313      3.935
REMARK  6 active torsions:
REMARK  status: ('A' for Active; 'I' for Inactive)
REMARK    1  A    between atoms: C2_3  and  C3_4 
REMARK    2  A    between atoms: C2_3  and  C16_21 
REMARK    3  A    between atoms: C3_4  and  N2_5 
REMARK    4  A    between atoms: N2_5  and  C4_7 
REMARK    5  A    between atoms: C7_10  and  N3_11 
REMARK    6  A    between atoms: N3_11  and  C8_13 
ROOT
HETATM    1  N1  UNL     1       4.503  17.731  19.685  1.00  0.00    -0.196 NA
HETATM    2  C1  UNL     1       4.032  17.545  18.668  1.00  0.00     0.073 C 
HETATM    3  C2  UNL     1       3.422  17.306  17.361  1.00  0.00     0.180 C 
ENDROOT
BRANCH   3   4
HETATM    4  C3  UNL     1       2.921  15.879  17.291  1.00  0.00     0.147 C 
BRANCH   4   5
HETATM    5  N2  UNL     1       3.737  14.978  18.080  1.00  0.00    -0.388 N 
ATOM      6  H2  UNL     1       4.749  15.097  18.132  1.00  0.00     0.159 HD
BRANCH   5   7
HETATM    7  C4  UNL     1       3.092  13.928  18.778  1.00  0.00     0.028 A 
HETATM    8  C5  UNL     1       3.661  13.301  19.867  1.00  0.00     0.031 A 
HETATM    9  C6  UNL     1       3.037  12.284  20.543  1.00  0.00     0.031 A 
HETATM   10  C7  UNL     1       1.769  11.835  20.145  1.00  0.00     0.032 A 
HETATM   11  C14 UNL     1       1.198  12.454  19.066  1.00  0.00     0.031 A 
HETATM   12  C15 UNL     1       1.851  13.485  18.393  1.00  0.00     0.031 A 
BRANCH  10  13
HETATM   13  N3  UNL     1       1.162  10.798  20.902  1.00  0.00    -0.356 N 
ATOM     14  H3  UNL     1       0.142  10.800  20.944  1.00  0.00     0.166 HD
BRANCH  13  15
HETATM   15  C8  UNL     1       1.820   9.769  21.602  1.00  0.00     0.032 A 
HETATM   16  C9  UNL     1       1.668   9.492  22.942  1.00  0.00     0.029 A 
HETATM   17  C10 UNL     1       2.369   8.480  23.577  1.00  0.00     0.002 A 
HETATM   18  C11 UNL     1       3.264   7.693  22.883  1.00  0.00     0.000 A 
HETATM   19  C12 UNL     1       3.418   7.967  21.541  1.00  0.00     0.002 A 
HETATM   20  C13 UNL     1       2.732   8.964  20.903  1.00  0.00     0.029 A 
ENDBRANCH  13  15
ENDBRANCH  10  13
ENDBRANCH   5   7
ENDBRANCH   4   5
ENDBRANCH   3   4
BRANCH   3  21
HETATM   21  C16 UNL     1       4.412  17.492  16.280  1.00  0.00     0.129 A 
HETATM   22  N4  UNL     1       5.248  18.514  16.028  1.00  0.00    -0.269 N 
HETATM   23  N5  UNL     1       5.940  18.209  14.941  1.00  0.00    -0.005 NA
ATOM     24  H4  UNL     1       5.334  19.371  16.576  1.00  0.00     0.185 HD
HETATM   25  N6  UNL     1       5.574  17.014  14.481  1.00  0.00    -0.225 N 
HETATM   26  N7  UNL     1       4.643  16.595  15.311  1.00  0.00    -0.274 N 
ATOM     27  H6  UNL     1       5.938  16.527  13.662  1.00  0.00     0.205 HD
ATOM     28  H7  UNL     1       4.160  15.700  15.229  1.00  0.00     0.189 HD
ENDBRANCH   3  21
TORSDOF 6
ENDMDL
