MODEL 12
REMARK VINA RESULT: -7.332656896      3.253      8.587
REMARK  6 active torsions:
REMARK  status: ('A' for Active; 'I' for Inactive)
REMARK    1  A    between atoms: C2_3  and  C3_4 
REMARK    2  A    between atoms: C2_3  and  C16_21 
REMARK    3  A    between atoms: C3_4  and  N2_5 
REMARK    4  A    between atoms: N2_5  and  C4_7 
REMARK    5  A    between atoms: C7_10  and  N3_11 
REMARK    6  A    between atoms: N3_11  and  C8_13 
ROOT
HETATM    1  N1  UNL     1       1.210   7.297  22.444  1.00  0.00    -0.196 NA
HETATM    2  C1  UNL     1       1.660   8.297  22.146  1.00  0.00     0.073 C 
HETATM    3  C2  UNL     1       2.236   9.586  21.766  1.00  0.00     0.180 C 
ENDROOT
BRANCH   3   4
HETATM    4  C3  UNL     1       1.254  10.339  20.893  1.00  0.00     0.147 C 
BRANCH   4   5
HETATM    5  N2  UNL     1       1.301  11.768  21.133  1.00  0.00    -0.388 N 
ATOM      6  H2  UNL     1       0.989  12.161  22.021  1.00  0.00     0.159 HD
BRANCH   5   7
HETATM    7  C4  UNL     1       1.791  12.604  20.100  1.00  0.00     0.028 A 
HETATM    8  C5  UNL     1       0.987  13.075  19.083  1.00  0.00     0.031 A 
HETATM    9  C6  UNL     1       1.460  13.884  18.082  1.00  0.00     0.031 A 
HETATM   10  C7  UNL     1       2.808  14.272  18.056  1.00  0.00     0.032 A 
HETATM   11  C14 UNL     1       3.610  13.810  19.063  1.00  0.00     0.031 A 
HETATM   12  C15 UNL     1       3.108  12.988  20.069  1.00  0.00     0.031 A 
BRANCH  10  13
HETATM   13  N3  UNL     1       3.232  15.135  17.009  1.00  0.00    -0.356 N 
ATOM     14  H3  UNL     1       3.115  14.788  16.057  1.00  0.00     0.166 HD
BRANCH  13  15
HETATM   15  C8  UNL     1       3.796  16.417  17.149  1.00  0.00     0.032 A 
HETATM   16  C9  UNL     1       3.900  17.117  18.331  1.00  0.00     0.029 A 
HETATM   17  C10 UNL     1       4.442  18.391  18.395  1.00  0.00     0.002 A 
HETATM   18  C11 UNL     1       4.909  19.021  17.262  1.00  0.00     0.000 A 
HETATM   19  C12 UNL     1       4.806  18.323  16.078  1.00  0.00     0.002 A 
HETATM   20  C13 UNL     1       4.273  17.066  16.001  1.00  0.00     0.029 A 
ENDBRANCH  13  15
ENDBRANCH  10  13
ENDBRANCH   5   7
ENDBRANCH   4   5
ENDBRANCH   3   4
BRANCH   3  21
HETATM   21  C16 UNL     1       3.478   9.395  20.989  1.00  0.00     0.129 A 
HETATM   22  N4  UNL     1       3.785   8.493  20.041  1.00  0.00    -0.269 N 
HETATM   23  N5  UNL     1       5.026   8.732  19.645  1.00  0.00    -0.005 NA
ATOM     24  H4  UNL     1       3.172   7.757  19.688  1.00  0.00     0.185 HD
HETATM   25  N6  UNL     1       5.533   9.767  20.313  1.00  0.00    -0.225 N 
HETATM   26  N7  UNL     1       4.573  10.156  21.126  1.00  0.00    -0.274 N 
ATOM     27  H6  UNL     1       6.464  10.172  20.216  1.00  0.00     0.205 HD
ATOM     28  H7  UNL     1       4.653  10.937  21.777  1.00  0.00     0.189 HD
ENDBRANCH   3  21
TORSDOF 6
ENDMDL
