MODEL 2
REMARK VINA RESULT: -7.662152375      3.128      8.702
REMARK  6 active torsions:
REMARK  status: ('A' for Active; 'I' for Inactive)
REMARK    1  A    between atoms: C2_3  and  C3_4 
REMARK    2  A    between atoms: C2_3  and  C16_21 
REMARK    3  A    between atoms: C3_4  and  N2_5 
REMARK    4  A    between atoms: N2_5  and  C4_7 
REMARK    5  A    between atoms: C7_10  and  N3_11 
REMARK    6  A    between atoms: N3_11  and  C8_13 
ROOT
HETATM    1  N1  UNL     1       3.364   6.449  24.069  1.00  0.00    -0.196 NA
HETATM    2  C1  UNL     1       3.219   7.432  23.519  1.00  0.00     0.073 C 
HETATM    3  C2  UNL     1       3.032   8.701  22.815  1.00  0.00     0.180 C 
ENDROOT
BRANCH   3   4
HETATM    4  C3  UNL     1       1.573   8.860  22.443  1.00  0.00     0.147 C 
BRANCH   4   5
HETATM    5  N2  UNL     1       1.134  10.237  22.546  1.00  0.00    -0.388 N 
ATOM      6  H2  UNL     1       0.874  10.638  23.447  1.00  0.00     0.159 HD
BRANCH   5   7
HETATM    7  C4  UNL     1       1.074  11.011  21.361  1.00  0.00     0.028 A 
HETATM    8  C5  UNL     1       1.026  10.443  20.106  1.00  0.00     0.031 A 
HETATM    9  C6  UNL     1       0.970  11.191  18.958  1.00  0.00     0.031 A 
HETATM   10  C7  UNL     1       0.956  12.593  19.020  1.00  0.00     0.032 A 
HETATM   11  C14 UNL     1       1.002  13.163  20.264  1.00  0.00     0.031 A 
HETATM   12  C15 UNL     1       1.061  12.382  21.416  1.00  0.00     0.031 A 
BRANCH  10  13
HETATM   13  N3  UNL     1       0.868  13.312  17.799  1.00  0.00    -0.356 N 
ATOM     14  H3  UNL     1       0.137  13.021  17.149  1.00  0.00     0.166 HD
BRANCH  13  15
HETATM   15  C8  UNL     1       1.683  14.386  17.391  1.00  0.00     0.032 A 
HETATM   16  C9  UNL     1       2.865  14.760  17.990  1.00  0.00     0.029 A 
HETATM   17  C10 UNL     1       3.607  15.847  17.555  1.00  0.00     0.002 A 
HETATM   18  C11 UNL     1       3.187  16.611  16.487  1.00  0.00     0.000 A 
HETATM   19  C12 UNL     1       2.005  16.237  15.885  1.00  0.00     0.002 A 
HETATM   20  C13 UNL     1       1.264  15.168  16.305  1.00  0.00     0.029 A 
ENDBRANCH  13  15
ENDBRANCH  10  13
ENDBRANCH   5   7
ENDBRANCH   4   5
ENDBRANCH   3   4
BRANCH   3  21
HETATM   21  C16 UNL     1       3.824   8.728  21.568  1.00  0.00     0.129 A 
HETATM   22  N4  UNL     1       4.810   9.554  21.179  1.00  0.00    -0.269 N 
HETATM   23  N5  UNL     1       5.204   9.169  19.974  1.00  0.00    -0.005 NA
ATOM     24  H4  UNL     1       5.187  10.337  21.714  1.00  0.00     0.185 HD
HETATM   25  N6  UNL     1       4.498   8.114  19.572  1.00  0.00    -0.225 N 
HETATM   26  N7  UNL     1       3.664   7.861  20.558  1.00  0.00    -0.274 N 
ATOM     27  H6  UNL     1       4.586   7.609  18.690  1.00  0.00     0.205 HD
ATOM     28  H7  UNL     1       2.983   7.102  20.555  1.00  0.00     0.189 HD
ENDBRANCH   3  21
TORSDOF 6
ENDMDL
