MODEL 4
REMARK VINA RESULT: -7.574553482      2.731      3.543
REMARK  6 active torsions:
REMARK  status: ('A' for Active; 'I' for Inactive)
REMARK    1  A    between atoms: C2_3  and  C3_4 
REMARK    2  A    between atoms: C2_3  and  C16_21 
REMARK    3  A    between atoms: C3_4  and  N2_5 
REMARK    4  A    between atoms: N2_5  and  C4_7 
REMARK    5  A    between atoms: C7_10  and  N3_11 
REMARK    6  A    between atoms: N3_11  and  C8_13 
ROOT
HETATM    1  N1  UNL     1       4.402  17.829  18.594  1.00  0.00    -0.196 NA
HETATM    2  C1  UNL     1       3.769  17.488  17.714  1.00  0.00     0.073 C 
HETATM    3  C2  UNL     1       2.949  17.050  16.585  1.00  0.00     0.180 C 
ENDROOT
BRANCH   3   4
HETATM    4  C3  UNL     1       2.493  15.626  16.815  1.00  0.00     0.147 C 
BRANCH   4   5
HETATM    5  N2  UNL     1       3.424  14.884  17.641  1.00  0.00    -0.388 N 
ATOM      6  H2  UNL     1       4.426  15.064  17.593  1.00  0.00     0.159 HD
BRANCH   5   7
HETATM    7  C4  UNL     1       2.904  13.900  18.519  1.00  0.00     0.028 A 
HETATM    8  C5  UNL     1       1.634  13.381  18.380  1.00  0.00     0.031 A 
HETATM    9  C6  UNL     1       1.129  12.430  19.229  1.00  0.00     0.031 A 
HETATM   10  C7  UNL     1       1.903  11.938  20.291  1.00  0.00     0.032 A 
HETATM   11  C14 UNL     1       3.164  12.449  20.433  1.00  0.00     0.031 A 
HETATM   12  C15 UNL     1       3.656  13.416  19.559  1.00  0.00     0.031 A 
BRANCH  10  13
HETATM   13  N3  UNL     1       1.335  10.933  21.119  1.00  0.00    -0.356 N 
ATOM     14  H3  UNL     1       0.336  11.011  21.313  1.00  0.00     0.166 HD
BRANCH  13  15
HETATM   15  C8  UNL     1       2.007   9.839  21.700  1.00  0.00     0.032 A 
HETATM   16  C9  UNL     1       2.866   8.989  21.039  1.00  0.00     0.029 A 
HETATM   17  C10 UNL     1       3.473   7.913  21.665  1.00  0.00     0.002 A 
HETATM   18  C11 UNL     1       3.241   7.643  22.997  1.00  0.00     0.000 A 
HETATM   19  C12 UNL     1       2.383   8.492  23.660  1.00  0.00     0.002 A 
HETATM   20  C13 UNL     1       1.776   9.557  23.054  1.00  0.00     0.029 A 
ENDBRANCH  13  15
ENDBRANCH  10  13
ENDBRANCH   5   7
ENDBRANCH   4   5
ENDBRANCH   3   4
BRANCH   3  21
HETATM   21  C16 UNL     1       3.730  17.079  15.330  1.00  0.00     0.129 A 
HETATM   22  N4  UNL     1       3.344  17.331  14.068  1.00  0.00    -0.269 N 
HETATM   23  N5  UNL     1       4.415  17.237  13.295  1.00  0.00    -0.005 NA
ATOM     24  H4  UNL     1       2.397  17.554  13.761  1.00  0.00     0.185 HD
HETATM   25  N6  UNL     1       5.487  16.932  14.024  1.00  0.00    -0.225 N 
HETATM   26  N7  UNL     1       5.047  16.840  15.261  1.00  0.00    -0.274 N 
ATOM     27  H6  UNL     1       6.443  16.798  13.695  1.00  0.00     0.205 HD
ATOM     28  H7  UNL     1       5.634  16.617  16.065  1.00  0.00     0.189 HD
ENDBRANCH   3  21
TORSDOF 6
ENDMDL
