MODEL 2
REMARK VINA RESULT: -5.693194667      1.507      1.961
REMARK  6 active torsions:
REMARK  status: ('A' for Active; 'I' for Inactive)
REMARK    1  A    between atoms: C1_2  and  N1_3 
REMARK    2  A    between atoms: N1_3  and  O2_4 
REMARK    3  A    between atoms: N1_3  and  C2_6 
REMARK    4  A    between atoms: C2_6  and  C3_7 
REMARK    5  A    between atoms: C3_7  and  C4_8 
REMARK    6  A    between atoms: C4_8  and  P1_9 
ROOT
HETATM    1  C2  UNL     1      32.768  38.773  27.977  1.00  0.00     0.159 C 
ENDROOT
BRANCH   1   2
HETATM    2  N1  UNL     1      31.786  38.889  26.949  1.00  0.00    -0.236 N 
BRANCH   2   3
HETATM    3  C1  UNL     1      31.581  37.833  26.045  1.00  0.00     0.376 C 
HETATM    4  O1  UNL     1      31.968  36.645  26.282  1.00  0.00    -0.281 OA
ENDBRANCH   2   3
BRANCH   2   5
HETATM    5  O2  UNL     1      31.052  40.002  26.837  1.00  0.00    -0.285 OA
ATOM      6  H2  UNL     1      31.479  40.849  26.879  1.00  0.00     0.245 HD
ENDBRANCH   2   5
ENDBRANCH   1   2
BRANCH   1   7
HETATM    7  C3  UNL     1      32.155  38.398  29.333  1.00  0.00     0.036 C 
BRANCH   7   8
HETATM    8  C4  UNL     1      32.832  37.116  29.750  1.00  0.00     0.147 C 
BRANCH   8   9
HETATM    9  P1  UNL     1      33.175  37.030  31.504  1.00  0.00     0.259 P 
HETATM   10  O3  UNL     1      34.192  38.011  31.977  1.00  0.00    -0.640 OA
HETATM   11  O4  UNL     1      31.727  37.338  32.337  1.00  0.00    -0.640 OA
HETATM   12  O5  UNL     1      33.647  35.447  31.945  1.00  0.00    -0.640 OA
ENDBRANCH   8   9
ENDBRANCH   7   8
ENDBRANCH   1   7
TORSDOF 6
ENDMDL
