MODEL 9
REMARK VINA RESULT: -5.423289250      7.277      8.494
REMARK  6 active torsions:
REMARK  status: ('A' for Active; 'I' for Inactive)
REMARK    1  A    between atoms: C1_2  and  N1_3 
REMARK    2  A    between atoms: N1_3  and  O2_4 
REMARK    3  A    between atoms: N1_3  and  C2_6 
REMARK    4  A    between atoms: C2_6  and  C3_7 
REMARK    5  A    between atoms: C3_7  and  C4_8 
REMARK    6  A    between atoms: C4_8  and  P1_9 
ROOT
HETATM    1  C2  UNL     1      34.445  30.949  34.619  1.00  0.00     0.159 C 
ENDROOT
BRANCH   1   2
HETATM    2  N1  UNL     1      33.365  30.241  34.012  1.00  0.00    -0.236 N 
BRANCH   2   3
HETATM    3  C1  UNL     1      33.248  28.850  34.180  1.00  0.00     0.376 C 
HETATM    4  O1  UNL     1      32.757  28.328  35.231  1.00  0.00    -0.281 OA
ENDBRANCH   2   3
BRANCH   2   5
HETATM    5  O2  UNL     1      32.457  30.892  33.277  1.00  0.00    -0.285 OA
ATOM      6  H2  UNL     1      32.744  31.559  32.664  1.00  0.00     0.245 HD
ENDBRANCH   2   5
ENDBRANCH   1   2
BRANCH   1   7
HETATM    7  C3  UNL     1      34.008  32.304  35.190  1.00  0.00     0.036 C 
BRANCH   7   8
HETATM    8  C4  UNL     1      34.814  33.342  34.448  1.00  0.00     0.147 C 
BRANCH   8   9
HETATM    9  P1  UNL     1      33.940  34.886  34.211  1.00  0.00     0.259 P 
HETATM   10  O3  UNL     1      34.817  36.033  33.842  1.00  0.00    -0.640 OA
HETATM   11  O4  UNL     1      32.815  34.665  32.958  1.00  0.00    -0.640 OA
HETATM   12  O5  UNL     1      33.028  35.278  35.603  1.00  0.00    -0.640 OA
ENDBRANCH   8   9
ENDBRANCH   7   8
ENDBRANCH   1   7
TORSDOF 6
ENDMDL
