MODEL 8
REMARK VINA RESULT: -5.486396776      7.421      8.636
REMARK  6 active torsions:
REMARK  status: ('A' for Active; 'I' for Inactive)
REMARK    1  A    between atoms: C1_2  and  N1_3 
REMARK    2  A    between atoms: N1_3  and  O2_4 
REMARK    3  A    between atoms: N1_3  and  C2_6 
REMARK    4  A    between atoms: C2_6  and  C3_7 
REMARK    5  A    between atoms: C3_7  and  C4_8 
REMARK    6  A    between atoms: C4_8  and  P1_9 
ROOT
HETATM    1  C2  UNL     1      34.372  30.744  34.655  1.00  0.00     0.159 C 
ENDROOT
BRANCH   1   2
HETATM    2  N1  UNL     1      33.338  30.014  33.997  1.00  0.00    -0.236 N 
BRANCH   2   3
HETATM    3  C1  UNL     1      33.153  28.648  34.271  1.00  0.00     0.376 C 
HETATM    4  O1  UNL     1      32.793  28.222  35.413  1.00  0.00    -0.281 OA
ENDBRANCH   2   3
BRANCH   2   5
HETATM    5  O2  UNL     1      32.537  30.622  33.115  1.00  0.00    -0.285 OA
ATOM      6  H2  UNL     1      31.888  30.112  32.645  1.00  0.00     0.245 HD
ENDBRANCH   2   5
ENDBRANCH   1   2
BRANCH   1   7
HETATM    7  C3  UNL     1      33.877  32.083  35.218  1.00  0.00     0.036 C 
BRANCH   7   8
HETATM    8  C4  UNL     1      34.693  33.146  34.528  1.00  0.00     0.147 C 
BRANCH   8   9
HETATM    9  P1  UNL     1      33.780  34.653  34.214  1.00  0.00     0.259 P 
HETATM   10  O3  UNL     1      32.783  34.544  33.112  1.00  0.00    -0.640 OA
HETATM   11  O4  UNL     1      32.945  35.067  35.633  1.00  0.00    -0.640 OA
HETATM   12  O5  UNL     1      34.851  35.948  33.900  1.00  0.00    -0.640 OA
ENDBRANCH   8   9
ENDBRANCH   7   8
ENDBRANCH   1   7
TORSDOF 6
ENDMDL
