MODEL 1
REMARK VINA RESULT: -5.819225551      0.000      0.000
REMARK  6 active torsions:
REMARK  status: ('A' for Active; 'I' for Inactive)
REMARK    1  A    between atoms: C1_2  and  N1_3 
REMARK    2  A    between atoms: N1_3  and  O2_4 
REMARK    3  A    between atoms: N1_3  and  C2_6 
REMARK    4  A    between atoms: C2_6  and  C3_7 
REMARK    5  A    between atoms: C3_7  and  C4_8 
REMARK    6  A    between atoms: C4_8  and  P1_9 
ROOT
HETATM    1  C2  UNL     1      31.701  39.126  28.150  1.00  0.00     0.159 C 
ENDROOT
BRANCH   1   2
HETATM    2  N1  UNL     1      32.290  38.079  27.382  1.00  0.00    -0.236 N 
BRANCH   2   3
HETATM    3  C1  UNL     1      31.671  37.634  26.201  1.00  0.00     0.376 C 
HETATM    4  O1  UNL     1      31.698  36.418  25.831  1.00  0.00    -0.281 OA
ENDBRANCH   2   3
BRANCH   2   5
HETATM    5  O2  UNL     1      33.435  37.512  27.777  1.00  0.00    -0.285 OA
ATOM      6  H2  UNL     1      33.592  36.595  27.585  1.00  0.00     0.245 HD
ENDBRANCH   2   5
ENDBRANCH   1   2
BRANCH   1   7
HETATM    7  C3  UNL     1      32.468  39.402  29.450  1.00  0.00     0.036 C 
BRANCH   7   8
HETATM    8  C4  UNL     1      31.733  38.645  30.529  1.00  0.00     0.147 C 
BRANCH   8   9
HETATM    9  P1  UNL     1      32.772  37.498  31.427  1.00  0.00     0.259 P 
HETATM   10  O3  UNL     1      32.138  36.928  32.649  1.00  0.00    -0.640 OA
HETATM   11  O4  UNL     1      33.152  36.209  30.388  1.00  0.00    -0.640 OA
HETATM   12  O5  UNL     1      34.261  38.231  31.836  1.00  0.00    -0.640 OA
ENDBRANCH   8   9
ENDBRANCH   7   8
ENDBRANCH   1   7
TORSDOF 6
ENDMDL
