MODEL 3
REMARK VINA RESULT: -5.680361425      3.324      4.989
REMARK  6 active torsions:
REMARK  status: ('A' for Active; 'I' for Inactive)
REMARK    1  A    between atoms: C1_2  and  N1_3 
REMARK    2  A    between atoms: N1_3  and  O2_4 
REMARK    3  A    between atoms: N1_3  and  C2_6 
REMARK    4  A    between atoms: C2_6  and  C3_7 
REMARK    5  A    between atoms: C3_7  and  C4_8 
REMARK    6  A    between atoms: C4_8  and  P1_9 
ROOT
HETATM    1  C2  UNL     1      32.813  37.082  30.401  1.00  0.00     0.159 C 
ENDROOT
BRANCH   1   2
HETATM    2  N1  UNL     1      33.512  37.155  31.643  1.00  0.00    -0.236 N 
BRANCH   2   3
HETATM    3  C1  UNL     1      33.354  36.142  32.604  1.00  0.00     0.376 C 
HETATM    4  O1  UNL     1      32.502  36.220  33.545  1.00  0.00    -0.281 OA
ENDBRANCH   2   3
BRANCH   2   5
HETATM    5  O2  UNL     1      34.323  38.186  31.902  1.00  0.00    -0.285 OA
ATOM      6  H2  UNL     1      34.644  38.720  31.185  1.00  0.00     0.245 HD
ENDBRANCH   2   5
ENDBRANCH   1   2
BRANCH   1   7
HETATM    7  C3  UNL     1      32.607  38.462  29.763  1.00  0.00     0.036 C 
BRANCH   7   8
HETATM    8  C4  UNL     1      31.241  38.921  30.208  1.00  0.00     0.147 C 
BRANCH   8   9
HETATM    9  P1  UNL     1      30.436  40.003  29.032  1.00  0.00     0.259 P 
HETATM   10  O3  UNL     1      28.962  40.118  29.218  1.00  0.00    -0.640 OA
HETATM   11  O4  UNL     1      31.105  41.555  29.202  1.00  0.00    -0.640 OA
HETATM   12  O5  UNL     1      30.781  39.512  27.431  1.00  0.00    -0.640 OA
ENDBRANCH   8   9
ENDBRANCH   7   8
ENDBRANCH   1   7
TORSDOF 6
ENDMDL
