MODEL 7
REMARK VINA RESULT: -6.596179884      2.195      4.225
REMARK  2 active torsions:
REMARK  status: ('A' for Active; 'I' for Inactive)
REMARK    1  A    between atoms: C9_10  and  O1_11 
REMARK    2  A    between atoms: C12_16  and  O3_17 
ROOT
HETATM    1  C1  UNL     1      54.774  56.048   2.291  1.00  0.00     0.310 C 
HETATM    2  N1  UNL     1      55.098  55.499   3.618  1.00  0.00     0.089 N 
HETATM    3  C2  UNL     1      53.982  54.729   4.042  1.00  0.00     0.273 C 
HETATM    4  C3  UNL     1      53.773  54.663   5.518  1.00  0.00     0.048 C 
HETATM    5  C4  UNL     1      53.804  55.990   6.192  1.00  0.00     0.030 C 
HETATM    6  C5  UNL     1      54.892  56.077   7.184  1.00  0.00    -0.003 A 
HETATM    7  C6  UNL     1      56.186  56.168   6.796  1.00  0.00    -0.046 A 
HETATM    8  C7  UNL     1      57.125  56.222   7.788  1.00  0.00     0.011 A 
HETATM    9  C8  UNL     1      56.721  56.185   9.130  1.00  0.00     0.040 A 
HETATM   10  C9  UNL     1      55.379  56.092   9.483  1.00  0.00     0.099 A 
HETATM   11  C10 UNL     1      54.440  56.039   8.460  1.00  0.00     0.110 A 
HETATM   12  O2  UNL     1      53.031  55.953   8.396  1.00  0.00    -0.338 OA
HETATM   13  C11 UNL     1      52.629  56.320   7.035  1.00  0.00     0.175 C 
HETATM   14  C12 UNL     1      52.217  57.756   7.013  1.00  0.00     0.171 C 
HETATM   15  C13 UNL     1      53.273  58.716   6.636  1.00  0.00     0.004 C 
HETATM   16  C14 UNL     1      54.185  58.385   5.746  1.00  0.00    -0.020 C 
HETATM   17  C15 UNL     1      54.122  57.040   5.143  1.00  0.00     0.057 C 
HETATM   18  C16 UNL     1      55.400  56.630   4.470  1.00  0.00     0.235 C 
HETATM   19  C17 UNL     1      56.544  56.251   5.350  1.00  0.00     0.075 C 
ENDROOT
BRANCH  10  20
HETATM   20  O1  UNL     1      54.948  56.054  10.807  1.00  0.00    -0.358 OA
ATOM     21  H1  UNL     1      54.698  56.833  11.290  1.00  0.00     0.217 HD
ENDBRANCH  10  20
BRANCH  14  22
HETATM   22  O3  UNL     1      51.652  58.078   8.258  1.00  0.00    -0.389 OA
ATOM     23  H3  UNL     1      51.745  59.014   8.398  1.00  0.00     0.210 HD
ENDBRANCH  14  22
TORSDOF 2
ENDMDL
