MODEL 1
REMARK VINA RESULT: -7.194678811      0.000      0.000
REMARK  2 active torsions:
REMARK  status: ('A' for Active; 'I' for Inactive)
REMARK    1  A    between atoms: C9_10  and  O1_11 
REMARK    2  A    between atoms: C12_16  and  O3_17 
ROOT
HETATM    1  C1  UNL     1      57.033  58.736   4.395  1.00  0.00     0.310 C 
HETATM    2  N1  UNL     1      55.904  59.169   5.234  1.00  0.00     0.089 N 
HETATM    3  C2  UNL     1      56.438  59.951   6.293  1.00  0.00     0.273 C 
HETATM    4  C3  UNL     1      55.667  59.915   7.570  1.00  0.00     0.048 C 
HETATM    5  C4  UNL     1      55.325  58.540   8.029  1.00  0.00     0.030 C 
HETATM    6  C5  UNL     1      53.867  58.333   8.106  1.00  0.00    -0.003 A 
HETATM    7  C6  UNL     1      53.118  58.217   6.985  1.00  0.00    -0.046 A 
HETATM    8  C7  UNL     1      51.772  58.048   7.156  1.00  0.00     0.011 A 
HETATM    9  C8  UNL     1      51.238  58.001   8.452  1.00  0.00     0.040 A 
HETATM   10  C9  UNL     1      52.047  58.123   9.577  1.00  0.00     0.099 A 
HETATM   11  C10 UNL     1      53.411  58.294   9.381  1.00  0.00     0.110 A 
HETATM   12  O2  UNL     1      54.534  58.444  10.225  1.00  0.00    -0.338 OA
HETATM   13  C11 UNL     1      55.731  58.198   9.415  1.00  0.00     0.175 C 
HETATM   14  C12 UNL     1      56.179  56.786   9.612  1.00  0.00     0.171 C 
HETATM   15  C13 UNL     1      55.676  55.814   8.623  1.00  0.00     0.004 C 
HETATM   16  C14 UNL     1      55.504  56.172   7.368  1.00  0.00    -0.020 C 
HETATM   17  C15 UNL     1      55.824  57.560   6.983  1.00  0.00     0.057 C 
HETATM   18  C16 UNL     1      55.225  57.965   5.667  1.00  0.00     0.235 C 
HETATM   19  C17 UNL     1      53.757  58.228   5.636  1.00  0.00     0.075 C 
ENDROOT
BRANCH  10  20
HETATM   20  O1  UNL     1      51.544  58.080  10.875  1.00  0.00    -0.358 OA
ATOM     21  H1  UNL     1      52.102  58.014  11.641  1.00  0.00     0.217 HD
ENDBRANCH  10  20
BRANCH  14  22
HETATM   22  O3  UNL     1      55.859  56.395  10.923  1.00  0.00    -0.389 OA
ATOM     23  H3  UNL     1      56.423  55.671  11.169  1.00  0.00     0.210 HD
ENDBRANCH  14  22
TORSDOF 2
ENDMDL
