MODEL 2
REMARK VINA RESULT: -6.903194747      2.767      4.636
REMARK  2 active torsions:
REMARK  status: ('A' for Active; 'I' for Inactive)
REMARK    1  A    between atoms: C9_10  and  O1_11 
REMARK    2  A    between atoms: C12_16  and  O3_17 
ROOT
HETATM    1  C1  UNL     1      51.845  58.027  10.835  1.00  0.00     0.310 C 
HETATM    2  N1  UNL     1      52.162  57.058   9.774  1.00  0.00     0.089 N 
HETATM    3  C2  UNL     1      53.096  56.131  10.311  1.00  0.00     0.273 C 
HETATM    4  C3  UNL     1      54.044  55.532   9.327  1.00  0.00     0.048 C 
HETATM    5  C4  UNL     1      54.713  56.531   8.450  1.00  0.00     0.030 C 
HETATM    6  C5  UNL     1      54.395  56.312   7.026  1.00  0.00    -0.003 A 
HETATM    7  C6  UNL     1      53.169  56.601   6.532  1.00  0.00    -0.046 A 
HETATM    8  C7  UNL     1      52.962  56.345   5.205  1.00  0.00     0.011 A 
HETATM    9  C8  UNL     1      54.001  55.810   4.431  1.00  0.00     0.040 A 
HETATM   10  C9  UNL     1      55.248  55.530   4.981  1.00  0.00     0.099 A 
HETATM   11  C10 UNL     1      55.438  55.798   6.330  1.00  0.00     0.110 A 
HETATM   12  O2  UNL     1      56.514  55.669   7.237  1.00  0.00    -0.338 OA
HETATM   13  C11 UNL     1      56.196  56.477   8.417  1.00  0.00     0.175 C 
HETATM   14  C12 UNL     1      56.874  57.804   8.305  1.00  0.00     0.171 C 
HETATM   15  C13 UNL     1      56.062  58.887   7.717  1.00  0.00     0.004 C 
HETATM   16  C14 UNL     1      54.767  58.942   7.942  1.00  0.00    -0.020 C 
HETATM   17  C15 UNL     1      54.155  57.900   8.789  1.00  0.00     0.057 C 
HETATM   18  C16 UNL     1      52.662  57.823   8.651  1.00  0.00     0.235 C 
HETATM   19  C17 UNL     1      52.121  57.213   7.401  1.00  0.00     0.075 C 
ENDROOT
BRANCH  10  20
HETATM   20  O1  UNL     1      56.298  54.999   4.236  1.00  0.00    -0.358 OA
ATOM     21  H1  UNL     1      57.162  54.848   4.601  1.00  0.00     0.217 HD
ENDBRANCH  10  20
BRANCH  14  22
HETATM   22  O3  UNL     1      58.080  57.631   7.606  1.00  0.00    -0.389 OA
ATOM     23  H3  UNL     1      58.353  58.474   7.261  1.00  0.00     0.210 HD
ENDBRANCH  14  22
TORSDOF 2
ENDMDL
