MODEL 9
REMARK VINA RESULT: -6.557044011      1.997      3.803
REMARK  2 active torsions:
REMARK  status: ('A' for Active; 'I' for Inactive)
REMARK    1  A    between atoms: C9_10  and  O1_11 
REMARK    2  A    between atoms: C12_16  and  O3_17 
ROOT
HETATM    1  C1  UNL     1      57.509  57.788   3.789  1.00  0.00     0.310 C 
HETATM    2  N1  UNL     1      57.340  57.004   5.023  1.00  0.00     0.089 N 
HETATM    3  C2  UNL     1      56.595  55.841   4.688  1.00  0.00     0.273 C 
HETATM    4  C3  UNL     1      55.743  55.288   5.781  1.00  0.00     0.048 C 
HETATM    5  C4  UNL     1      54.888  56.306   6.452  1.00  0.00     0.030 C 
HETATM    6  C5  UNL     1      55.205  56.429   7.887  1.00  0.00    -0.003 A 
HETATM    7  C6  UNL     1      56.350  57.019   8.302  1.00  0.00    -0.046 A 
HETATM    8  C7  UNL     1      56.566  57.068   9.652  1.00  0.00     0.011 A 
HETATM    9  C8  UNL     1      55.617  56.521  10.526  1.00  0.00     0.040 A 
HETATM   10  C9  UNL     1      54.453  55.924  10.056  1.00  0.00     0.099 A 
HETATM   11  C10 UNL     1      54.252  55.885   8.682  1.00  0.00     0.110 A 
HETATM   12  O2  UNL     1      53.236  55.395   7.830  1.00  0.00    -0.338 OA
HETATM   13  C11 UNL     1      53.437  56.000   6.511  1.00  0.00     0.175 C 
HETATM   14  C12 UNL     1      52.536  57.183   6.367  1.00  0.00     0.171 C 
HETATM   15  C13 UNL     1      53.132  58.486   6.722  1.00  0.00     0.004 C 
HETATM   16  C14 UNL     1      54.403  58.723   6.477  1.00  0.00    -0.020 C 
HETATM   17  C15 UNL     1      55.208  57.660   5.845  1.00  0.00     0.057 C 
HETATM   18  C16 UNL     1      56.687  57.874   5.979  1.00  0.00     0.235 C 
HETATM   19  C17 UNL     1      57.296  57.625   7.319  1.00  0.00     0.075 C 
ENDROOT
BRANCH  10  20
HETATM   20  O1  UNL     1      53.493  55.373  10.901  1.00  0.00    -0.358 OA
ATOM     21  H1  UNL     1      52.956  54.628  10.654  1.00  0.00     0.217 HD
ENDBRANCH  10  20
BRANCH  14  22
HETATM   22  O3  UNL     1      51.362  56.941   7.099  1.00  0.00    -0.389 OA
ATOM     23  H3  UNL     1      50.979  57.777   7.342  1.00  0.00     0.210 HD
ENDBRANCH  14  22
TORSDOF 2
ENDMDL
