MODEL 7
REMARK VINA RESULT: -7.017330741      3.034      6.588
REMARK  5 active torsions:
REMARK  status: ('A' for Active; 'I' for Inactive)
REMARK    1  A    between atoms: S1_2  and  C2_3 
REMARK    2  A    between atoms: C2_3  and  C3_4 
REMARK    3  A    between atoms: C4_8  and  C5_9 
REMARK    4  A    between atoms: C11_22  and  O2_23 
REMARK    5  A    between atoms: C12_25  and  O3_26 
ROOT
HETATM    1  C3  UNL     1       9.256   7.692  94.441  1.00  0.00     0.227 C 
HETATM    2  N1  UNL     1       9.286   6.674  93.428  1.00  0.00    -0.057 N 
ATOM      3  H11 UNL     1       9.770   5.826  93.725  1.00  0.00     0.278 HD
ATOM      4  H12 UNL     1       9.899   6.905  92.646  1.00  0.00     0.278 HD
HETATM    5  C4  UNL     1       7.893   6.433  93.021  1.00  0.00     0.254 C 
HETATM    6  C11 UNL     1       7.046   7.144  94.034  1.00  0.00     0.184 C 
HETATM    7  C12 UNL     1       7.915   8.392  94.266  1.00  0.00     0.180 C 
ENDROOT
BRANCH   5   8
HETATM    8  C5  UNL     1       7.626   5.001  92.889  1.00  0.00     0.019 A 
HETATM    9  C6  UNL     1       6.857   4.128  93.602  1.00  0.00     0.100 A 
HETATM   10  N2  UNL     1       6.945   2.881  93.097  1.00  0.00    -0.359 N 
HETATM   11  C7  UNL     1       7.778   2.933  92.041  1.00  0.00     0.128 A 
ATOM     12  H2  UNL     1       6.468   2.052  93.450  1.00  0.00     0.165 HD
HETATM   13  C8  UNL     1       8.235   1.993  91.132  1.00  0.00     0.275 A 
HETATM   14  C10 UNL     1       8.219   4.228  91.884  1.00  0.00     0.075 A 
HETATM   15  O1  UNL     1       7.829   0.812  91.283  1.00  0.00    -0.266 OA
HETATM   16  N3  UNL     1       9.073   2.328  90.135  1.00  0.00    -0.318 N 
HETATM   17  C9  UNL     1       9.502   3.599  89.987  1.00  0.00     0.184 A 
ATOM     18  H3  UNL     1       9.389   1.611  89.482  1.00  0.00     0.169 HD
HETATM   19  N4  UNL     1       9.057   4.512  90.873  1.00  0.00    -0.350 N 
ATOM     20  H4  UNL     1       9.375   5.475  90.770  1.00  0.00     0.166 HD
ENDBRANCH   5   8
BRANCH   6  21
HETATM   21  O2  UNL     1       6.819   6.508  95.209  1.00  0.00    -0.390 OA
ATOM     22  H2  UNL     1       5.971   6.097  95.325  1.00  0.00     0.210 HD
ENDBRANCH   6  21
BRANCH   1  23
HETATM   23  C2  UNL     1      10.403   8.654  94.347  1.00  0.00     0.109 C 
BRANCH  23  24
HETATM   24  S1  UNL     1      11.921   8.020  95.048  1.00  0.00    -0.171 SA
HETATM   25  C1  UNL     1      12.985   7.437  93.674  1.00  0.00     0.089 C 
ENDBRANCH  23  24
ENDBRANCH   1  23
BRANCH   7  26
HETATM   26  O3  UNL     1       7.511   9.068  95.405  1.00  0.00    -0.391 OA
ATOM     27  H3  UNL     1       6.788   8.641  95.850  1.00  0.00     0.210 HD
ENDBRANCH   7  26
TORSDOF 5
ENDMDL
