MODEL 2
REMARK VINA RESULT: -8.284773178      2.802      6.969
REMARK  5 active torsions:
REMARK  status: ('A' for Active; 'I' for Inactive)
REMARK    1  A    between atoms: S1_2  and  C2_3 
REMARK    2  A    between atoms: C2_3  and  C3_4 
REMARK    3  A    between atoms: C4_8  and  C5_9 
REMARK    4  A    between atoms: C11_22  and  O2_23 
REMARK    5  A    between atoms: C12_25  and  O3_26 
ROOT
HETATM    1  C3  UNL     1       8.922   6.287  93.233  1.00  0.00     0.227 C 
HETATM    2  N1  UNL     1       9.522   5.474  92.212  1.00  0.00    -0.057 N 
ATOM      3  H11 UNL     1      10.243   4.848  92.570  1.00  0.00     0.278 HD
ATOM      4  H12 UNL     1      10.116   6.005  91.575  1.00  0.00     0.278 HD
HETATM    5  C4  UNL     1       8.428   4.767  91.529  1.00  0.00     0.254 C 
HETATM    6  C11 UNL     1       7.211   4.987  92.378  1.00  0.00     0.184 C 
HETATM    7  C12 UNL     1       7.464   6.438  92.820  1.00  0.00     0.180 C 
ENDROOT
BRANCH   5   8
HETATM    8  C5  UNL     1       8.773   3.365  91.298  1.00  0.00     0.019 A 
HETATM    9  C6  UNL     1       9.721   2.539  91.829  1.00  0.00     0.100 A 
HETATM   10  N2  UNL     1       9.659   1.312  91.275  1.00  0.00    -0.359 N 
HETATM   11  C7  UNL     1       8.661   1.328  90.371  1.00  0.00     0.128 A 
ATOM     12  H2  UNL     1      10.258   0.518  91.500  1.00  0.00     0.165 HD
HETATM   13  C8  UNL     1       8.124   0.379  89.518  1.00  0.00     0.275 A 
HETATM   14  C10 UNL     1       8.092   2.582  90.357  1.00  0.00     0.075 A 
HETATM   15  O1  UNL     1       8.650  -0.764  89.535  1.00  0.00    -0.266 OA
HETATM   16  N3  UNL     1       7.089   0.665  88.710  1.00  0.00    -0.318 N 
HETATM   17  C9  UNL     1       6.536   1.896  88.701  1.00  0.00     0.184 A 
ATOM     18  H3  UNL     1       6.715  -0.058  88.095  1.00  0.00     0.169 HD
HETATM   19  N4  UNL     1       7.061   2.820  89.531  1.00  0.00    -0.350 N 
ATOM     20  H4  UNL     1       6.650   3.753  89.532  1.00  0.00     0.166 HD
ENDBRANCH   5   8
BRANCH   6  21
HETATM   21  O2  UNL     1       7.059   4.189  93.462  1.00  0.00    -0.390 OA
ATOM     22  H2  UNL     1       7.442   4.487  94.279  1.00  0.00     0.210 HD
ENDBRANCH   6  21
BRANCH   1  23
HETATM   23  C2  UNL     1       9.594   7.618  93.401  1.00  0.00     0.109 C 
BRANCH  23  24
HETATM   24  S1  UNL     1      11.379   7.519  93.380  1.00  0.00    -0.171 SA
HETATM   25  C1  UNL     1      12.010   8.230  94.947  1.00  0.00     0.089 C 
ENDBRANCH  23  24
ENDBRANCH   1  23
BRANCH   7  26
HETATM   26  O3  UNL     1       6.640   6.782  93.879  1.00  0.00    -0.391 OA
ATOM     27  H3  UNL     1       6.225   7.629  93.762  1.00  0.00     0.210 HD
ENDBRANCH   7  26
TORSDOF 5
ENDMDL
