MODEL 4
REMARK VINA RESULT: -7.371836512      2.171      3.280
REMARK  5 active torsions:
REMARK  status: ('A' for Active; 'I' for Inactive)
REMARK    1  A    between atoms: S1_2  and  C2_3 
REMARK    2  A    between atoms: C2_3  and  C3_4 
REMARK    3  A    between atoms: C4_8  and  C5_9 
REMARK    4  A    between atoms: C11_22  and  O2_23 
REMARK    5  A    between atoms: C12_25  and  O3_26 
ROOT
HETATM    1  C3  UNL     1       6.787   1.306  89.393  1.00  0.00     0.227 C 
HETATM    2  N1  UNL     1       6.861   2.727  89.588  1.00  0.00    -0.057 N 
ATOM      3  H11 UNL     1       6.114   3.091  90.179  1.00  0.00     0.278 HD
ATOM      4  H12 UNL     1       6.632   3.259  88.748  1.00  0.00     0.278 HD
HETATM    5  C4  UNL     1       8.206   3.019  90.108  1.00  0.00     0.254 C 
HETATM    6  C11 UNL     1       8.798   1.689  90.470  1.00  0.00     0.184 C 
HETATM    7  C12 UNL     1       8.234   0.835  89.322  1.00  0.00     0.180 C 
ENDROOT
BRANCH   5   8
HETATM    8  C5  UNL     1       8.146   3.986  91.204  1.00  0.00     0.019 A 
HETATM    9  C6  UNL     1       8.787   5.168  91.440  1.00  0.00     0.100 A 
HETATM   10  N2  UNL     1       8.405   5.698  92.618  1.00  0.00    -0.359 N 
HETATM   11  C7  UNL     1       7.503   4.860  93.164  1.00  0.00     0.128 A 
ATOM     12  H2  UNL     1       8.737   6.574  93.022  1.00  0.00     0.165 HD
HETATM   13  C8  UNL     1       6.762   4.877  94.333  1.00  0.00     0.275 A 
HETATM   14  C10 UNL     1       7.320   3.790  92.317  1.00  0.00     0.075 A 
HETATM   15  O1  UNL     1       6.936   5.858  95.103  1.00  0.00    -0.266 OA
HETATM   16  N3  UNL     1       5.897   3.892  94.633  1.00  0.00    -0.318 N 
HETATM   17  C9  UNL     1       5.722   2.846  93.799  1.00  0.00     0.184 A 
ATOM     18  H3  UNL     1       5.366   3.937  95.502  1.00  0.00     0.169 HD
HETATM   19  N4  UNL     1       6.445   2.830  92.661  1.00  0.00    -0.350 N 
ATOM     20  H4  UNL     1       6.321   2.044  92.024  1.00  0.00     0.166 HD
ENDBRANCH   5   8
BRANCH   6  21
HETATM   21  O2  UNL     1       8.444   1.157  91.665  1.00  0.00    -0.390 OA
ATOM     22  H2  UNL     1       8.900   0.373  91.945  1.00  0.00     0.210 HD
ENDBRANCH   6  21
BRANCH   1  23
HETATM   23  C2  UNL     1       6.014   0.916  88.168  1.00  0.00     0.109 C 
BRANCH  23  24
HETATM   24  S1  UNL     1       4.286   0.592  88.493  1.00  0.00    -0.171 SA
HETATM   25  C1  UNL     1       3.543  -0.121  86.977  1.00  0.00     0.089 C 
ENDBRANCH  23  24
ENDBRANCH   1  23
BRANCH   7  26
HETATM   26  O3  UNL     1       8.372  -0.515  89.599  1.00  0.00    -0.391 OA
ATOM     27  H3  UNL     1       9.280  -0.794  89.623  1.00  0.00     0.210 HD
ENDBRANCH   7  26
TORSDOF 5
ENDMDL
