MODEL 9
REMARK VINA RESULT: -6.800373986      2.098      2.799
REMARK  5 active torsions:
REMARK  status: ('A' for Active; 'I' for Inactive)
REMARK    1  A    between atoms: S1_2  and  C2_3 
REMARK    2  A    between atoms: C2_3  and  C3_4 
REMARK    3  A    between atoms: C4_8  and  C5_9 
REMARK    4  A    between atoms: C11_22  and  O2_23 
REMARK    5  A    between atoms: C12_25  and  O3_26 
ROOT
HETATM    1  C3  UNL     1       9.123   2.626  91.963  1.00  0.00     0.227 C 
HETATM    2  N1  UNL     1       8.463   3.351  93.013  1.00  0.00    -0.057 N 
ATOM      3  H11 UNL     1       9.111   3.804  93.657  1.00  0.00     0.278 HD
ATOM      4  H12 UNL     1       8.007   2.744  93.694  1.00  0.00     0.278 HD
HETATM    5  C4  UNL     1       7.536   4.293  92.366  1.00  0.00     0.254 C 
HETATM    6  C11 UNL     1       7.895   4.280  90.909  1.00  0.00     0.184 C 
HETATM    7  C12 UNL     1       8.228   2.787  90.741  1.00  0.00     0.180 C 
ENDROOT
BRANCH   5   8
HETATM    8  C5  UNL     1       7.596   5.608  93.003  1.00  0.00     0.019 A 
HETATM    9  C6  UNL     1       6.643   6.439  93.518  1.00  0.00     0.100 A 
HETATM   10  N2  UNL     1       7.195   7.574  93.991  1.00  0.00    -0.359 N 
HETATM   11  C7  UNL     1       8.523   7.491  93.788  1.00  0.00     0.128 A 
ATOM     12  H2  UNL     1       6.697   8.352  94.423  1.00  0.00     0.165 HD
HETATM   13  C8  UNL     1       9.591   8.326  94.071  1.00  0.00     0.275 A 
HETATM   14  C10 UNL     1       8.807   6.290  93.178  1.00  0.00     0.075 A 
HETATM   15  O1  UNL     1       9.324   9.423  94.627  1.00  0.00    -0.266 OA
HETATM   16  N3  UNL     1      10.854   7.981  93.766  1.00  0.00    -0.318 N 
HETATM   17  C9  UNL     1      11.126   6.802  93.168  1.00  0.00     0.184 A 
ATOM     18  H3  UNL     1      11.618   8.619  93.991  1.00  0.00     0.169 HD
HETATM   19  N4  UNL     1      10.085   5.991  92.892  1.00  0.00    -0.350 N 
ATOM     20  H4  UNL     1      10.279   5.098  92.440  1.00  0.00     0.166 HD
ENDBRANCH   5   8
BRANCH   6  21
HETATM   21  O2  UNL     1       8.949   5.039  90.523  1.00  0.00    -0.390 OA
ATOM     22  H2  UNL     1       9.023   5.906  90.905  1.00  0.00     0.210 HD
ENDBRANCH   6  21
BRANCH   1  23
HETATM   23  C2  UNL     1       9.355   1.182  92.297  1.00  0.00     0.109 C 
BRANCH  23  24
HETATM   24  S1  UNL     1       8.537   0.660  93.799  1.00  0.00    -0.171 SA
HETATM   25  C1  UNL     1       9.702   0.890  95.194  1.00  0.00     0.089 C 
ENDBRANCH  23  24
ENDBRANCH   1  23
BRANCH   7  26
HETATM   26  O3  UNL     1       8.901   2.564  89.551  1.00  0.00    -0.391 OA
ATOM     27  H3  UNL     1       8.899   1.650  89.294  1.00  0.00     0.210 HD
ENDBRANCH   7  26
TORSDOF 5
ENDMDL
