MODEL 6
REMARK VINA RESULT: -9.439932704      1.867      3.874
REMARK  1 active torsions:
REMARK  status: ('A' for Active; 'I' for Inactive)
REMARK    1  A    between atoms: N3_22  and  O2_24 
ROOT
HETATM    1  O1  UNL     1      39.790   7.888  37.734  1.00  0.00    -0.267 OA
HETATM    2  C1  UNL     1      40.085   6.810  37.189  1.00  0.00     0.259 A 
HETATM    3  N1  UNL     1      40.936   5.783  37.669  1.00  0.00    -0.322 N 
ATOM      4  H1  UNL     1      41.438   5.792  38.558  1.00  0.00     0.169 HD
HETATM    5  C2  UNL     1      40.974   4.742  36.709  1.00  0.00     0.046 A 
HETATM    6  C3  UNL     1      41.660   3.545  36.733  1.00  0.00     0.030 A 
HETATM    7  C4  UNL     1      41.608   2.620  35.730  1.00  0.00     0.002 A 
HETATM    8  C5  UNL     1      40.821   2.911  34.641  1.00  0.00     0.001 A 
HETATM    9  C6  UNL     1      40.119   4.123  34.602  1.00  0.00     0.015 A 
HETATM   10  C7  UNL     1      40.182   5.034  35.611  1.00  0.00     0.009 A 
HETATM   11  C8  UNL     1      39.608   6.336  35.887  1.00  0.00     0.073 A 
HETATM   12  C9  UNL     1      38.773   7.021  35.100  1.00  0.00     0.079 A 
HETATM   13  N2  UNL     1      38.248   8.320  35.459  1.00  0.00    -0.353 N 
ATOM     14  H2  UNL     1      38.447   8.836  36.316  1.00  0.00     0.166 HD
HETATM   15  C10 UNL     1      37.402   8.745  34.397  1.00  0.00     0.045 A 
HETATM   16  C11 UNL     1      36.649   9.914  34.228  1.00  0.00     0.030 A 
HETATM   17  C12 UNL     1      35.910  10.064  33.083  1.00  0.00     0.002 A 
HETATM   18  C13 UNL     1      35.874   9.115  32.086  1.00  0.00     0.001 A 
HETATM   19  C14 UNL     1      36.619   7.964  32.255  1.00  0.00     0.016 A 
HETATM   20  C15 UNL     1      37.378   7.794  33.417  1.00  0.00     0.021 A 
HETATM   21  C16 UNL     1      38.250   6.655  33.824  1.00  0.00     0.094 A 
HETATM   22  N3  UNL     1      38.405   5.653  33.109  1.00  0.00    -0.266 N 
ATOM     23  H3  UNL     1      39.026   4.941  33.495  1.00  0.00     0.194 HD
ENDROOT
BRANCH  22  24
HETATM   24  O2  UNL     1      37.877   5.355  31.891  1.00  0.00    -0.289 OA
ATOM     25  H2  UNL     1      37.122   5.722  31.446  1.00  0.00     0.244 HD
ENDBRANCH  22  24
TORSDOF 1
ENDMDL
