MODEL 3
REMARK VINA RESULT: -10.375187382      1.525      3.667
REMARK  1 active torsions:
REMARK  status: ('A' for Active; 'I' for Inactive)
REMARK    1  A    between atoms: N3_22  and  O2_24 
ROOT
HETATM    1  O1  UNL     1      40.261   7.794  38.804  1.00  0.00    -0.267 OA
HETATM    2  C1  UNL     1      40.301   6.945  37.896  1.00  0.00     0.259 A 
HETATM    3  N1  UNL     1      41.023   5.725  37.859  1.00  0.00    -0.322 N 
ATOM      4  H1  UNL     1      41.628   5.369  38.600  1.00  0.00     0.169 HD
HETATM    5  C2  UNL     1      40.765   5.085  36.622  1.00  0.00     0.046 A 
HETATM    6  C3  UNL     1      41.240   3.884  36.136  1.00  0.00     0.030 A 
HETATM    7  C4  UNL     1      40.907   3.376  34.912  1.00  0.00     0.002 A 
HETATM    8  C5  UNL     1      40.049   4.115  34.133  1.00  0.00     0.001 A 
HETATM    9  C6  UNL     1      39.558   5.336  34.613  1.00  0.00     0.015 A 
HETATM   10  C7  UNL     1      39.900   5.828  35.835  1.00  0.00     0.009 A 
HETATM   11  C8  UNL     1      39.591   7.009  36.616  1.00  0.00     0.073 A 
HETATM   12  C9  UNL     1      38.788   8.015  36.254  1.00  0.00     0.079 A 
HETATM   13  N2  UNL     1      38.537   9.159  37.101  1.00  0.00    -0.353 N 
ATOM     14  H2  UNL     1      38.927   9.321  38.030  1.00  0.00     0.166 HD
HETATM   15  C10 UNL     1      37.646  10.020  36.401  1.00  0.00     0.045 A 
HETATM   16  C11 UNL     1      37.083  11.253  36.756  1.00  0.00     0.030 A 
HETATM   17  C12 UNL     1      36.240  11.873  35.871  1.00  0.00     0.002 A 
HETATM   18  C13 UNL     1      35.921  11.339  34.642  1.00  0.00     0.001 A 
HETATM   19  C14 UNL     1      36.478  10.124  34.295  1.00  0.00     0.016 A 
HETATM   20  C15 UNL     1      37.340   9.477  35.186  1.00  0.00     0.021 A 
HETATM   21  C16 UNL     1      38.054   8.176  35.041  1.00  0.00     0.094 A 
HETATM   22  N3  UNL     1      37.948   7.473  34.024  1.00  0.00    -0.266 N 
ATOM     23  H3  UNL     1      38.486   6.606  34.042  1.00  0.00     0.194 HD
ENDROOT
BRANCH  22  24
HETATM   24  O2  UNL     1      37.228   7.679  32.888  1.00  0.00    -0.289 OA
ATOM     25  H2  UNL     1      37.356   7.334  32.012  1.00  0.00     0.244 HD
ENDBRANCH  22  24
TORSDOF 1
ENDMDL
