MODEL 1
REMARK VINA RESULT: -10.781152316      0.000      0.000
REMARK  1 active torsions:
REMARK  status: ('A' for Active; 'I' for Inactive)
REMARK    1  A    between atoms: N3_22  and  O2_24 
ROOT
HETATM    1  O1  UNL     1      38.603   5.537  32.799  1.00  0.00    -0.267 OA
HETATM    2  C1  UNL     1      39.353   4.916  33.573  1.00  0.00     0.259 A 
HETATM    3  N1  UNL     1      39.980   3.660  33.376  1.00  0.00    -0.322 N 
ATOM      4  H1  UNL     1      39.897   3.078  32.542  1.00  0.00     0.169 HD
HETATM    5  C2  UNL     1      40.742   3.350  34.529  1.00  0.00     0.046 A 
HETATM    6  C3  UNL     1      41.519   2.242  34.800  1.00  0.00     0.030 A 
HETATM    7  C4  UNL     1      42.210   2.066  35.966  1.00  0.00     0.002 A 
HETATM    8  C5  UNL     1      42.115   3.058  36.913  1.00  0.00     0.001 A 
HETATM    9  C6  UNL     1      41.329   4.188  36.653  1.00  0.00     0.015 A 
HETATM   10  C7  UNL     1      40.647   4.347  35.485  1.00  0.00     0.009 A 
HETATM   11  C8  UNL     1      39.775   5.350  34.908  1.00  0.00     0.073 A 
HETATM   12  C9  UNL     1      39.397   6.500  35.476  1.00  0.00     0.079 A 
HETATM   13  N2  UNL     1      38.520   7.445  34.822  1.00  0.00    -0.353 N 
ATOM     14  H2  UNL     1      38.108   7.345  33.894  1.00  0.00     0.166 HD
HETATM   15  C10 UNL     1      38.336   8.540  35.712  1.00  0.00     0.045 A 
HETATM   16  C11 UNL     1      37.588   9.718  35.583  1.00  0.00     0.030 A 
HETATM   17  C12 UNL     1      37.591  10.618  36.617  1.00  0.00     0.002 A 
HETATM   18  C13 UNL     1      38.296  10.416  37.782  1.00  0.00     0.001 A 
HETATM   19  C14 UNL     1      39.031   9.253  37.907  1.00  0.00     0.016 A 
HETATM   20  C15 UNL     1      39.040   8.324  36.861  1.00  0.00     0.021 A 
HETATM   21  C16 UNL     1      39.747   7.016  36.760  1.00  0.00     0.094 A 
HETATM   22  N3  UNL     1      40.462   6.578  37.674  1.00  0.00    -0.266 N 
ATOM     23  H3  UNL     1      40.892   5.671  37.488  1.00  0.00     0.194 HD
ENDROOT
BRANCH  22  24
HETATM   24  O2  UNL     1      40.762   7.117  38.887  1.00  0.00    -0.289 OA
ATOM     25  H2  UNL     1      41.140   6.713  39.659  1.00  0.00     0.244 HD
ENDBRANCH  22  24
TORSDOF 1
ENDMDL
