MODEL 4
REMARK VINA RESULT: -10.258388289      1.055      6.596
REMARK  1 active torsions:
REMARK  status: ('A' for Active; 'I' for Inactive)
REMARK    1  A    between atoms: N3_22  and  O2_24 
ROOT
HETATM    1  O1  UNL     1      40.649   7.638  38.976  1.00  0.00    -0.267 OA
HETATM    2  C1  UNL     1      39.885   8.119  38.121  1.00  0.00     0.259 A 
HETATM    3  N1  UNL     1      39.210   9.366  38.143  1.00  0.00    -0.322 N 
ATOM      4  H1  UNL     1      39.265  10.060  38.889  1.00  0.00     0.169 HD
HETATM    5  C2  UNL     1      38.448   9.487  36.954  1.00  0.00     0.046 A 
HETATM    6  C3  UNL     1      37.633  10.517  36.532  1.00  0.00     0.030 A 
HETATM    7  C4  UNL     1      36.948  10.506  35.350  1.00  0.00     0.002 A 
HETATM    8  C5  UNL     1      37.088   9.399  34.547  1.00  0.00     0.001 A 
HETATM    9  C6  UNL     1      37.911   8.345  34.964  1.00  0.00     0.015 A 
HETATM   10  C7  UNL     1      38.588   8.372  36.144  1.00  0.00     0.009 A 
HETATM   11  C8  UNL     1      39.490   7.491  36.857  1.00  0.00     0.073 A 
HETATM   12  C9  UNL     1      39.916   6.290  36.453  1.00  0.00     0.079 A 
HETATM   13  N2  UNL     1      40.820   5.476  37.234  1.00  0.00    -0.353 N 
ATOM     14  H2  UNL     1      41.219   5.717  38.142  1.00  0.00     0.166 HD
HETATM   15  C10 UNL     1      41.053   4.277  36.503  1.00  0.00     0.045 A 
HETATM   16  C11 UNL     1      41.841   3.156  36.796  1.00  0.00     0.030 A 
HETATM   17  C12 UNL     1      41.882   2.125  35.894  1.00  0.00     0.002 A 
HETATM   18  C13 UNL     1      41.180   2.139  34.709  1.00  0.00     0.001 A 
HETATM   19  C14 UNL     1      40.404   3.246  34.424  1.00  0.00     0.016 A 
HETATM   20  C15 UNL     1      40.351   4.307  35.333  1.00  0.00     0.021 A 
HETATM   21  C16 UNL     1      39.597   5.590  35.251  1.00  0.00     0.094 A 
HETATM   22  N3  UNL     1      38.874   5.872  34.282  1.00  0.00    -0.266 N 
ATOM     23  H3  UNL     1      38.410   6.779  34.341  1.00  0.00     0.194 HD
ENDROOT
BRANCH  22  24
HETATM   24  O2  UNL     1      38.605   5.161  33.154  1.00  0.00    -0.289 OA
ATOM     25  H2  UNL     1      38.939   5.267  32.270  1.00  0.00     0.244 HD
ENDBRANCH  22  24
TORSDOF 1
ENDMDL
