MODEL 5
REMARK VINA RESULT: -9.924487441      1.360      6.550
REMARK  1 active torsions:
REMARK  status: ('A' for Active; 'I' for Inactive)
REMARK    1  A    between atoms: N3_22  and  O2_24 
ROOT
HETATM    1  O1  UNL     1      40.763   7.247  38.563  1.00  0.00    -0.267 OA
HETATM    2  C1  UNL     1      40.013   7.535  37.613  1.00  0.00     0.259 A 
HETATM    3  N1  UNL     1      39.178   8.671  37.461  1.00  0.00    -0.322 N 
ATOM      4  H1  UNL     1      39.078   9.430  38.135  1.00  0.00     0.169 HD
HETATM    5  C2  UNL     1      38.506   8.573  36.218  1.00  0.00     0.046 A 
HETATM    6  C3  UNL     1      37.597   9.435  35.638  1.00  0.00     0.030 A 
HETATM    7  C4  UNL     1      37.018   9.219  34.419  1.00  0.00     0.002 A 
HETATM    8  C5  UNL     1      37.371   8.074  33.745  1.00  0.00     0.001 A 
HETATM    9  C6  UNL     1      38.291   7.190  34.322  1.00  0.00     0.015 A 
HETATM   10  C7  UNL     1      38.859   7.420  35.537  1.00  0.00     0.009 A 
HETATM   11  C8  UNL     1      39.811   6.744  36.396  1.00  0.00     0.073 A 
HETATM   12  C9  UNL     1      40.425   5.584  36.146  1.00  0.00     0.079 A 
HETATM   13  N2  UNL     1      41.364   4.981  37.066  1.00  0.00    -0.353 N 
ATOM     14  H2  UNL     1      41.651   5.357  37.970  1.00  0.00     0.166 HD
HETATM   15  C10 UNL     1      41.814   3.765  36.479  1.00  0.00     0.045 A 
HETATM   16  C11 UNL     1      42.719   2.798  36.937  1.00  0.00     0.030 A 
HETATM   17  C12 UNL     1      42.971   1.705  36.150  1.00  0.00     0.002 A 
HETATM   18  C13 UNL     1      42.373   1.512  34.924  1.00  0.00     0.001 A 
HETATM   19  C14 UNL     1      41.481   2.466  34.476  1.00  0.00     0.016 A 
HETATM   20  C15 UNL     1      41.212   3.588  35.266  1.00  0.00     0.021 A 
HETATM   21  C16 UNL     1      40.302   4.739  35.003  1.00  0.00     0.094 A 
HETATM   22  N3  UNL     1      39.630   4.826  33.963  1.00  0.00    -0.266 N 
ATOM     23  H3  UNL     1      39.044   5.659  33.898  1.00  0.00     0.194 HD
ENDROOT
BRANCH  22  24
HETATM   24  O2  UNL     1      39.551   3.984  32.897  1.00  0.00    -0.289 OA
ATOM     25  H2  UNL     1      38.874   3.362  32.658  1.00  0.00     0.244 HD
ENDBRANCH  22  24
TORSDOF 1
ENDMDL
