MODEL 6
REMARK VINA RESULT: -6.788150285      1.741      2.268
REMARK  8 active torsions:
REMARK  status: ('A' for Active; 'I' for Inactive)
REMARK    1  A    between atoms: C2_2  and  O1_3 
REMARK    2  A    between atoms: C2_2  and  C3_5 
REMARK    3  A    between atoms: C2_2  and  C4_7 
REMARK    4  A    between atoms: C4_7  and  C5_8 
REMARK    5  A    between atoms: C5_8  and  O2_9 
REMARK    6  A    between atoms: O2_9  and  P1_10 
REMARK    7  A    between atoms: P1_10  and  O5_13 
REMARK    8  A    between atoms: O5_13  and  P2_14 
ROOT
HETATM    1  O2  UNL     1       9.523   5.776  12.951  1.00  0.00    -0.289 OA
ENDROOT
BRANCH   1   2
HETATM    2  C5  UNL     1       8.925   6.962  12.808  1.00  0.00     0.184 C 
BRANCH   2   3
HETATM    3  C4  UNL     1       8.761   7.813  14.045  1.00  0.00     0.065 C 
BRANCH   3   4
HETATM    4  C2  UNL     1       9.523   9.047  14.144  1.00  0.00     0.065 C 
HETATM    5  C1  UNL     1      10.899   8.788  14.771  1.00  0.00     0.046 C 
BRANCH   4   6
HETATM    6  O1  UNL     1       9.492   9.942  13.134  1.00  0.00    -0.389 OA
ATOM      7  H1  UNL     1       8.661  10.382  12.992  1.00  0.00     0.210 HD
ENDBRANCH   4   6
BRANCH   4   8
HETATM    8  C3  UNL     1       8.842   9.799  15.387  1.00  0.00     0.122 C 
HETATM    9 BR1  UNL     1       9.846   9.495  16.993  1.00  0.00    -0.093 Br
ENDBRANCH   4   8
ENDBRANCH   3   4
ENDBRANCH   2   3
ENDBRANCH   1   2
BRANCH   1  10
HETATM   10  P1  UNL     1      10.439   5.243  11.789  1.00  0.00     0.418 P 
HETATM   11  O3  UNL     1      11.445   6.475  12.518  1.00  0.00    -0.624 OA
HETATM   12  O4  UNL     1      11.507   5.391  10.649  1.00  0.00    -0.624 OA
BRANCH  10  13
HETATM   13  O5  UNL     1      10.727   3.768  12.303  1.00  0.00    -0.173 OA
BRANCH  13  14
HETATM   14  P2  UNL     1      10.261   2.616  11.213  1.00  0.00     0.431 P 
HETATM   15  O6  UNL     1      10.821   2.687   9.655  1.00  0.00    -0.616 OA
HETATM   16  O7  UNL     1      11.358   1.658  11.665  1.00  0.00    -0.616 OA
HETATM   17  O8  UNL     1       9.075   1.529  11.594  1.00  0.00    -0.616 OA
ENDBRANCH  13  14
ENDBRANCH  10  13
ENDBRANCH   1  10
TORSDOF 8
ENDMDL
