MODEL 3
REMARK VINA RESULT: -7.189033539      1.218      1.680
REMARK  8 active torsions:
REMARK  status: ('A' for Active; 'I' for Inactive)
REMARK    1  A    between atoms: C2_2  and  O1_3 
REMARK    2  A    between atoms: C2_2  and  C3_5 
REMARK    3  A    between atoms: C2_2  and  C4_7 
REMARK    4  A    between atoms: C4_7  and  C5_8 
REMARK    5  A    between atoms: C5_8  and  O2_9 
REMARK    6  A    between atoms: O2_9  and  P1_10 
REMARK    7  A    between atoms: P1_10  and  O5_13 
REMARK    8  A    between atoms: O5_13  and  P2_14 
ROOT
HETATM    1  O2  UNL     1       9.568   5.826  13.015  1.00  0.00    -0.289 OA
ENDROOT
BRANCH   1   2
HETATM    2  C5  UNL     1       8.824   6.917  12.805  1.00  0.00     0.184 C 
BRANCH   2   3
HETATM    3  C4  UNL     1       8.610   7.849  13.973  1.00  0.00     0.065 C 
BRANCH   3   4
HETATM    4  C2  UNL     1       9.721   8.678  14.411  1.00  0.00     0.065 C 
HETATM    5  C1  UNL     1       9.257   9.705  15.453  1.00  0.00     0.046 C 
BRANCH   4   6
HETATM    6  O1  UNL     1      10.933   8.123  14.626  1.00  0.00    -0.389 OA
ATOM      7  H1  UNL     1      10.936   7.199  14.845  1.00  0.00     0.210 HD
ENDBRANCH   4   6
BRANCH   4   8
HETATM    8  C3  UNL     1       9.936   9.682  13.178  1.00  0.00     0.122 C 
HETATM    9 BR1  UNL     1      11.804  10.000  12.884  1.00  0.00    -0.093 Br
ENDBRANCH   4   8
ENDBRANCH   3   4
ENDBRANCH   2   3
ENDBRANCH   1   2
BRANCH   1  10
HETATM   10  P1  UNL     1      10.445   5.268  11.834  1.00  0.00     0.418 P 
HETATM   11  O3  UNL     1      11.498   6.473  12.540  1.00  0.00    -0.624 OA
HETATM   12  O4  UNL     1      11.493   5.385  10.673  1.00  0.00    -0.624 OA
BRANCH  10  13
HETATM   13  O5  UNL     1      10.704   3.786  12.346  1.00  0.00    -0.173 OA
BRANCH  13  14
HETATM   14  P2  UNL     1      10.241   2.647  11.242  1.00  0.00     0.431 P 
HETATM   15  O6  UNL     1      10.767   2.760   9.674  1.00  0.00    -0.616 OA
HETATM   16  O7  UNL     1      11.368   1.703  11.653  1.00  0.00    -0.616 OA
HETATM   17  O8  UNL     1       9.087   1.527  11.624  1.00  0.00    -0.616 OA
ENDBRANCH  13  14
ENDBRANCH  10  13
ENDBRANCH   1  10
TORSDOF 8
ENDMDL
