MODEL 5
REMARK VINA RESULT: -6.791073704      4.849      5.972
REMARK  8 active torsions:
REMARK  status: ('A' for Active; 'I' for Inactive)
REMARK    1  A    between atoms: C2_2  and  O1_3 
REMARK    2  A    between atoms: C2_2  and  C3_5 
REMARK    3  A    between atoms: C2_2  and  C4_7 
REMARK    4  A    between atoms: C4_7  and  C5_8 
REMARK    5  A    between atoms: C5_8  and  O2_9 
REMARK    6  A    between atoms: O2_9  and  P1_10 
REMARK    7  A    between atoms: P1_10  and  O5_13 
REMARK    8  A    between atoms: O5_13  and  P2_14 
ROOT
HETATM    1  O2  UNL     1      11.029   3.457  10.121  1.00  0.00    -0.289 OA
ENDROOT
BRANCH   1   2
HETATM    2  C5  UNL     1      10.510   3.548   8.892  1.00  0.00     0.184 C 
BRANCH   2   3
HETATM    3  C4  UNL     1      10.744   4.830   8.131  1.00  0.00     0.065 C 
BRANCH   3   4
HETATM    4  C2  UNL     1      12.113   5.274   7.925  1.00  0.00     0.065 C 
HETATM    5  C1  UNL     1      12.161   6.459   6.952  1.00  0.00     0.046 C 
BRANCH   4   6
HETATM    6  O1  UNL     1      12.969   5.328   8.967  1.00  0.00    -0.389 OA
ATOM      7  H1  UNL     1      13.470   6.131   9.054  1.00  0.00     0.210 HD
ENDBRANCH   4   6
BRANCH   4   8
HETATM    8  C3  UNL     1      12.718   4.152   6.950  1.00  0.00     0.122 C 
HETATM    9 BR1  UNL     1      11.657   3.997   5.359  1.00  0.00    -0.093 Br
ENDBRANCH   4   8
ENDBRANCH   3   4
ENDBRANCH   2   3
ENDBRANCH   1   2
BRANCH   1  10
HETATM   10  P1  UNL     1      10.143   2.861  11.276  1.00  0.00     0.418 P 
HETATM   11  O3  UNL     1      11.108   1.481  10.800  1.00  0.00    -0.624 OA
HETATM   12  O4  UNL     1       9.319   1.731  11.987  1.00  0.00    -0.624 OA
BRANCH  10  13
HETATM   13  O5  UNL     1      10.715   3.667  12.521  1.00  0.00    -0.173 OA
BRANCH  13  14
HETATM   14  P2  UNL     1      10.442   5.292  12.400  1.00  0.00     0.431 P 
HETATM   15  O6  UNL     1       9.016   5.929  12.956  1.00  0.00    -0.616 OA
HETATM   16  O7  UNL     1      11.187   5.575  13.701  1.00  0.00    -0.616 OA
HETATM   17  O8  UNL     1      11.470   6.255  11.535  1.00  0.00    -0.616 OA
ENDBRANCH  13  14
ENDBRANCH  10  13
ENDBRANCH   1  10
TORSDOF 8
ENDMDL
