MODEL 9
REMARK VINA RESULT: -6.618939718      4.723      6.435
REMARK  8 active torsions:
REMARK  status: ('A' for Active; 'I' for Inactive)
REMARK    1  A    between atoms: C2_2  and  O1_3 
REMARK    2  A    between atoms: C2_2  and  C3_5 
REMARK    3  A    between atoms: C2_2  and  C4_7 
REMARK    4  A    between atoms: C4_7  and  C5_8 
REMARK    5  A    between atoms: C5_8  and  O2_9 
REMARK    6  A    between atoms: O2_9  and  P1_10 
REMARK    7  A    between atoms: P1_10  and  O5_13 
REMARK    8  A    between atoms: O5_13  and  P2_14 
ROOT
HETATM    1  O2  UNL     1      11.401   5.798  11.253  1.00  0.00    -0.289 OA
ENDROOT
BRANCH   1   2
HETATM    2  C5  UNL     1      11.097   5.829   9.952  1.00  0.00     0.184 C 
BRANCH   2   3
HETATM    3  C4  UNL     1      11.768   4.815   9.056  1.00  0.00     0.065 C 
BRANCH   3   4
HETATM    4  C2  UNL     1      12.720   5.289   8.065  1.00  0.00     0.065 C 
HETATM    5  C1  UNL     1      12.058   6.289   7.108  1.00  0.00     0.046 C 
BRANCH   4   6
HETATM    6  O1  UNL     1      13.990   5.569   8.429  1.00  0.00    -0.389 OA
ATOM      7  H1  UNL     1      14.344   6.390   8.108  1.00  0.00     0.210 HD
ENDBRANCH   4   6
BRANCH   4   8
HETATM    8  C3  UNL     1      12.842   4.049   7.053  1.00  0.00     0.122 C 
HETATM    9 BR1  UNL     1      11.394   4.060   5.794  1.00  0.00    -0.093 Br
ENDBRANCH   4   8
ENDBRANCH   3   4
ENDBRANCH   2   3
ENDBRANCH   1   2
BRANCH   1  10
HETATM   10  P1  UNL     1      10.325   6.282  12.294  1.00  0.00     0.418 P 
HETATM   11  O3  UNL     1      10.337   4.551  12.551  1.00  0.00    -0.624 OA
HETATM   12  O4  UNL     1       9.000   6.150  13.123  1.00  0.00    -0.624 OA
BRANCH  10  13
HETATM   13  O5  UNL     1      11.246   7.103  13.296  1.00  0.00    -0.173 OA
BRANCH  13  14
HETATM   14  P2  UNL     1      11.562   8.631  12.754  1.00  0.00     0.431 P 
HETATM   15  O6  UNL     1      10.682   9.909  13.338  1.00  0.00    -0.616 OA
HETATM   16  O7  UNL     1      12.689   8.822  13.766  1.00  0.00    -0.616 OA
HETATM   17  O8  UNL     1      12.588   8.876  11.481  1.00  0.00    -0.616 OA
ENDBRANCH  13  14
ENDBRANCH  10  13
ENDBRANCH   1  10
TORSDOF 8
ENDMDL
