MODEL 17
REMARK VINA RESULT: -6.936695033      5.004      6.777
REMARK  5 active torsions:
REMARK  status: ('A' for Active; 'I' for Inactive)
REMARK    1  A    between atoms: O1_2  and  C2_3 
REMARK    2  A    between atoms: C5_6  and  C6_7 
REMARK    3  A    between atoms: C6_7  and  N1_8 
REMARK       I    between atoms: N1_8  and  C7_10 
REMARK       I    between atoms: C7_10  and  N2_12 
REMARK    4  A    between atoms: N2_12  and  C8_14 
REMARK    5  A    between atoms: C10_18  and  N4_19 
ROOT
HETATM    1  N1  UNL     1      25.163  23.595   7.658  1.00  0.00    -0.339 N 
ATOM      2  H1  UNL     1      25.141  23.039   6.803  1.00  0.00     0.164 HD
HETATM    3  C7  UNL     1      23.969  24.215   8.102  1.00  0.00     0.322 C 
HETATM    4  O2  UNL     1      24.020  24.896   9.159  1.00  0.00    -0.247 OA
HETATM    5  N2  UNL     1      22.734  24.103   7.420  1.00  0.00    -0.289 N 
ATOM      6  H2  UNL     1      22.675  23.553   6.562  1.00  0.00     0.172 HD
ENDROOT
BRANCH   1   7
HETATM    7  C6  UNL     1      26.418  23.723   8.376  1.00  0.00     0.162 C 
BRANCH   7   8
HETATM    8  C5  UNL     1      26.485  22.691   9.431  1.00  0.00    -0.040 A 
HETATM    9  C4  UNL     1      26.907  23.024  10.720  1.00  0.00     0.011 A 
HETATM   10  C3  UNL     1      26.956  22.046  11.667  1.00  0.00     0.037 A 
HETATM   11  C2  UNL     1      26.622  20.746  11.454  1.00  0.00     0.068 A 
HETATM   12  C12 UNL     1      26.200  20.402  10.170  1.00  0.00     0.037 A 
HETATM   13  C11 UNL     1      26.140  21.383   9.185  1.00  0.00     0.011 A 
BRANCH  11  14
HETATM   14  O1  UNL     1      26.686  19.775  12.444  1.00  0.00    -0.356 OA
HETATM   15  C1  UNL     1      26.206  18.470  12.108  1.00  0.00     0.210 C 
ENDBRANCH  11  14
ENDBRANCH   7   8
ENDBRANCH   1   7
BRANCH   5  16
HETATM   16  C8  UNL     1      21.563  24.761   7.929  1.00  0.00     0.154 A 
HETATM   17  N3  UNL     1      21.410  25.486   9.021  1.00  0.00    -0.343 N 
HETATM   18  C9  UNL     1      20.263  25.998   9.309  1.00  0.00     0.134 A 
ATOM     19  H3  UNL     1      22.204  25.641   9.641  1.00  0.00     0.167 HD
HETATM   20  C10 UNL     1      19.219  25.766   8.450  1.00  0.00     0.162 A 
HETATM   21  S1  UNL     1      19.972  24.804   7.256  1.00  0.00    -0.028 SA
BRANCH  20  22
HETATM   22  N4  UNL     1      17.865  26.219   8.546  1.00  0.00    -0.107 N 
HETATM   23  O3  UNL     1      17.022  25.533   9.150  1.00  0.00    -0.531 OA
HETATM   24  O4  UNL     1      17.471  27.397   7.990  1.00  0.00    -0.531 OA
ENDBRANCH  20  22
ENDBRANCH   5  16
TORSDOF 5
ENDMDL
