MODEL 1
REMARK VINA RESULT: -7.800584723      0.000      0.000
REMARK  5 active torsions:
REMARK  status: ('A' for Active; 'I' for Inactive)
REMARK    1  A    between atoms: O1_2  and  C2_3 
REMARK    2  A    between atoms: C5_6  and  C6_7 
REMARK    3  A    between atoms: C6_7  and  N1_8 
REMARK       I    between atoms: N1_8  and  C7_10 
REMARK       I    between atoms: C7_10  and  N2_12 
REMARK    4  A    between atoms: N2_12  and  C8_14 
REMARK    5  A    between atoms: C10_18  and  N4_19 
ROOT
HETATM    1  N1  UNL     1      22.164  28.125  10.468  1.00  0.00    -0.339 N 
ATOM      2  H1  UNL     1      22.003  28.582   9.570  1.00  0.00     0.164 HD
HETATM    3  C7  UNL     1      21.309  28.433  11.555  1.00  0.00     0.322 C 
HETATM    4  O2  UNL     1      21.526  27.859  12.653  1.00  0.00    -0.247 OA
HETATM    5  N2  UNL     1      20.232  29.347  11.463  1.00  0.00    -0.289 N 
ATOM      6  H2  UNL     1      20.041  29.821  10.580  1.00  0.00     0.172 HD
ENDROOT
BRANCH   1   7
HETATM    7  C6  UNL     1      23.261  27.183  10.585  1.00  0.00     0.162 C 
BRANCH   7   8
HETATM    8  C5  UNL     1      23.063  26.079   9.623  1.00  0.00    -0.040 A 
HETATM    9  C4  UNL     1      21.808  25.852   9.056  1.00  0.00     0.011 A 
HETATM   10  C3  UNL     1      21.664  24.824   8.173  1.00  0.00     0.037 A 
HETATM   11  C2  UNL     1      22.663  23.986   7.793  1.00  0.00     0.068 A 
HETATM   12  C12 UNL     1      23.921  24.204   8.353  1.00  0.00     0.037 A 
HETATM   13  C11 UNL     1      24.095  25.247   9.257  1.00  0.00     0.011 A 
BRANCH  11  14
HETATM   14  O1  UNL     1      22.479  22.948   6.890  1.00  0.00    -0.356 OA
HETATM   15  C1  UNL     1      21.371  23.056   5.991  1.00  0.00     0.210 C 
ENDBRANCH  11  14
ENDBRANCH   7   8
ENDBRANCH   1   7
BRANCH   5  16
HETATM   16  C8  UNL     1      19.407  29.612  12.609  1.00  0.00     0.154 A 
HETATM   17  N3  UNL     1      19.571  30.484  13.584  1.00  0.00    -0.343 N 
HETATM   18  C9  UNL     1      18.707  30.571  14.537  1.00  0.00     0.134 A 
ATOM     19  H3  UNL     1      20.388  31.095  13.584  1.00  0.00     0.167 HD
HETATM   20  C10 UNL     1      17.623  29.731  14.500  1.00  0.00     0.162 A 
HETATM   21  S1  UNL     1      17.922  28.853  13.066  1.00  0.00    -0.028 SA
BRANCH  20  22
HETATM   22  N4  UNL     1      16.538  29.634  15.428  1.00  0.00    -0.107 N 
HETATM   23  O3  UNL     1      16.253  30.602  16.155  1.00  0.00    -0.531 OA
HETATM   24  O4  UNL     1      15.799  28.496  15.537  1.00  0.00    -0.531 OA
ENDBRANCH  20  22
ENDBRANCH   5  16
TORSDOF 5
ENDMDL
