MODEL 3
REMARK VINA RESULT: -7.534069370      1.697      2.374
REMARK  5 active torsions:
REMARK  status: ('A' for Active; 'I' for Inactive)
REMARK    1  A    between atoms: O1_2  and  C2_3 
REMARK    2  A    between atoms: C5_6  and  C6_7 
REMARK    3  A    between atoms: C6_7  and  N1_8 
REMARK       I    between atoms: N1_8  and  C7_10 
REMARK       I    between atoms: C7_10  and  N2_12 
REMARK    4  A    between atoms: N2_12  and  C8_14 
REMARK    5  A    between atoms: C10_18  and  N4_19 
ROOT
HETATM    1  N1  UNL     1      20.534  27.079   9.701  1.00  0.00    -0.339 N 
ATOM      2  H1  UNL     1      21.481  27.455   9.646  1.00  0.00     0.164 HD
HETATM    3  C7  UNL     1      19.654  27.587  10.690  1.00  0.00     0.322 C 
HETATM    4  O2  UNL     1      18.491  27.109  10.741  1.00  0.00    -0.247 OA
HETATM    5  N2  UNL     1      20.019  28.595  11.613  1.00  0.00    -0.289 N 
ATOM      6  H2  UNL     1      20.958  28.995  11.584  1.00  0.00     0.172 HD
ENDROOT
BRANCH   1   7
HETATM    7  C6  UNL     1      20.136  26.045   8.765  1.00  0.00     0.162 C 
BRANCH   7   8
HETATM    8  C5  UNL     1      21.283  25.147   8.512  1.00  0.00    -0.040 A 
HETATM    9  C4  UNL     1      21.100  23.942   7.832  1.00  0.00     0.011 A 
HETATM   10  C3  UNL     1      22.180  23.139   7.618  1.00  0.00     0.037 A 
HETATM   11  C2  UNL     1      23.446  23.424   8.022  1.00  0.00     0.068 A 
HETATM   12  C12 UNL     1      23.640  24.625   8.703  1.00  0.00     0.037 A 
HETATM   13  C11 UNL     1      22.553  25.463   8.934  1.00  0.00     0.011 A 
BRANCH  11  14
HETATM   14  O1  UNL     1      24.524  22.581   7.786  1.00  0.00    -0.356 OA
HETATM   15  C1  UNL     1      25.684  22.765   8.602  1.00  0.00     0.210 C 
ENDBRANCH  11  14
ENDBRANCH   7   8
ENDBRANCH   1   7
BRANCH   5  16
HETATM   16  C8  UNL     1      19.073  29.061  12.589  1.00  0.00     0.154 A 
HETATM   17  N3  UNL     1      17.758  28.969  12.600  1.00  0.00    -0.343 N 
HETATM   18  C9  UNL     1      17.076  29.456  13.580  1.00  0.00     0.134 A 
ATOM     19  H3  UNL     1      17.276  28.509  11.828  1.00  0.00     0.167 HD
HETATM   20  C10 UNL     1      17.762  30.066  14.600  1.00  0.00     0.162 A 
HETATM   21  S1  UNL     1      19.377  29.896  14.071  1.00  0.00    -0.028 SA
BRANCH  20  22
HETATM   22  N4  UNL     1      17.242  30.678  15.784  1.00  0.00    -0.107 N 
HETATM   23  O3  UNL     1      16.040  30.545  16.075  1.00  0.00    -0.531 OA
HETATM   24  O4  UNL     1      18.038  31.408  16.613  1.00  0.00    -0.531 OA
ENDBRANCH  20  22
ENDBRANCH   5  16
TORSDOF 5
ENDMDL
