MODEL 2
REMARK VINA RESULT: -7.539905945      1.049      1.564
REMARK  5 active torsions:
REMARK  status: ('A' for Active; 'I' for Inactive)
REMARK    1  A    between atoms: O1_2  and  C2_3 
REMARK    2  A    between atoms: C5_6  and  C6_7 
REMARK    3  A    between atoms: C6_7  and  N1_8 
REMARK       I    between atoms: N1_8  and  C7_10 
REMARK       I    between atoms: C7_10  and  N2_12 
REMARK    4  A    between atoms: N2_12  and  C8_14 
REMARK    5  A    between atoms: C10_18  and  N4_19 
ROOT
HETATM    1  N1  UNL     1      22.469  28.138  10.694  1.00  0.00    -0.339 N 
ATOM      2  H1  UNL     1      22.538  28.768   9.894  1.00  0.00     0.164 HD
HETATM    3  C7  UNL     1      21.476  28.385  11.675  1.00  0.00     0.322 C 
HETATM    4  O2  UNL     1      21.410  27.596  12.653  1.00  0.00    -0.247 OA
HETATM    5  N2  UNL     1      20.565  29.465  11.605  1.00  0.00    -0.289 N 
ATOM      6  H2  UNL     1      20.604  30.113  10.818  1.00  0.00     0.172 HD
ENDROOT
BRANCH   1   7
HETATM    7  C6  UNL     1      23.392  27.023  10.787  1.00  0.00     0.162 C 
BRANCH   7   8
HETATM    8  C5  UNL     1      22.965  25.956   9.859  1.00  0.00    -0.040 A 
HETATM    9  C4  UNL     1      23.907  25.261   9.097  1.00  0.00     0.011 A 
HETATM   10  C3  UNL     1      23.475  24.284   8.252  1.00  0.00     0.037 A 
HETATM   11  C2  UNL     1      22.175  23.924   8.087  1.00  0.00     0.068 A 
HETATM   12  C12 UNL     1      21.226  24.610   8.843  1.00  0.00     0.037 A 
HETATM   13  C11 UNL     1      21.641  25.613   9.714  1.00  0.00     0.011 A 
BRANCH  11  14
HETATM   14  O1  UNL     1      21.772  22.922   7.215  1.00  0.00    -0.356 OA
HETATM   15  C1  UNL     1      21.257  23.333   5.945  1.00  0.00     0.210 C 
ENDBRANCH  11  14
ENDBRANCH   7   8
ENDBRANCH   1   7
BRANCH   5  16
HETATM   16  C8  UNL     1      19.584  29.653  12.638  1.00  0.00     0.154 A 
HETATM   17  N3  UNL     1      18.395  29.101  12.784  1.00  0.00    -0.343 N 
HETATM   18  C9  UNL     1      17.653  29.405  13.793  1.00  0.00     0.134 A 
ATOM     19  H3  UNL     1      18.061  28.429  12.093  1.00  0.00     0.167 HD
HETATM   20  C10 UNL     1      18.139  30.312  14.700  1.00  0.00     0.162 A 
HETATM   21  S1  UNL     1      19.665  30.678  14.028  1.00  0.00    -0.028 SA
BRANCH  20  22
HETATM   22  N4  UNL     1      17.515  30.807  15.888  1.00  0.00    -0.107 N 
HETATM   23  O3  UNL     1      18.198  31.375  16.758  1.00  0.00    -0.531 OA
HETATM   24  O4  UNL     1      16.175  30.674  16.094  1.00  0.00    -0.531 OA
ENDBRANCH  20  22
ENDBRANCH   5  16
TORSDOF 5
ENDMDL
