MODEL 3
REMARK VINA RESULT: -6.841272412      1.062      1.426
REMARK  5 active torsions:
REMARK  status: ('A' for Active; 'I' for Inactive)
REMARK    1  A    between atoms: N1_2  and  C3_4 
REMARK    2  A    between atoms: C3_4  and  C4_5 
REMARK    3  A    between atoms: C4_5  and  S1_6 
REMARK    4  A    between atoms: S1_6  and  C5_7 
REMARK    5  A    between atoms: C5_7  and  C6_8 
ROOT
HETATM    1  C6  UNL     1      16.129  16.958  19.801  1.00  0.00    -0.019 A 
HETATM    2  C7  UNL     1      17.162  17.177  18.928  1.00  0.00     0.036 A 
HETATM    3  C8  UNL     1      18.439  17.485  19.390  1.00  0.00     0.048 A 
HETATM    4  N2  UNL     1      19.485  17.704  18.455  1.00  0.00    -0.102 NA
HETATM    5  C9  UNL     1      18.717  17.583  20.734  1.00  0.00     0.046 A 
HETATM    6  C10 UNL     1      17.672  17.362  21.602  1.00  0.00     0.061 A 
HETATM    7  C11 UNL     1      17.890  17.448  22.977  1.00  0.00     0.260 A 
HETATM    8  O1  UNL     1      19.026  17.722  23.417  1.00  0.00    -0.267 OA
HETATM    9  N3  UNL     1      16.883  17.235  23.838  1.00  0.00    -0.297 N 
ATOM     10  H3  UNL     1      17.053  17.298  24.841  1.00  0.00     0.171 HD
HETATM   11  C12 UNL     1      15.657  16.940  23.389  1.00  0.00     0.195 A 
HETATM   12  N4  UNL     1      14.557  16.706  24.265  1.00  0.00    -0.063 NA
HETATM   13  N5  UNL     1      15.419  16.851  22.070  1.00  0.00    -0.329 N 
ATOM     14  H5  UNL     1      14.480  16.625  21.744  1.00  0.00     0.168 HD
HETATM   15  C13 UNL     1      16.398  17.056  21.172  1.00  0.00     0.057 A 
ENDROOT
BRANCH   1  16
HETATM   16  C5  UNL     1      14.744  16.643  19.440  1.00  0.00     0.114 C 
BRANCH  16  17
HETATM   17  S1  UNL     1      13.752  18.037  18.919  1.00  0.00    -0.163 SA
BRANCH  17  18
HETATM   18  C4  UNL     1      12.857  17.709  17.378  1.00  0.00     0.104 C 
BRANCH  18  19
HETATM   19  C3  UNL     1      12.292  16.308  17.509  1.00  0.00     0.281 C 
BRANCH  19  20
HETATM   20  N1  UNL     1      12.854  15.373  16.589  1.00  0.00     0.080 N 
HETATM   21  C1  UNL     1      11.859  14.566  15.920  1.00  0.00     0.309 C 
HETATM   22  C2  UNL     1      13.689  15.973  15.576  1.00  0.00     0.309 C 
ENDBRANCH  19  20
ENDBRANCH  18  19
ENDBRANCH  17  18
ENDBRANCH  16  17
ENDBRANCH   1  16
TORSDOF 5
ENDMDL
