MODEL 14
REMARK VINA RESULT: -6.075176893      3.616      6.674
REMARK  5 active torsions:
REMARK  status: ('A' for Active; 'I' for Inactive)
REMARK    1  A    between atoms: N1_2  and  C3_4 
REMARK    2  A    between atoms: C3_4  and  C4_5 
REMARK    3  A    between atoms: C4_5  and  S1_6 
REMARK    4  A    between atoms: S1_6  and  C5_7 
REMARK    5  A    between atoms: C5_7  and  C6_8 
ROOT
HETATM    1  C6  UNL     1      13.437  16.411  15.428  1.00  0.00    -0.019 A 
HETATM    2  C7  UNL     1      12.570  17.126  14.646  1.00  0.00     0.036 A 
HETATM    3  C8  UNL     1      11.218  17.211  14.967  1.00  0.00     0.048 A 
HETATM    4  N2  UNL     1      10.348  17.963  14.133  1.00  0.00    -0.102 NA
HETATM    5  C9  UNL     1      10.697  16.585  16.076  1.00  0.00     0.046 A 
HETATM    6  C10 UNL     1      11.579  15.869  16.855  1.00  0.00     0.061 A 
HETATM    7  C11 UNL     1      11.112  15.210  17.992  1.00  0.00     0.260 A 
HETATM    8  O1  UNL     1       9.904  15.271  18.303  1.00  0.00    -0.267 OA
HETATM    9  N3  UNL     1      11.957  14.508  18.763  1.00  0.00    -0.297 N 
ATOM     10  H3  UNL     1      11.606  14.031  19.594  1.00  0.00     0.171 HD
HETATM   11  C12 UNL     1      13.255  14.428  18.450  1.00  0.00     0.195 A 
HETATM   12  N4  UNL     1      14.189  13.695  19.238  1.00  0.00    -0.063 NA
HETATM   13  N5  UNL     1      13.731  15.053  17.360  1.00  0.00    -0.329 N 
ATOM     14  H5  UNL     1      14.723  14.983  17.135  1.00  0.00     0.168 HD
HETATM   15  C13 UNL     1      12.922  15.767  16.560  1.00  0.00     0.057 A 
ENDROOT
BRANCH   1  16
HETATM   16  C5  UNL     1      14.873  16.235  15.189  1.00  0.00     0.114 C 
BRANCH  16  17
HETATM   17  S1  UNL     1      15.858  17.722  15.306  1.00  0.00    -0.163 SA
BRANCH  17  18
HETATM   18  C4  UNL     1      15.650  18.565  16.897  1.00  0.00     0.104 C 
BRANCH  18  19
HETATM   19  C3  UNL     1      16.115  17.585  17.956  1.00  0.00     0.281 C 
BRANCH  19  20
HETATM   20  N1  UNL     1      15.554  17.826  19.246  1.00  0.00     0.080 N 
HETATM   21  C1  UNL     1      14.129  18.069  19.209  1.00  0.00     0.309 C 
HETATM   22  C2  UNL     1      15.797  16.772  20.201  1.00  0.00     0.309 C 
ENDBRANCH  19  20
ENDBRANCH  18  19
ENDBRANCH  17  18
ENDBRANCH  16  17
ENDBRANCH   1  16
TORSDOF 5
ENDMDL
