MODEL 15
REMARK VINA RESULT: -6.059878128      3.252      6.243
REMARK  5 active torsions:
REMARK  status: ('A' for Active; 'I' for Inactive)
REMARK    1  A    between atoms: N1_2  and  C3_4 
REMARK    2  A    between atoms: C3_4  and  C4_5 
REMARK    3  A    between atoms: C4_5  and  S1_6 
REMARK    4  A    between atoms: S1_6  and  C5_7 
REMARK    5  A    between atoms: C5_7  and  C6_8 
ROOT
HETATM    1  C6  UNL     1      15.806  17.473  17.976  1.00  0.00    -0.019 A 
HETATM    2  C7  UNL     1      15.514  18.670  17.379  1.00  0.00     0.036 A 
HETATM    3  C8  UNL     1      14.215  18.976  16.980  1.00  0.00     0.048 A 
HETATM    4  N2  UNL     1      13.950  20.228  16.366  1.00  0.00    -0.102 NA
HETATM    5  C9  UNL     1      13.176  18.094  17.166  1.00  0.00     0.046 A 
HETATM    6  C10 UNL     1      13.481  16.892  17.767  1.00  0.00     0.061 A 
HETATM    7  C11 UNL     1      12.471  15.955  17.983  1.00  0.00     0.260 A 
HETATM    8  O1  UNL     1      11.298  16.204  17.634  1.00  0.00    -0.267 OA
HETATM    9  N3  UNL     1      12.750  14.780  18.567  1.00  0.00    -0.297 N 
ATOM     10  H3  UNL     1      12.004  14.102  18.721  1.00  0.00     0.171 HD
HETATM   11  C12 UNL     1      14.000  14.491  18.948  1.00  0.00     0.195 A 
HETATM   12  N4  UNL     1      14.344  13.256  19.571  1.00  0.00    -0.063 NA
HETATM   13  N5  UNL     1      14.992  15.375  18.751  1.00  0.00    -0.329 N 
ATOM     14  H5  UNL     1      15.939  15.141  19.048  1.00  0.00     0.168 HD
HETATM   15  C13 UNL     1      14.758  16.564  18.171  1.00  0.00     0.057 A 
ENDROOT
BRANCH   1  16
HETATM   16  C5  UNL     1      17.129  17.030  18.424  1.00  0.00     0.114 C 
BRANCH  16  17
HETATM   17  S1  UNL     1      18.321  18.335  18.703  1.00  0.00    -0.163 SA
BRANCH  17  18
HETATM   18  C4  UNL     1      19.255  18.100  20.237  1.00  0.00     0.104 C 
BRANCH  18  19
HETATM   19  C3  UNL     1      18.521  17.029  21.019  1.00  0.00     0.281 C 
BRANCH  19  20
HETATM   20  N1  UNL     1      17.667  17.546  22.039  1.00  0.00     0.080 N 
HETATM   21  C1  UNL     1      16.320  17.025  21.968  1.00  0.00     0.309 C 
HETATM   22  C2  UNL     1      18.153  17.331  23.380  1.00  0.00     0.309 C 
ENDBRANCH  19  20
ENDBRANCH  18  19
ENDBRANCH  17  18
ENDBRANCH  16  17
ENDBRANCH   1  16
TORSDOF 5
ENDMDL
