MODEL 13
REMARK VINA RESULT: -6.079542375      3.612      6.821
REMARK  5 active torsions:
REMARK  status: ('A' for Active; 'I' for Inactive)
REMARK    1  A    between atoms: N1_2  and  C3_4 
REMARK    2  A    between atoms: C3_4  and  C4_5 
REMARK    3  A    between atoms: C4_5  and  S1_6 
REMARK    4  A    between atoms: S1_6  and  C5_7 
REMARK    5  A    between atoms: C5_7  and  C6_8 
ROOT
HETATM    1  C6  UNL     1      13.524  16.518  15.452  1.00  0.00    -0.019 A 
HETATM    2  C7  UNL     1      12.672  17.235  14.654  1.00  0.00     0.036 A 
HETATM    3  C8  UNL     1      11.309  17.294  14.932  1.00  0.00     0.048 A 
HETATM    4  N2  UNL     1      10.455  18.048  14.083  1.00  0.00    -0.102 NA
HETATM    5  C9  UNL     1      10.762  16.641  16.012  1.00  0.00     0.046 A 
HETATM    6  C10 UNL     1      11.628  15.923  16.807  1.00  0.00     0.061 A 
HETATM    7  C11 UNL     1      11.135  15.237  17.917  1.00  0.00     0.260 A 
HETATM    8  O1  UNL     1       9.917  15.274  18.188  1.00  0.00    -0.267 OA
HETATM    9  N3  UNL     1      11.965  14.533  18.702  1.00  0.00    -0.297 N 
ATOM     10  H3  UNL     1      11.595  14.036  19.512  1.00  0.00     0.171 HD
HETATM   11  C12 UNL     1      13.274  14.478  18.431  1.00  0.00     0.195 A 
HETATM   12  N4  UNL     1      14.193  13.744  19.235  1.00  0.00    -0.063 NA
HETATM   13  N5  UNL     1      13.775  15.129  17.367  1.00  0.00    -0.329 N 
ATOM     14  H5  UNL     1      14.775  15.078  17.174  1.00  0.00     0.168 HD
HETATM   15  C13 UNL     1      12.982  15.846  16.554  1.00  0.00     0.057 A 
ENDROOT
BRANCH   1  16
HETATM   16  C5  UNL     1      14.969  16.367  15.256  1.00  0.00     0.114 C 
BRANCH  16  17
HETATM   17  S1  UNL     1      15.889  17.895  15.122  1.00  0.00    -0.163 SA
BRANCH  17  18
HETATM   18  C4  UNL     1      16.943  18.194  16.564  1.00  0.00     0.104 C 
BRANCH  18  19
HETATM   19  C3  UNL     1      16.094  17.882  17.780  1.00  0.00     0.281 C 
BRANCH  19  20
HETATM   20  N1  UNL     1      16.708  16.972  18.691  1.00  0.00     0.080 N 
HETATM   21  C1  UNL     1      18.076  17.320  19.006  1.00  0.00     0.309 C 
HETATM   22  C2  UNL     1      15.996  16.812  19.936  1.00  0.00     0.309 C 
ENDBRANCH  19  20
ENDBRANCH  18  19
ENDBRANCH  17  18
ENDBRANCH  16  17
ENDBRANCH   1  16
TORSDOF 5
ENDMDL
