MODEL 2
REMARK VINA RESULT: -6.905352872      0.960      1.365
REMARK  5 active torsions:
REMARK  status: ('A' for Active; 'I' for Inactive)
REMARK    1  A    between atoms: N1_2  and  C3_4 
REMARK    2  A    between atoms: C3_4  and  C4_5 
REMARK    3  A    between atoms: C4_5  and  S1_6 
REMARK    4  A    between atoms: S1_6  and  C5_7 
REMARK    5  A    between atoms: C5_7  and  C6_8 
ROOT
HETATM    1  C6  UNL     1      15.888  16.992  19.603  1.00  0.00    -0.019 A 
HETATM    2  C7  UNL     1      16.851  17.205  18.652  1.00  0.00     0.036 A 
HETATM    3  C8  UNL     1      18.162  17.500  19.014  1.00  0.00     0.048 A 
HETATM    4  N2  UNL     1      19.134  17.714  18.000  1.00  0.00    -0.102 NA
HETATM    5  C9  UNL     1      18.546  17.590  20.332  1.00  0.00     0.046 A 
HETATM    6  C10 UNL     1      17.570  17.375  21.279  1.00  0.00     0.061 A 
HETATM    7  C11 UNL     1      17.896  17.453  22.633  1.00  0.00     0.260 A 
HETATM    8  O1  UNL     1      19.065  17.716  22.983  1.00  0.00    -0.267 OA
HETATM    9  N3  UNL     1      16.957  17.246  23.569  1.00  0.00    -0.297 N 
ATOM     10  H3  UNL     1      17.206  17.304  24.556  1.00  0.00     0.171 HD
HETATM   11  C12 UNL     1      15.698  16.963  23.217  1.00  0.00     0.195 A 
HETATM   12  N4  UNL     1      14.668  16.735  24.175  1.00  0.00    -0.063 NA
HETATM   13  N5  UNL     1      15.356  16.882  21.920  1.00  0.00    -0.329 N 
ATOM     14  H5  UNL     1      14.392  16.666  21.667  1.00  0.00     0.168 HD
HETATM   15  C13 UNL     1      16.263  17.082  20.949  1.00  0.00     0.057 A 
ENDROOT
BRANCH   1  16
HETATM   16  C5  UNL     1      14.476  16.691  19.350  1.00  0.00     0.114 C 
BRANCH  16  17
HETATM   17  S1  UNL     1      13.557  17.972  18.505  1.00  0.00    -0.163 SA
BRANCH  17  18
HETATM   18  C4  UNL     1      12.705  17.352  17.031  1.00  0.00     0.104 C 
BRANCH  18  19
HETATM   19  C3  UNL     1      12.907  15.849  17.028  1.00  0.00     0.281 C 
BRANCH  19  20
HETATM   20  N1  UNL     1      11.693  15.107  17.132  1.00  0.00     0.080 N 
HETATM   21  C1  UNL     1      11.150  15.094  18.472  1.00  0.00     0.309 C 
HETATM   22  C2  UNL     1      10.651  15.550  16.238  1.00  0.00     0.309 C 
ENDBRANCH  19  20
ENDBRANCH  18  19
ENDBRANCH  17  18
ENDBRANCH  16  17
ENDBRANCH   1  16
TORSDOF 5
ENDMDL
