MODEL 7
REMARK VINA RESULT: -6.613370896      1.069      1.460
REMARK  5 active torsions:
REMARK  status: ('A' for Active; 'I' for Inactive)
REMARK    1  A    between atoms: N1_2  and  C3_4 
REMARK    2  A    between atoms: C3_4  and  C4_5 
REMARK    3  A    between atoms: C4_5  and  S1_6 
REMARK    4  A    between atoms: S1_6  and  C5_7 
REMARK    5  A    between atoms: C5_7  and  C6_8 
ROOT
HETATM    1  C6  UNL     1      15.864  16.881  19.590  1.00  0.00    -0.019 A 
HETATM    2  C7  UNL     1      16.801  17.103  18.616  1.00  0.00     0.036 A 
HETATM    3  C8  UNL     1      18.108  17.452  18.944  1.00  0.00     0.048 A 
HETATM    4  N2  UNL     1      19.053  17.673  17.906  1.00  0.00    -0.102 NA
HETATM    5  C9  UNL     1      18.513  17.590  20.251  1.00  0.00     0.046 A 
HETATM    6  C10 UNL     1      17.563  17.365  21.222  1.00  0.00     0.061 A 
HETATM    7  C11 UNL     1      17.911  17.490  22.567  1.00  0.00     0.260 A 
HETATM    8  O1  UNL     1      19.077  17.802  22.888  1.00  0.00    -0.267 OA
HETATM    9  N3  UNL     1      16.998  17.275  23.526  1.00  0.00    -0.297 N 
ATOM     10  H3  UNL     1      17.263  17.367  24.507  1.00  0.00     0.171 HD
HETATM   11  C12 UNL     1      15.742  16.940  23.207  1.00  0.00     0.195 A 
HETATM   12  N4  UNL     1      14.739  16.702  24.190  1.00  0.00    -0.063 NA
HETATM   13  N5  UNL     1      15.380  16.814  21.919  1.00  0.00    -0.329 N 
ATOM     14  H5  UNL     1      14.420  16.557  21.691  1.00  0.00     0.168 HD
HETATM   15  C13 UNL     1      16.261  17.019  20.926  1.00  0.00     0.057 A 
ENDROOT
BRANCH   1  16
HETATM   16  C5  UNL     1      14.459  16.525  19.373  1.00  0.00     0.114 C 
BRANCH  16  17
HETATM   17  S1  UNL     1      14.183  15.049  18.402  1.00  0.00    -0.163 SA
BRANCH  17  18
HETATM   18  C4  UNL     1      13.240  15.382  16.891  1.00  0.00     0.104 C 
BRANCH  18  19
HETATM   19  C3  UNL     1      14.128  16.252  16.023  1.00  0.00     0.281 C 
BRANCH  19  20
HETATM   20  N1  UNL     1      13.607  17.561  15.797  1.00  0.00     0.080 N 
HETATM   21  C1  UNL     1      12.356  17.799  16.482  1.00  0.00     0.309 C 
HETATM   22  C2  UNL     1      14.514  18.626  16.151  1.00  0.00     0.309 C 
ENDBRANCH  19  20
ENDBRANCH  18  19
ENDBRANCH  17  18
ENDBRANCH  16  17
ENDBRANCH   1  16
TORSDOF 5
ENDMDL
