MODEL 1
REMARK VINA RESULT: -7.088418011      0.000      0.000
REMARK  5 active torsions:
REMARK  status: ('A' for Active; 'I' for Inactive)
REMARK    1  A    between atoms: N1_2  and  C3_4 
REMARK    2  A    between atoms: C3_4  and  C4_5 
REMARK    3  A    between atoms: C4_5  and  S1_6 
REMARK    4  A    between atoms: S1_6  and  C5_7 
REMARK    5  A    between atoms: C5_7  and  C6_8 
ROOT
HETATM    1  C6  UNL     1      15.971  16.807  19.611  1.00  0.00    -0.019 A 
HETATM    2  C7  UNL     1      16.921  17.044  18.654  1.00  0.00     0.036 A 
HETATM    3  C8  UNL     1      18.210  17.439  19.005  1.00  0.00     0.048 A 
HETATM    4  N2  UNL     1      19.169  17.675  17.985  1.00  0.00    -0.102 NA
HETATM    5  C9  UNL     1      18.581  17.608  20.318  1.00  0.00     0.046 A 
HETATM    6  C10 UNL     1      17.617  17.368  21.272  1.00  0.00     0.061 A 
HETATM    7  C11 UNL     1      17.932  17.523  22.622  1.00  0.00     0.260 A 
HETATM    8  O1  UNL     1      19.080  17.876  22.963  1.00  0.00    -0.267 OA
HETATM    9  N3  UNL     1      17.006  17.292  23.565  1.00  0.00    -0.297 N 
ATOM     10  H3  UNL     1      17.246  17.407  24.549  1.00  0.00     0.171 HD
HETATM   11  C12 UNL     1      15.769  16.913  23.223  1.00  0.00     0.195 A 
HETATM   12  N4  UNL     1      14.752  16.658  24.189  1.00  0.00    -0.063 NA
HETATM   13  N5  UNL     1      15.438  16.757  21.930  1.00  0.00    -0.329 N 
ATOM     14  H5  UNL     1      14.492  16.468  21.686  1.00  0.00     0.168 HD
HETATM   15  C13 UNL     1      16.334  16.976  20.953  1.00  0.00     0.057 A 
ENDROOT
BRANCH   1  16
HETATM   16  C5  UNL     1      14.582  16.404  19.370  1.00  0.00     0.114 C 
BRANCH  16  17
HETATM   17  S1  UNL     1      14.364  14.737  18.759  1.00  0.00    -0.163 SA
BRANCH  17  18
HETATM   18  C4  UNL     1      12.634  14.367  18.365  1.00  0.00     0.104 C 
BRANCH  18  19
HETATM   19  C3  UNL     1      11.934  15.707  18.244  1.00  0.00     0.281 C 
BRANCH  19  20
HETATM   20  N1  UNL     1      11.590  16.056  16.904  1.00  0.00     0.080 N 
HETATM   21  C1  UNL     1      12.303  17.217  16.419  1.00  0.00     0.309 C 
HETATM   22  C2  UNL     1      11.781  14.991  15.949  1.00  0.00     0.309 C 
ENDBRANCH  19  20
ENDBRANCH  18  19
ENDBRANCH  17  18
ENDBRANCH  16  17
ENDBRANCH   1  16
TORSDOF 5
ENDMDL
