MODEL 9
REMARK VINA RESULT: -6.516114435      1.938      2.625
REMARK  5 active torsions:
REMARK  status: ('A' for Active; 'I' for Inactive)
REMARK    1  A    between atoms: N1_2  and  C3_4 
REMARK    2  A    between atoms: C3_4  and  C4_5 
REMARK    3  A    between atoms: C4_5  and  S1_6 
REMARK    4  A    between atoms: S1_6  and  C5_7 
REMARK    5  A    between atoms: C5_7  and  C6_8 
ROOT
HETATM    1  C6  UNL     1      15.873  16.894  19.561  1.00  0.00    -0.019 A 
HETATM    2  C7  UNL     1      16.816  17.109  18.591  1.00  0.00     0.036 A 
HETATM    3  C8  UNL     1      18.124  17.448  18.925  1.00  0.00     0.048 A 
HETATM    4  N2  UNL     1      19.075  17.663  17.893  1.00  0.00    -0.102 NA
HETATM    5  C9  UNL     1      18.524  17.582  20.235  1.00  0.00     0.046 A 
HETATM    6  C10 UNL     1      17.568  17.364  21.202  1.00  0.00     0.061 A 
HETATM    7  C11 UNL     1      17.911  17.486  22.548  1.00  0.00     0.260 A 
HETATM    8  O1  UNL     1      19.077  17.789  22.874  1.00  0.00    -0.267 OA
HETATM    9  N3  UNL     1      16.991  17.277  23.503  1.00  0.00    -0.297 N 
ATOM     10  H3  UNL     1      17.253  17.366  24.484  1.00  0.00     0.171 HD
HETATM   11  C12 UNL     1      15.735  16.951  23.177  1.00  0.00     0.195 A 
HETATM   12  N4  UNL     1      14.726  16.720  24.156  1.00  0.00    -0.063 NA
HETATM   13  N5  UNL     1      15.378  16.828  21.887  1.00  0.00    -0.329 N 
ATOM     14  H5  UNL     1      14.417  16.579  21.655  1.00  0.00     0.168 HD
HETATM   15  C13 UNL     1      16.265  17.027  20.898  1.00  0.00     0.057 A 
ENDROOT
BRANCH   1  16
HETATM   16  C5  UNL     1      14.466  16.548  19.337  1.00  0.00     0.114 C 
BRANCH  16  17
HETATM   17  S1  UNL     1      13.910  16.655  17.641  1.00  0.00    -0.163 SA
BRANCH  17  18
HETATM   18  C4  UNL     1      13.036  18.204  17.298  1.00  0.00     0.104 C 
BRANCH  18  19
HETATM   19  C3  UNL     1      14.084  19.180  16.801  1.00  0.00     0.281 C 
BRANCH  19  20
HETATM   20  N1  UNL     1      14.671  19.968  17.836  1.00  0.00     0.080 N 
HETATM   21  C1  UNL     1      15.978  20.480  17.488  1.00  0.00     0.309 C 
HETATM   22  C2  UNL     1      13.860  21.082  18.262  1.00  0.00     0.309 C 
ENDBRANCH  19  20
ENDBRANCH  18  19
ENDBRANCH  17  18
ENDBRANCH  16  17
ENDBRANCH   1  16
TORSDOF 5
ENDMDL
