MODEL 7
REMARK VINA RESULT: -7.014612902      2.371      6.070
REMARK  5 active torsions:
REMARK  status: ('A' for Active; 'I' for Inactive)
REMARK    1  A    between atoms: O1_2  and  C2_3 
REMARK    2  A    between atoms: C2_3  and  C3_5 
REMARK    3  A    between atoms: C4_6  and  O3_7 
REMARK    4  A    between atoms: O3_7  and  C5_8 
REMARK    5  A    between atoms: C5_8  and  C6_10 
ROOT
HETATM    1  C3  UNL     1      27.231  -3.922  24.273  1.00  0.00     0.148 C 
HETATM    2  C4  UNL     1      25.792  -3.508  24.089  1.00  0.00     0.150 C 
HETATM    3  C12 UNL     1      24.899  -4.559  23.525  1.00  0.00     0.069 C 
HETATM    4  C13 UNL     1      25.142  -5.847  24.283  1.00  0.00     0.225 C 
HETATM    5  C14 UNL     1      25.113  -5.693  25.765  1.00  0.00     0.038 C 
HETATM    6  C15 UNL     1      26.517  -5.350  26.197  1.00  0.00     0.039 C 
HETATM    7  C16 UNL     1      27.250  -5.305  24.869  1.00  0.00     0.239 C 
HETATM    8  N1  UNL     1      26.532  -6.198  24.005  1.00  0.00     0.094 N 
HETATM    9  C17 UNL     1      26.788  -7.594  24.305  1.00  0.00     0.310 C 
ENDROOT
BRANCH   2  10
HETATM   10  O3  UNL     1      25.648  -2.345  23.336  1.00  0.00    -0.311 OA
BRANCH  10  11
HETATM   11  C5  UNL     1      25.117  -1.216  23.920  1.00  0.00     0.293 C 
HETATM   12  O4  UNL     1      25.872  -0.231  24.127  1.00  0.00    -0.259 OA
BRANCH  11  13
HETATM   13  C6  UNL     1      23.699  -1.142  24.303  1.00  0.00     0.039 A 
HETATM   14  C7  UNL     1      23.199  -1.808  25.399  1.00  0.00     0.017 A 
HETATM   15  C8  UNL     1      21.851  -1.710  25.722  1.00  0.00     0.001 A 
HETATM   16  C9  UNL     1      20.963  -0.951  24.970  1.00  0.00     0.000 A 
HETATM   17  C10 UNL     1      21.477  -0.291  23.877  1.00  0.00     0.001 A 
HETATM   18  C11 UNL     1      22.814  -0.388  23.556  1.00  0.00     0.017 A 
ENDBRANCH  11  13
ENDBRANCH  10  11
ENDBRANCH   2  10
BRANCH   1  19
HETATM   19  C2  UNL     1      28.046  -3.878  23.062  1.00  0.00     0.267 C 
HETATM   20  O2  UNL     1      28.930  -3.001  22.930  1.00  0.00    -0.265 OA
BRANCH  19  21
HETATM   21  O1  UNL     1      27.897  -4.777  22.011  1.00  0.00    -0.326 OA
HETATM   22  C1  UNL     1      29.015  -5.572  21.590  1.00  0.00     0.213 C 
ENDBRANCH  19  21
ENDBRANCH   1  19
TORSDOF 5
ENDMDL
