MODEL 1
REMARK VINA RESULT: -7.503741672      0.000      0.000
REMARK  5 active torsions:
REMARK  status: ('A' for Active; 'I' for Inactive)
REMARK    1  A    between atoms: O1_2  and  C2_3 
REMARK    2  A    between atoms: C2_3  and  C3_5 
REMARK    3  A    between atoms: C4_6  and  O3_7 
REMARK    4  A    between atoms: O3_7  and  C5_8 
REMARK    5  A    between atoms: C5_8  and  C6_10 
ROOT
HETATM    1  C3  UNL     1      23.723  -2.514  25.376  1.00  0.00     0.148 C 
HETATM    2  C4  UNL     1      23.845  -2.651  23.879  1.00  0.00     0.150 C 
HETATM    3  C12 UNL     1      22.607  -3.101  23.183  1.00  0.00     0.069 C 
HETATM    4  C13 UNL     1      21.445  -2.276  23.696  1.00  0.00     0.225 C 
HETATM    5  C14 UNL     1      21.697  -0.807  23.695  1.00  0.00     0.038 C 
HETATM    6  C15 UNL     1      22.329  -0.469  25.022  1.00  0.00     0.039 C 
HETATM    7  C16 UNL     1      22.415  -1.834  25.683  1.00  0.00     0.239 C 
HETATM    8  N1  UNL     1      21.343  -2.601  25.116  1.00  0.00     0.094 N 
HETATM    9  C17 UNL     1      20.046  -2.227  25.646  1.00  0.00     0.310 C 
ENDROOT
BRANCH   2  10
HETATM   10  O3  UNL     1      24.902  -3.468  23.487  1.00  0.00    -0.311 OA
BRANCH  10  11
HETATM   11  C5  UNL     1      26.159  -2.926  23.324  1.00  0.00     0.293 C 
HETATM   12  O4  UNL     1      26.325  -1.704  23.566  1.00  0.00    -0.259 OA
BRANCH  11  13
HETATM   13  C6  UNL     1      27.297  -3.744  22.875  1.00  0.00     0.039 A 
HETATM   14  C7  UNL     1      28.601  -3.321  23.003  1.00  0.00     0.017 A 
HETATM   15  C8  UNL     1      29.643  -4.127  22.564  1.00  0.00     0.001 A 
HETATM   16  C9  UNL     1      29.424  -5.371  21.987  1.00  0.00     0.000 A 
HETATM   17  C10 UNL     1      28.116  -5.781  21.866  1.00  0.00     0.001 A 
HETATM   18  C11 UNL     1      27.080  -4.982  22.301  1.00  0.00     0.017 A 
ENDBRANCH  11  13
ENDBRANCH  10  11
ENDBRANCH   2  10
BRANCH   1  19
HETATM   19  C2  UNL     1      23.833  -3.765  26.122  1.00  0.00     0.267 C 
HETATM   20  O2  UNL     1      22.933  -4.631  26.035  1.00  0.00    -0.265 OA
BRANCH  19  21
HETATM   21  O1  UNL     1      24.910  -4.066  26.950  1.00  0.00    -0.326 OA
HETATM   22  C1  UNL     1      25.904  -3.066  27.218  1.00  0.00     0.213 C 
ENDBRANCH  19  21
ENDBRANCH   1  19
TORSDOF 5
ENDMDL
