MODEL 3
REMARK VINA RESULT: -7.449223568      0.533      1.517
REMARK  5 active torsions:
REMARK  status: ('A' for Active; 'I' for Inactive)
REMARK    1  A    between atoms: O1_2  and  C2_3 
REMARK    2  A    between atoms: C2_3  and  C3_5 
REMARK    3  A    between atoms: C4_6  and  O3_7 
REMARK    4  A    between atoms: O3_7  and  C5_8 
REMARK    5  A    between atoms: C5_8  and  C6_10 
ROOT
HETATM    1  C3  UNL     1      23.809  -2.544  25.404  1.00  0.00     0.148 C 
HETATM    2  C4  UNL     1      23.855  -2.691  23.903  1.00  0.00     0.150 C 
HETATM    3  C12 UNL     1      22.584  -3.150  23.274  1.00  0.00     0.069 C 
HETATM    4  C13 UNL     1      21.448  -2.323  23.840  1.00  0.00     0.225 C 
HETATM    5  C14 UNL     1      21.696  -0.853  23.815  1.00  0.00     0.038 C 
HETATM    6  C15 UNL     1      22.394  -0.505  25.106  1.00  0.00     0.039 C 
HETATM    7  C16 UNL     1      22.517  -1.864  25.771  1.00  0.00     0.239 C 
HETATM    8  N1  UNL     1      21.419  -2.638  25.266  1.00  0.00     0.094 N 
HETATM    9  C17 UNL     1      20.150  -2.262  25.858  1.00  0.00     0.310 C 
ENDROOT
BRANCH   2  10
HETATM   10  O3  UNL     1      24.893  -3.510  23.464  1.00  0.00    -0.311 OA
BRANCH  10  11
HETATM   11  C5  UNL     1      26.158  -2.985  23.315  1.00  0.00     0.293 C 
HETATM   12  O4  UNL     1      26.345  -1.772  23.587  1.00  0.00    -0.259 OA
BRANCH  11  13
HETATM   13  C6  UNL     1      27.283  -3.810  22.847  1.00  0.00     0.039 A 
HETATM   14  C7  UNL     1      27.095  -5.034  22.245  1.00  0.00     0.017 A 
HETATM   15  C8  UNL     1      28.189  -5.778  21.819  1.00  0.00     0.001 A 
HETATM   16  C9  UNL     1      29.494  -5.332  21.977  1.00  0.00     0.000 A 
HETATM   17  C10 UNL     1      29.667  -4.107  22.580  1.00  0.00     0.001 A 
HETATM   18  C11 UNL     1      28.583  -3.367  23.003  1.00  0.00     0.017 A 
ENDBRANCH  11  13
ENDBRANCH  10  11
ENDBRANCH   2  10
BRANCH   1  19
HETATM   19  C2  UNL     1      23.960  -3.789  26.152  1.00  0.00     0.267 C 
HETATM   20  O2  UNL     1      24.943  -3.953  26.910  1.00  0.00    -0.265 OA
BRANCH  19  21
HETATM   21  O1  UNL     1      23.051  -4.839  26.073  1.00  0.00    -0.326 OA
HETATM   22  C1  UNL     1      23.454  -6.088  25.492  1.00  0.00     0.213 C 
ENDBRANCH  19  21
ENDBRANCH   1  19
TORSDOF 5
ENDMDL
