MODEL 2
REMARK VINA RESULT: -7.501195534      0.515      1.116
REMARK  5 active torsions:
REMARK  status: ('A' for Active; 'I' for Inactive)
REMARK    1  A    between atoms: O1_2  and  C2_3 
REMARK    2  A    between atoms: C2_3  and  C3_5 
REMARK    3  A    between atoms: C4_6  and  O3_7 
REMARK    4  A    between atoms: O3_7  and  C5_8 
REMARK    5  A    between atoms: C5_8  and  C6_10 
ROOT
HETATM    1  C3  UNL     1      23.739  -2.388  25.342  1.00  0.00     0.148 C 
HETATM    2  C4  UNL     1      23.833  -2.593  23.850  1.00  0.00     0.150 C 
HETATM    3  C12 UNL     1      22.586  -3.084  23.199  1.00  0.00     0.069 C 
HETATM    4  C13 UNL     1      21.428  -2.245  23.696  1.00  0.00     0.225 C 
HETATM    5  C14 UNL     1      21.668  -0.776  23.622  1.00  0.00     0.038 C 
HETATM    6  C15 UNL     1      22.322  -0.372  24.920  1.00  0.00     0.039 C 
HETATM    7  C16 UNL     1      22.432  -1.704  25.641  1.00  0.00     0.239 C 
HETATM    8  N1  UNL     1      21.355  -2.504  25.132  1.00  0.00     0.094 N 
HETATM    9  C17 UNL     1      20.065  -2.115  25.668  1.00  0.00     0.310 C 
ENDROOT
BRANCH   2  10
HETATM   10  O3  UNL     1      24.890  -3.421  23.477  1.00  0.00    -0.311 OA
BRANCH  10  11
HETATM   11  C5  UNL     1      26.152  -2.888  23.327  1.00  0.00     0.293 C 
HETATM   12  O4  UNL     1      26.325  -1.667  23.569  1.00  0.00    -0.259 OA
BRANCH  11  13
HETATM   13  C6  UNL     1      27.289  -3.715  22.892  1.00  0.00     0.039 A 
HETATM   14  C7  UNL     1      28.594  -3.298  23.027  1.00  0.00     0.017 A 
HETATM   15  C8  UNL     1      29.636  -4.114  22.601  1.00  0.00     0.001 A 
HETATM   16  C9  UNL     1      29.414  -5.361  22.032  1.00  0.00     0.000 A 
HETATM   17  C10 UNL     1      28.104  -5.765  21.904  1.00  0.00     0.001 A 
HETATM   18  C11 UNL     1      27.070  -4.956  22.326  1.00  0.00     0.017 A 
ENDBRANCH  11  13
ENDBRANCH  10  11
ENDBRANCH   2  10
BRANCH   1  19
HETATM   19  C2  UNL     1      23.873  -3.602  26.142  1.00  0.00     0.267 C 
HETATM   20  O2  UNL     1      24.826  -3.726  26.944  1.00  0.00    -0.265 OA
BRANCH  19  21
HETATM   21  O1  UNL     1      22.980  -4.666  26.066  1.00  0.00    -0.326 OA
HETATM   22  C1  UNL     1      23.420  -5.931  25.550  1.00  0.00     0.213 C 
ENDBRANCH  19  21
ENDBRANCH   1  19
TORSDOF 5
ENDMDL
