MODEL 11
REMARK VINA RESULT: -6.951507076      2.833      5.552
REMARK  5 active torsions:
REMARK  status: ('A' for Active; 'I' for Inactive)
REMARK    1  A    between atoms: O1_2  and  C2_3 
REMARK    2  A    between atoms: C2_3  and  C3_5 
REMARK    3  A    between atoms: C4_6  and  O3_7 
REMARK    4  A    between atoms: O3_7  and  C5_8 
REMARK    5  A    between atoms: C5_8  and  C6_10 
ROOT
HETATM    1  C3  UNL     1      25.407  -3.889  27.337  1.00  0.00     0.148 C 
HETATM    2  C4  UNL     1      25.710  -3.613  25.885  1.00  0.00     0.150 C 
HETATM    3  C12 UNL     1      26.887  -4.343  25.335  1.00  0.00     0.069 C 
HETATM    4  C13 UNL     1      26.774  -5.798  25.739  1.00  0.00     0.225 C 
HETATM    5  C14 UNL     1      25.441  -6.404  25.461  1.00  0.00     0.038 C 
HETATM    6  C15 UNL     1      24.584  -6.156  26.677  1.00  0.00     0.039 C 
HETATM    7  C16 UNL     1      25.530  -5.372  27.570  1.00  0.00     0.239 C 
HETATM    8  N1  UNL     1      26.848  -5.797  27.198  1.00  0.00     0.094 N 
HETATM    9  C17 UNL     1      27.175  -7.116  27.705  1.00  0.00     0.310 C 
ENDROOT
BRANCH   2  10
HETATM   10  O3  UNL     1      25.853  -2.256  25.604  1.00  0.00    -0.311 OA
BRANCH  10  11
HETATM   11  C5  UNL     1      25.511  -1.779  24.357  1.00  0.00     0.293 C 
HETATM   12  O4  UNL     1      26.427  -1.396  23.585  1.00  0.00    -0.259 OA
BRANCH  11  13
HETATM   13  C6  UNL     1      24.109  -1.710  23.918  1.00  0.00     0.039 A 
HETATM   14  C7  UNL     1      23.426  -2.816  23.465  1.00  0.00     0.017 A 
HETATM   15  C8  UNL     1      22.101  -2.702  23.060  1.00  0.00     0.001 A 
HETATM   16  C9  UNL     1      21.419  -1.493  23.092  1.00  0.00     0.000 A 
HETATM   17  C10 UNL     1      22.114  -0.396  23.548  1.00  0.00     0.001 A 
HETATM   18  C11 UNL     1      23.428  -0.508  23.950  1.00  0.00     0.017 A 
ENDBRANCH  11  13
ENDBRANCH  10  11
ENDBRANCH   2  10
BRANCH   1  19
HETATM   19  C2  UNL     1      26.232  -3.154  28.291  1.00  0.00     0.267 C 
HETATM   20  O2  UNL     1      26.801  -2.093  27.946  1.00  0.00    -0.265 OA
BRANCH  19  21
HETATM   21  O1  UNL     1      26.432  -3.570  29.603  1.00  0.00    -0.326 OA
HETATM   22  C1  UNL     1      25.869  -2.814  30.685  1.00  0.00     0.213 C 
ENDBRANCH  19  21
ENDBRANCH   1  19
TORSDOF 5
ENDMDL
