MODEL 13
REMARK VINA RESULT: -6.926499851      2.151      6.065
REMARK  5 active torsions:
REMARK  status: ('A' for Active; 'I' for Inactive)
REMARK    1  A    between atoms: O1_2  and  C2_3 
REMARK    2  A    between atoms: C2_3  and  C3_5 
REMARK    3  A    between atoms: C4_6  and  O3_7 
REMARK    4  A    between atoms: O3_7  and  C5_8 
REMARK    5  A    between atoms: C5_8  and  C6_10 
ROOT
HETATM    1  C3  UNL     1      25.425  -3.951  23.224  1.00  0.00     0.148 C 
HETATM    2  C4  UNL     1      25.792  -3.141  24.442  1.00  0.00     0.150 C 
HETATM    3  C12 UNL     1      26.424  -3.914  25.548  1.00  0.00     0.069 C 
HETATM    4  C13 UNL     1      27.514  -4.784  24.958  1.00  0.00     0.225 C 
HETATM    5  C14 UNL     1      28.449  -4.056  24.053  1.00  0.00     0.038 C 
HETATM    6  C15 UNL     1      27.856  -4.119  22.668  1.00  0.00     0.039 C 
HETATM    7  C16 UNL     1      26.567  -4.882  22.914  1.00  0.00     0.239 C 
HETATM    8  N1  UNL     1      26.824  -5.707  24.060  1.00  0.00     0.094 N 
HETATM    9  C17 UNL     1      27.655  -6.853  23.750  1.00  0.00     0.310 C 
ENDROOT
BRANCH   2  10
HETATM   10  O3  UNL     1      24.724  -2.412  24.958  1.00  0.00    -0.311 OA
BRANCH  10  11
HETATM   11  C5  UNL     1      24.286  -1.284  24.298  1.00  0.00     0.293 C 
HETATM   12  O4  UNL     1      25.135  -0.434  23.926  1.00  0.00    -0.259 OA
BRANCH  11  13
HETATM   13  C6  UNL     1      22.859  -1.057  24.025  1.00  0.00     0.039 A 
HETATM   14  C7  UNL     1      22.087  -0.219  24.797  1.00  0.00     0.017 A 
HETATM   15  C8  UNL     1      20.742  -0.037  24.501  1.00  0.00     0.001 A 
HETATM   16  C9  UNL     1      20.125  -0.678  23.435  1.00  0.00     0.000 A 
HETATM   17  C10 UNL     1      20.909  -1.513  22.672  1.00  0.00     0.001 A 
HETATM   18  C11 UNL     1      22.244  -1.695  22.964  1.00  0.00     0.017 A 
ENDBRANCH  11  13
ENDBRANCH  10  11
ENDBRANCH   2  10
BRANCH   1  19
HETATM   19  C2  UNL     1      24.175  -4.698  23.333  1.00  0.00     0.267 C 
HETATM   20  O2  UNL     1      23.490  -4.934  22.311  1.00  0.00    -0.265 OA
BRANCH  19  21
HETATM   21  O1  UNL     1      23.679  -5.180  24.540  1.00  0.00    -0.326 OA
HETATM   22  C1  UNL     1      22.308  -4.944  24.893  1.00  0.00     0.213 C 
ENDBRANCH  19  21
ENDBRANCH   1  19
TORSDOF 5
ENDMDL
