MODEL 7
REMARK VINA RESULT: -7.225422857      4.073      6.982
REMARK  6 active torsions:
REMARK  status: ('A' for Active; 'I' for Inactive)
REMARK    1  A    between atoms: C2_2  and  C3_3 
REMARK    2  A    between atoms: C3_3  and  C4_4 
REMARK    3  A    between atoms: C4_4  and  C5_5 
REMARK    4  A    between atoms: N1_8  and  C7_9 
REMARK    5  A    between atoms: N2_15  and  C13_16 
REMARK    6  A    between atoms: C16_19  and  O2_20 
ROOT
HETATM    1  C5  UNL     1       5.626  18.745  -5.118  1.00  0.00     0.174 C 
HETATM    2  C6  UNL     1       5.383  19.378  -6.419  1.00  0.00     0.257 C 
HETATM    3  O1  UNL     1       4.915  18.887  -7.468  1.00  0.00    -0.270 OA
HETATM    4  N1  UNL     1       5.786  20.766  -6.334  1.00  0.00    -0.214 N 
HETATM    5  N2  UNL     1       6.084  21.058  -5.007  1.00  0.00    -0.214 N 
HETATM    6  C19 UNL     1       5.882  19.890  -4.223  1.00  0.00     0.257 C 
HETATM    7  O3  UNL     1       5.911  19.828  -2.974  1.00  0.00    -0.270 OA
ENDROOT
BRANCH   5   8
HETATM    8  C13 UNL     1       6.525  22.307  -4.466  1.00  0.00     0.060 A 
HETATM    9  C14 UNL     1       5.751  23.099  -3.647  1.00  0.00     0.034 A 
HETATM   10  C15 UNL     1       6.213  24.311  -3.140  1.00  0.00     0.039 A 
HETATM   11  C16 UNL     1       7.479  24.754  -3.450  1.00  0.00     0.065 A 
HETATM   12  C17 UNL     1       8.260  23.975  -4.264  1.00  0.00     0.039 A 
HETATM   13  C18 UNL     1       7.794  22.782  -4.759  1.00  0.00     0.034 A 
BRANCH  11  14
HETATM   14  O2  UNL     1       7.920  25.979  -2.925  1.00  0.00    -0.361 OA
ATOM     15  H2  UNL     1       8.109  26.695  -3.519  1.00  0.00     0.217 HD
ENDBRANCH  11  14
ENDBRANCH   5   8
BRANCH   4  16
HETATM   16  C7  UNL     1       5.865  21.679  -7.433  1.00  0.00     0.060 A 
HETATM   17  C8  UNL     1       7.044  21.920  -8.106  1.00  0.00     0.031 A 
HETATM   18  C9  UNL     1       7.095  22.802  -9.169  1.00  0.00     0.002 A 
HETATM   19  C10 UNL     1       5.953  23.464  -9.573  1.00  0.00     0.000 A 
HETATM   20  C11 UNL     1       4.764  23.243  -8.920  1.00  0.00     0.002 A 
HETATM   21  C12 UNL     1       4.738  22.357  -7.862  1.00  0.00     0.031 A 
ENDBRANCH   4  16
BRANCH   1  22
HETATM   22  C4  UNL     1       4.547  17.844  -4.612  1.00  0.00     0.024 C 
BRANCH  22  23
HETATM   23  C3  UNL     1       4.662  16.486  -5.244  1.00  0.00     0.001 C 
BRANCH  23  24
HETATM   24  C2  UNL     1       3.364  15.703  -5.101  1.00  0.00    -0.005 C 
HETATM   25  C1  UNL     1       2.605  16.311  -3.932  1.00  0.00     0.005 C 
ENDBRANCH  23  24
ENDBRANCH  22  23
ENDBRANCH   1  22
TORSDOF 6
ENDMDL
