MODEL 8
REMARK VINA RESULT: -7.186216239      1.913      2.349
REMARK  6 active torsions:
REMARK  status: ('A' for Active; 'I' for Inactive)
REMARK    1  A    between atoms: C2_2  and  C3_3 
REMARK    2  A    between atoms: C3_3  and  C4_4 
REMARK    3  A    between atoms: C4_4  and  C5_5 
REMARK    4  A    between atoms: N1_8  and  C7_9 
REMARK    5  A    between atoms: N2_15  and  C13_16 
REMARK    6  A    between atoms: C16_19  and  O2_20 
ROOT
HETATM    1  C5  UNL     1       7.126  21.706  -5.457  1.00  0.00     0.174 C 
HETATM    2  C6  UNL     1       8.474  22.270  -5.592  1.00  0.00     0.257 C 
HETATM    3  O1  UNL     1       9.385  22.364  -4.743  1.00  0.00    -0.270 OA
HETATM    4  N1  UNL     1       8.635  22.747  -6.949  1.00  0.00    -0.214 N 
HETATM    5  N2  UNL     1       7.534  22.337  -7.695  1.00  0.00    -0.214 N 
HETATM    6  C19 UNL     1       6.658  21.600  -6.853  1.00  0.00     0.257 C 
HETATM    7  O3  UNL     1       5.649  20.960  -7.221  1.00  0.00    -0.270 OA
ENDROOT
BRANCH   5   8
HETATM    8  C13 UNL     1       7.276  22.588  -9.079  1.00  0.00     0.060 A 
HETATM    9  C14 UNL     1       7.809  21.837 -10.103  1.00  0.00     0.034 A 
HETATM   10  C15 UNL     1       7.537  22.112 -11.440  1.00  0.00     0.039 A 
HETATM   11  C16 UNL     1       6.711  23.160 -11.778  1.00  0.00     0.065 A 
HETATM   12  C17 UNL     1       6.172  23.916 -10.769  1.00  0.00     0.039 A 
HETATM   13  C18 UNL     1       6.448  23.637  -9.453  1.00  0.00     0.034 A 
BRANCH  11  14
HETATM   14  O2  UNL     1       6.452  23.415 -13.135  1.00  0.00    -0.361 OA
ATOM     15  H2  UNL     1       5.755  22.937 -13.568  1.00  0.00     0.217 HD
ENDBRANCH  11  14
ENDBRANCH   5   8
BRANCH   4  16
HETATM   16  C7  UNL     1       9.741  23.513  -7.436  1.00  0.00     0.060 A 
HETATM   17  C8  UNL     1       9.715  24.891  -7.491  1.00  0.00     0.031 A 
HETATM   18  C9  UNL     1      10.798  25.610  -7.961  1.00  0.00     0.002 A 
HETATM   19  C10 UNL     1      11.932  24.950  -8.388  1.00  0.00     0.000 A 
HETATM   20  C11 UNL     1      11.986  23.577  -8.345  1.00  0.00     0.002 A 
HETATM   21  C12 UNL     1      10.893  22.881  -7.872  1.00  0.00     0.031 A 
ENDBRANCH   4  16
BRANCH   1  22
HETATM   22  C4  UNL     1       7.024  20.413  -4.713  1.00  0.00     0.024 C 
BRANCH  22  23
HETATM   23  C3  UNL     1       5.844  20.438  -3.785  1.00  0.00     0.001 C 
BRANCH  23  24
HETATM   24  C2  UNL     1       5.433  21.866  -3.457  1.00  0.00    -0.005 C 
HETATM   25  C1  UNL     1       3.971  22.009  -3.854  1.00  0.00     0.005 C 
ENDBRANCH  23  24
ENDBRANCH  22  23
ENDBRANCH   1  22
TORSDOF 6
ENDMDL
