MODEL 6
REMARK VINA RESULT: -7.254370080      1.158      2.007
REMARK  6 active torsions:
REMARK  status: ('A' for Active; 'I' for Inactive)
REMARK    1  A    between atoms: C2_2  and  C3_3 
REMARK    2  A    between atoms: C3_3  and  C4_4 
REMARK    3  A    between atoms: C4_4  and  C5_5 
REMARK    4  A    between atoms: N1_8  and  C7_9 
REMARK    5  A    between atoms: N2_15  and  C13_16 
REMARK    6  A    between atoms: C16_19  and  O2_20 
ROOT
HETATM    1  C5  UNL     1       6.759  24.143  -5.376  1.00  0.00     0.174 C 
HETATM    2  C6  UNL     1       8.223  24.191  -5.462  1.00  0.00     0.257 C 
HETATM    3  O1  UNL     1       9.066  24.406  -4.566  1.00  0.00    -0.270 OA
HETATM    4  N1  UNL     1       8.609  23.934  -6.833  1.00  0.00    -0.214 N 
HETATM    5  N2  UNL     1       7.477  23.549  -7.546  1.00  0.00    -0.214 N 
HETATM    6  C19 UNL     1       6.360  23.547  -6.667  1.00  0.00     0.257 C 
HETATM    7  O3  UNL     1       5.218  23.112  -6.930  1.00  0.00    -0.270 OA
ENDROOT
BRANCH   5   8
HETATM    8  C13 UNL     1       7.393  23.203  -8.931  1.00  0.00     0.060 A 
HETATM    9  C14 UNL     1       7.461  24.124  -9.953  1.00  0.00     0.034 A 
HETATM   10  C15 UNL     1       7.374  23.751 -11.291  1.00  0.00     0.039 A 
HETATM   11  C16 UNL     1       7.217  22.426 -11.632  1.00  0.00     0.065 A 
HETATM   12  C17 UNL     1       7.150  21.498 -10.625  1.00  0.00     0.039 A 
HETATM   13  C18 UNL     1       7.235  21.877  -9.308  1.00  0.00     0.034 A 
BRANCH  11  14
HETATM   14  O2  UNL     1       7.134  22.077 -12.990  1.00  0.00    -0.361 OA
ATOM     15  H2  UNL     1       7.563  21.285 -13.289  1.00  0.00     0.217 HD
ENDBRANCH  11  14
ENDBRANCH   5   8
BRANCH   4  16
HETATM   16  C7  UNL     1       9.932  24.059  -7.364  1.00  0.00     0.060 A 
HETATM   17  C8  UNL     1      10.770  22.973  -7.513  1.00  0.00     0.031 A 
HETATM   18  C9  UNL     1      12.042  23.116  -8.033  1.00  0.00     0.002 A 
HETATM   19  C10 UNL     1      12.497  24.362  -8.412  1.00  0.00     0.000 A 
HETATM   20  C11 UNL     1      11.683  25.462  -8.275  1.00  0.00     0.002 A 
HETATM   21  C12 UNL     1      10.418  25.294  -7.753  1.00  0.00     0.031 A 
ENDBRANCH   4  16
BRANCH   1  22
HETATM   22  C4  UNL     1       6.192  23.413  -4.202  1.00  0.00     0.024 C 
BRANCH  22  23
HETATM   23  C3  UNL     1       6.524  21.951  -4.286  1.00  0.00     0.001 C 
BRANCH  23  24
HETATM   24  C2  UNL     1       5.353  21.095  -3.826  1.00  0.00    -0.005 C 
HETATM   25  C1  UNL     1       4.185  22.037  -3.574  1.00  0.00     0.005 C 
ENDBRANCH  23  24
ENDBRANCH  22  23
ENDBRANCH   1  22
TORSDOF 6
ENDMDL
