MODEL 2
REMARK VINA RESULT: -7.519066020      1.481      4.310
REMARK  6 active torsions:
REMARK  status: ('A' for Active; 'I' for Inactive)
REMARK    1  A    between atoms: C2_2  and  C3_3 
REMARK    2  A    between atoms: C3_3  and  C4_4 
REMARK    3  A    between atoms: C4_4  and  C5_5 
REMARK    4  A    between atoms: N1_8  and  C7_9 
REMARK    5  A    between atoms: N2_15  and  C13_16 
REMARK    6  A    between atoms: C16_19  and  O2_20 
ROOT
HETATM    1  C5  UNL     1       8.538  24.498  -4.962  1.00  0.00     0.174 C 
HETATM    2  C6  UNL     1       7.769  24.155  -6.164  1.00  0.00     0.257 C 
HETATM    3  O1  UNL     1       6.540  23.981  -6.299  1.00  0.00    -0.270 OA
HETATM    4  N1  UNL     1       8.689  24.033  -7.275  1.00  0.00    -0.214 N 
HETATM    5  N2  UNL     1       9.945  24.464  -6.858  1.00  0.00    -0.214 N 
HETATM    6  C19 UNL     1       9.864  24.867  -5.498  1.00  0.00     0.257 C 
HETATM    7  O3  UNL     1      10.761  25.444  -4.846  1.00  0.00    -0.270 OA
ENDROOT
BRANCH   5   8
HETATM    8  C13 UNL     1      11.150  24.513  -7.626  1.00  0.00     0.060 A 
HETATM    9  C14 UNL     1      11.643  25.665  -8.199  1.00  0.00     0.034 A 
HETATM   10  C15 UNL     1      12.820  25.675  -8.942  1.00  0.00     0.039 A 
HETATM   11  C16 UNL     1      13.534  24.512  -9.127  1.00  0.00     0.065 A 
HETATM   12  C17 UNL     1      13.055  23.358  -8.562  1.00  0.00     0.039 A 
HETATM   13  C18 UNL     1      11.892  23.359  -7.831  1.00  0.00     0.034 A 
BRANCH  11  14
HETATM   14  O2  UNL     1      14.718  24.551  -9.880  1.00  0.00    -0.361 OA
ATOM     15  H2  UNL     1      14.893  23.853 -10.500  1.00  0.00     0.217 HD
ENDBRANCH  11  14
ENDBRANCH   5   8
BRANCH   4  16
HETATM   16  C7  UNL     1       8.359  23.548  -8.580  1.00  0.00     0.060 A 
HETATM   17  C8  UNL     1       8.264  24.384  -9.673  1.00  0.00     0.031 A 
HETATM   18  C9  UNL     1       7.949  23.893 -10.926  1.00  0.00     0.002 A 
HETATM   19  C10 UNL     1       7.721  22.543 -11.101  1.00  0.00     0.000 A 
HETATM   20  C11 UNL     1       7.809  21.687 -10.029  1.00  0.00     0.002 A 
HETATM   21  C12 UNL     1       8.125  22.200  -8.789  1.00  0.00     0.031 A 
ENDBRANCH   4  16
BRANCH   1  22
HETATM   22  C4  UNL     1       7.953  25.557  -4.085  1.00  0.00     0.024 C 
BRANCH  22  23
HETATM   23  C3  UNL     1       7.534  24.971  -2.768  1.00  0.00     0.001 C 
BRANCH  23  24
HETATM   24  C2  UNL     1       6.018  24.904  -2.653  1.00  0.00    -0.005 C 
HETATM   25  C1  UNL     1       5.617  23.458  -2.900  1.00  0.00     0.005 C 
ENDBRANCH  23  24
ENDBRANCH  22  23
ENDBRANCH   1  22
TORSDOF 6
ENDMDL
