MODEL 5
REMARK VINA RESULT: -7.282968490      1.915      4.725
REMARK  6 active torsions:
REMARK  status: ('A' for Active; 'I' for Inactive)
REMARK    1  A    between atoms: C2_2  and  C3_3 
REMARK    2  A    between atoms: C3_3  and  C4_4 
REMARK    3  A    between atoms: C4_4  and  C5_5 
REMARK    4  A    between atoms: N1_8  and  C7_9 
REMARK    5  A    between atoms: N2_15  and  C13_16 
REMARK    6  A    between atoms: C16_19  and  O2_20 
ROOT
HETATM    1  C5  UNL     1       7.188  21.390  -5.543  1.00  0.00     0.174 C 
HETATM    2  C6  UNL     1       6.521  21.632  -6.827  1.00  0.00     0.257 C 
HETATM    3  O1  UNL     1       5.388  21.276  -7.215  1.00  0.00    -0.270 OA
HETATM    4  N1  UNL     1       7.413  22.403  -7.668  1.00  0.00    -0.214 N 
HETATM    5  N2  UNL     1       8.505  22.802  -6.902  1.00  0.00    -0.214 N 
HETATM    6  C19 UNL     1       8.343  22.309  -5.579  1.00  0.00     0.257 C 
HETATM    7  O3  UNL     1       9.055  22.599  -4.593  1.00  0.00    -0.270 OA
ENDROOT
BRANCH   5   8
HETATM    8  C13 UNL     1       9.630  23.578  -7.325  1.00  0.00     0.060 A 
HETATM    9  C14 UNL     1       9.639  24.955  -7.355  1.00  0.00     0.034 A 
HETATM   10  C15 UNL     1      10.753  25.677  -7.775  1.00  0.00     0.039 A 
HETATM   11  C16 UNL     1      11.894  25.020  -8.176  1.00  0.00     0.065 A 
HETATM   12  C17 UNL     1      11.899  23.649  -8.150  1.00  0.00     0.039 A 
HETATM   13  C18 UNL     1      10.795  22.946  -7.735  1.00  0.00     0.034 A 
BRANCH  11  14
HETATM   14  O2  UNL     1      13.004  25.773  -8.593  1.00  0.00    -0.361 OA
ATOM     15  H2  UNL     1      13.205  25.823  -9.520  1.00  0.00     0.217 HD
ENDBRANCH  11  14
ENDBRANCH   5   8
BRANCH   4  16
HETATM   16  C7  UNL     1       7.205  22.700  -9.052  1.00  0.00     0.060 A 
HETATM   17  C8  UNL     1       7.773  21.949 -10.059  1.00  0.00     0.031 A 
HETATM   18  C9  UNL     1       7.553  22.252 -11.390  1.00  0.00     0.002 A 
HETATM   19  C10 UNL     1       6.754  23.324 -11.731  1.00  0.00     0.000 A 
HETATM   20  C11 UNL     1       6.175  24.090 -10.747  1.00  0.00     0.002 A 
HETATM   21  C12 UNL     1       6.409  23.768  -9.426  1.00  0.00     0.031 A 
ENDBRANCH   4  16
BRANCH   1  22
HETATM   22  C4  UNL     1       6.347  21.566  -4.321  1.00  0.00     0.024 C 
BRANCH  22  23
HETATM   23  C3  UNL     1       5.782  22.956  -4.271  1.00  0.00     0.001 C 
BRANCH  23  24
HETATM   24  C2  UNL     1       5.363  23.329  -2.856  1.00  0.00    -0.005 C 
HETATM   25  C1  UNL     1       6.120  24.596  -2.488  1.00  0.00     0.005 C 
ENDBRANCH  23  24
ENDBRANCH  22  23
ENDBRANCH   1  22
TORSDOF 6
ENDMDL
