MODEL 11
REMARK VINA RESULT: -6.951869609      2.092      2.989
REMARK  4 active torsions:
REMARK  status: ('A' for Active; 'I' for Inactive)
REMARK    1  A    between atoms: C2_2  and  N1_3 
REMARK    2  A    between atoms: C2_2  and  C3_7 
REMARK    3  A    between atoms: C6_10  and  C7_11 
REMARK       I    between atoms: C7_11  and  N2_13 
REMARK    4  A    between atoms: N2_13  and  C8_15 
ROOT
HETATM    1  C3  UNL     1      11.066  10.233   2.110  1.00  0.00     0.016 C 
HETATM    2  C4  UNL     1      10.969   8.736   2.162  1.00  0.00     0.007 C 
HETATM    3  C5  UNL     1      10.660   8.194   3.522  1.00  0.00     0.014 C 
HETATM    4  C6  UNL     1       9.666   9.041   4.289  1.00  0.00     0.078 C 
HETATM    5  C13 UNL     1      10.002  10.497   4.282  1.00  0.00     0.014 C 
HETATM    6  C14 UNL     1      11.305  10.738   3.512  1.00  0.00     0.007 C 
ENDROOT
BRANCH   4   7
HETATM    7  C7  UNL     1       8.291   8.873   3.684  1.00  0.00     0.226 C 
HETATM    8  O1  UNL     1       8.112   8.010   2.796  1.00  0.00    -0.273 OA
HETATM    9  N2  UNL     1       7.213   9.669   4.103  1.00  0.00    -0.327 N 
ATOM     10  H2  UNL     1       7.409  10.361   4.827  1.00  0.00     0.169 HD
BRANCH   9  11
HETATM   11  C8  UNL     1       5.870   9.607   3.618  1.00  0.00     0.037 A 
HETATM   12  C9  UNL     1       5.502   9.662   2.305  1.00  0.00     0.046 A 
HETATM   13  C10 UNL     1       4.179   9.611   1.926  1.00  0.00     0.090 A 
HETATM   14  N3  UNL     1       3.244   9.504   2.877  1.00  0.00    -0.375 N 
HETATM   15  C11 UNL     1       3.526   9.444   4.184  1.00  0.00     0.090 A 
ATOM     16  H3  UNL     1       2.266   9.466   2.591  1.00  0.00     0.164 HD
HETATM   17  C12 UNL     1       4.836   9.495   4.560  1.00  0.00     0.046 A 
ENDBRANCH   9  11
ENDBRANCH   4   7
BRANCH   1  18
HETATM   18  C2  UNL     1      12.151  10.655   1.157  1.00  0.00     0.183 C 
HETATM   19  C1  UNL     1      13.393   9.828   1.295  1.00  0.00     0.040 C 
BRANCH  18  20
HETATM   20  N1  UNL     1      11.641  10.445  -0.195  1.00  0.00    -0.075 N 
ATOM     21  H13 UNL     1      12.353  10.108  -0.843  1.00  0.00     0.274 HD
ATOM     22  H12 UNL     1      11.011   9.645  -0.264  1.00  0.00     0.274 HD
ATOM     23  H11 UNL     1      11.210  11.320  -0.494  1.00  0.00     0.274 HD
ENDBRANCH  18  20
ENDBRANCH   1  18
TORSDOF 4
ENDMDL
