MODEL 9
REMARK VINA RESULT: -7.060863093      1.367      1.820
REMARK  4 active torsions:
REMARK  status: ('A' for Active; 'I' for Inactive)
REMARK    1  A    between atoms: C2_2  and  N1_3 
REMARK    2  A    between atoms: C2_2  and  C3_7 
REMARK    3  A    between atoms: C6_10  and  C7_11 
REMARK       I    between atoms: C7_11  and  N2_13 
REMARK    4  A    between atoms: N2_13  and  C8_15 
ROOT
HETATM    1  C3  UNL     1      11.133   8.577   3.510  1.00  0.00     0.016 C 
HETATM    2  C4  UNL     1      11.091   9.933   2.868  1.00  0.00     0.007 C 
HETATM    3  C5  UNL     1      10.710   9.907   1.421  1.00  0.00     0.014 C 
HETATM    4  C6  UNL     1       9.633   8.890   1.106  1.00  0.00     0.078 C 
HETATM    5  C13 UNL     1       9.912   7.539   1.680  1.00  0.00     0.014 C 
HETATM    6  C14 UNL     1      11.254   7.542   2.419  1.00  0.00     0.007 C 
ENDROOT
BRANCH   4   7
HETATM    7  C7  UNL     1       8.311   9.372   1.658  1.00  0.00     0.226 C 
HETATM    8  O1  UNL     1       7.783  10.400   1.179  1.00  0.00    -0.273 OA
HETATM    9  N2  UNL     1       7.667   8.683   2.699  1.00  0.00    -0.327 N 
ATOM     10  H2  UNL     1       8.137   7.853   3.060  1.00  0.00     0.169 HD
BRANCH   9  11
HETATM   11  C8  UNL     1       6.418   9.029   3.303  1.00  0.00     0.037 A 
HETATM   12  C9  UNL     1       5.190   8.852   2.734  1.00  0.00     0.046 A 
HETATM   13  C10 UNL     1       4.035   9.229   3.383  1.00  0.00     0.090 A 
HETATM   14  N3  UNL     1       4.134   9.781   4.597  1.00  0.00    -0.375 N 
HETATM   15  C11 UNL     1       5.300   9.986   5.220  1.00  0.00     0.090 A 
ATOM     16  H3  UNL     1       3.276  10.058   5.073  1.00  0.00     0.164 HD
HETATM   17  C12 UNL     1       6.444   9.613   4.578  1.00  0.00     0.046 A 
ENDBRANCH   9  11
ENDBRANCH   4   7
BRANCH   1  18
HETATM   18  C2  UNL     1      12.264   8.501   4.499  1.00  0.00     0.183 C 
HETATM   19  C1  UNL     1      13.236   7.406   4.179  1.00  0.00     0.040 C 
BRANCH  18  20
HETATM   20  N1  UNL     1      12.993   9.763   4.417  1.00  0.00    -0.075 N 
ATOM     21  H13 UNL     1      13.805   9.797   5.034  1.00  0.00     0.274 HD
ATOM     22  H12 UNL     1      13.493   9.879   3.535  1.00  0.00     0.274 HD
ATOM     23  H11 UNL     1      12.322  10.511   4.597  1.00  0.00     0.274 HD
ENDBRANCH  18  20
ENDBRANCH   1  18
TORSDOF 4
ENDMDL
