MODEL 6
REMARK VINA RESULT: -7.223896088      3.847      6.721
REMARK  4 active torsions:
REMARK  status: ('A' for Active; 'I' for Inactive)
REMARK    1  A    between atoms: C2_2  and  N1_3 
REMARK    2  A    between atoms: C2_2  and  C3_7 
REMARK    3  A    between atoms: C6_10  and  C7_11 
REMARK       I    between atoms: C7_11  and  N2_13 
REMARK    4  A    between atoms: N2_13  and  C8_15 
ROOT
HETATM    1  C3  UNL     1       9.181  10.206   3.496  1.00  0.00     0.016 C 
HETATM    2  C4  UNL     1      10.609   9.749   3.530  1.00  0.00     0.007 C 
HETATM    3  C5  UNL     1      10.921   8.660   2.551  1.00  0.00     0.014 C 
HETATM    4  C6  UNL     1      10.216   8.834   1.222  1.00  0.00     0.078 C 
HETATM    5  C13 UNL     1       8.756   9.119   1.362  1.00  0.00     0.014 C 
HETATM    6  C14 UNL     1       8.355   9.127   2.840  1.00  0.00     0.007 C 
ENDROOT
BRANCH   4   7
HETATM    7  C7  UNL     1      10.848   9.978   0.464  1.00  0.00     0.226 C 
HETATM    8  O1  UNL     1      10.156  10.637  -0.344  1.00  0.00    -0.273 OA
HETATM    9  N2  UNL     1      12.199  10.314   0.653  1.00  0.00    -0.327 N 
ATOM     10  H2  UNL     1      12.723   9.746   1.319  1.00  0.00     0.169 HD
BRANCH   9  11
HETATM   11  C8  UNL     1      12.912  11.371   0.006  1.00  0.00     0.037 A 
HETATM   12  C9  UNL     1      13.849  11.207  -0.972  1.00  0.00     0.046 A 
HETATM   13  C10 UNL     1      14.500  12.284  -1.532  1.00  0.00     0.090 A 
HETATM   14  N3  UNL     1      14.198  13.512  -1.096  1.00  0.00    -0.375 N 
HETATM   15  C11 UNL     1      13.292  13.753  -0.142  1.00  0.00     0.090 A 
ATOM     16  H3  UNL     1      14.683  14.306  -1.514  1.00  0.00     0.164 HD
HETATM   17  C12 UNL     1      12.646  12.687   0.412  1.00  0.00     0.046 A 
ENDBRANCH   9  11
ENDBRANCH   4   7
BRANCH   1  18
HETATM   18  C2  UNL     1       8.701  10.530   4.885  1.00  0.00     0.183 C 
HETATM   19  C1  UNL     1       7.285  10.096   5.121  1.00  0.00     0.040 C 
BRANCH  18  20
HETATM   20  N1  UNL     1       9.542   9.781   5.815  1.00  0.00    -0.075 N 
ATOM     21  H13 UNL     1       9.094   9.621   6.718  1.00  0.00     0.274 HD
ATOM     22  H12 UNL     1       9.657   8.802   5.550  1.00  0.00     0.274 HD
ATOM     23  H11 UNL     1      10.427  10.282   5.890  1.00  0.00     0.274 HD
ENDBRANCH  18  20
ENDBRANCH   1  18
TORSDOF 4
ENDMDL
