MODEL 1
REMARK VINA RESULT: -7.544750903      0.000      0.000
REMARK  4 active torsions:
REMARK  status: ('A' for Active; 'I' for Inactive)
REMARK    1  A    between atoms: C2_2  and  N1_3 
REMARK    2  A    between atoms: C2_2  and  C3_7 
REMARK    3  A    between atoms: C6_10  and  C7_11 
REMARK       I    between atoms: C7_11  and  N2_13 
REMARK    4  A    between atoms: N2_13  and  C8_15 
ROOT
HETATM    1  C3  UNL     1      11.835   8.247   3.816  1.00  0.00     0.016 C 
HETATM    2  C4  UNL     1      11.309   9.634   4.039  1.00  0.00     0.007 C 
HETATM    3  C5  UNL     1      10.751  10.277   2.809  1.00  0.00     0.014 C 
HETATM    4  C6  UNL     1       9.985   9.312   1.928  1.00  0.00     0.078 C 
HETATM    5  C13 UNL     1      10.725   8.041   1.662  1.00  0.00     0.014 C 
HETATM    6  C14 UNL     1      12.098   8.074   2.340  1.00  0.00     0.007 C 
ENDROOT
BRANCH   4   7
HETATM    7  C7  UNL     1       8.672   8.963   2.589  1.00  0.00     0.226 C 
HETATM    8  O1  UNL     1       8.478   7.793   2.989  1.00  0.00    -0.273 OA
HETATM    9  N2  UNL     1       7.669   9.930   2.763  1.00  0.00    -0.327 N 
ATOM     10  H2  UNL     1       7.871  10.868   2.419  1.00  0.00     0.169 HD
BRANCH   9  11
HETATM   11  C8  UNL     1       6.392   9.730   3.375  1.00  0.00     0.037 A 
HETATM   12  C9  UNL     1       6.091  10.001   4.679  1.00  0.00     0.046 A 
HETATM   13  C10 UNL     1       4.835   9.763   5.191  1.00  0.00     0.090 A 
HETATM   14  N3  UNL     1       3.899   9.256   4.382  1.00  0.00    -0.375 N 
HETATM   15  C11 UNL     1       4.117   8.965   3.094  1.00  0.00     0.090 A 
ATOM     16  H3  UNL     1       2.970   9.082   4.766  1.00  0.00     0.164 HD
HETATM   17  C12 UNL     1       5.361   9.200   2.586  1.00  0.00     0.046 A 
ENDBRANCH   9  11
ENDBRANCH   4   7
BRANCH   1  18
HETATM   18  C2  UNL     1      13.068   8.014   4.648  1.00  0.00     0.183 C 
HETATM   19  C1  UNL     1      13.265   9.069   5.694  1.00  0.00     0.040 C 
BRANCH  18  20
HETATM   20  N1  UNL     1      12.881   6.745   5.345  1.00  0.00    -0.075 N 
ATOM     21  H13 UNL     1      13.759   6.322   5.648  1.00  0.00     0.274 HD
ATOM     22  H12 UNL     1      12.462   6.854   6.269  1.00  0.00     0.274 HD
ATOM     23  H11 UNL     1      12.337   6.139   4.730  1.00  0.00     0.274 HD
ENDBRANCH  18  20
ENDBRANCH   1  18
TORSDOF 4
ENDMDL
