MODEL 5
REMARK VINA RESULT: -7.252261800      2.394      7.048
REMARK  4 active torsions:
REMARK  status: ('A' for Active; 'I' for Inactive)
REMARK    1  A    between atoms: C2_2  and  N1_3 
REMARK    2  A    between atoms: C2_2  and  C3_7 
REMARK    3  A    between atoms: C6_10  and  C7_11 
REMARK       I    between atoms: C7_11  and  N2_13 
REMARK    4  A    between atoms: N2_13  and  C8_15 
ROOT
HETATM    1  C3  UNL     1       9.052   9.574   3.891  1.00  0.00     0.016 C 
HETATM    2  C4  UNL     1       9.373   8.173   4.323  1.00  0.00     0.007 C 
HETATM    3  C5  UNL     1       9.536   7.211   3.189  1.00  0.00     0.014 C 
HETATM    4  C6  UNL     1      10.245   7.812   1.994  1.00  0.00     0.078 C 
HETATM    5  C13 UNL     1       9.690   9.138   1.585  1.00  0.00     0.014 C 
HETATM    6  C14 UNL     1       8.510   9.521   2.484  1.00  0.00     0.007 C 
ENDROOT
BRANCH   4   7
HETATM    7  C7  UNL     1      11.709   7.995   2.319  1.00  0.00     0.226 C 
HETATM    8  O1  UNL     1      12.244   9.112   2.138  1.00  0.00    -0.273 OA
HETATM    9  N2  UNL     1      12.478   6.933   2.823  1.00  0.00    -0.327 N 
ATOM     10  H2  UNL     1      12.000   6.041   2.950  1.00  0.00     0.169 HD
BRANCH   9  11
HETATM   11  C8  UNL     1      13.864   6.977   3.174  1.00  0.00     0.037 A 
HETATM   12  C9  UNL     1      14.903   6.793   2.308  1.00  0.00     0.046 A 
HETATM   13  C10 UNL     1      16.211   6.836   2.736  1.00  0.00     0.090 A 
HETATM   14  N3  UNL     1      16.454   7.065   4.031  1.00  0.00    -0.375 N 
HETATM   15  C11 UNL     1      15.489   7.254   4.939  1.00  0.00     0.090 A 
ATOM     16  H3  UNL     1      17.424   7.096   4.343  1.00  0.00     0.164 HD
HETATM   17  C12 UNL     1      14.194   7.212   4.516  1.00  0.00     0.046 A 
ENDBRANCH   9  11
ENDBRANCH   4   7
BRANCH   1  18
HETATM   18  C2  UNL     1       8.086  10.211   4.852  1.00  0.00     0.183 C 
HETATM   19  C1  UNL     1       6.678   9.736   4.653  1.00  0.00     0.040 C 
BRANCH  18  20
HETATM   20  N1  UNL     1       8.490   9.810   6.197  1.00  0.00    -0.075 N 
ATOM     21  H13 UNL     1       8.592  10.599   6.836  1.00  0.00     0.274 HD
ATOM     22  H12 UNL     1       7.754   9.322   6.707  1.00  0.00     0.274 HD
ATOM     23  H11 UNL     1       9.344   9.259   6.103  1.00  0.00     0.274 HD
ENDBRANCH  18  20
ENDBRANCH   1  18
TORSDOF 4
ENDMDL
