MODEL 2
REMARK VINA RESULT: -7.537364400      0.119      1.115
REMARK  4 active torsions:
REMARK  status: ('A' for Active; 'I' for Inactive)
REMARK    1  A    between atoms: C2_2  and  N1_3 
REMARK    2  A    between atoms: C2_2  and  C3_7 
REMARK    3  A    between atoms: C6_10  and  C7_11 
REMARK       I    between atoms: C7_11  and  N2_13 
REMARK    4  A    between atoms: N2_13  and  C8_15 
ROOT
HETATM    1  C3  UNL     1      11.883   8.252   3.812  1.00  0.00     0.016 C 
HETATM    2  C4  UNL     1      11.339   9.629   4.054  1.00  0.00     0.007 C 
HETATM    3  C5  UNL     1      10.799  10.293   2.826  1.00  0.00     0.014 C 
HETATM    4  C6  UNL     1      10.060   9.341   1.910  1.00  0.00     0.078 C 
HETATM    5  C13 UNL     1      10.817   8.083   1.632  1.00  0.00     0.014 C 
HETATM    6  C14 UNL     1      12.176   8.113   2.338  1.00  0.00     0.007 C 
ENDROOT
BRANCH   4   7
HETATM    7  C7  UNL     1       8.738   8.965   2.538  1.00  0.00     0.226 C 
HETATM    8  O1  UNL     1       8.550   7.787   2.917  1.00  0.00    -0.273 OA
HETATM    9  N2  UNL     1       7.718   9.916   2.703  1.00  0.00    -0.327 N 
ATOM     10  H2  UNL     1       7.916  10.861   2.376  1.00  0.00     0.169 HD
BRANCH   9  11
HETATM   11  C8  UNL     1       6.431   9.691   3.284  1.00  0.00     0.037 A 
HETATM   12  C9  UNL     1       5.349   9.176   2.631  1.00  0.00     0.046 A 
HETATM   13  C10 UNL     1       4.139   9.007   3.265  1.00  0.00     0.090 A 
HETATM   14  N3  UNL     1       4.035   9.361   4.551  1.00  0.00    -0.375 N 
HETATM   15  C11 UNL     1       5.049   9.872   5.258  1.00  0.00     0.090 A 
ATOM     16  H3  UNL     1       3.137   9.234   5.016  1.00  0.00     0.164 HD
HETATM   17  C12 UNL     1       6.248  10.039   4.631  1.00  0.00     0.046 A 
ENDBRANCH   9  11
ENDBRANCH   4   7
BRANCH   1  18
HETATM   18  C2  UNL     1      13.101   8.012   4.662  1.00  0.00     0.183 C 
HETATM   19  C1  UNL     1      13.280   9.059   5.721  1.00  0.00     0.040 C 
BRANCH  18  20
HETATM   20  N1  UNL     1      12.903   6.737   5.346  1.00  0.00    -0.075 N 
ATOM     21  H13 UNL     1      13.749   6.168   5.383  1.00  0.00     0.274 HD
ATOM     22  H12 UNL     1      12.770   6.840   6.353  1.00  0.00     0.274 HD
ATOM     23  H11 UNL     1      12.123   6.266   4.886  1.00  0.00     0.274 HD
ENDBRANCH  18  20
ENDBRANCH   1  18
TORSDOF 4
ENDMDL
