MODEL 3
REMARK VINA RESULT: -7.356973475      2.473      7.033
REMARK  4 active torsions:
REMARK  status: ('A' for Active; 'I' for Inactive)
REMARK    1  A    between atoms: C2_2  and  N1_3 
REMARK    2  A    between atoms: C2_2  and  C3_7 
REMARK    3  A    between atoms: C6_10  and  C7_11 
REMARK       I    between atoms: C7_11  and  N2_13 
REMARK    4  A    between atoms: N2_13  and  C8_15 
ROOT
HETATM    1  C3  UNL     1       9.155   9.610   3.921  1.00  0.00     0.016 C 
HETATM    2  C4  UNL     1       9.431   8.184   4.294  1.00  0.00     0.007 C 
HETATM    3  C5  UNL     1       9.601   7.271   3.121  1.00  0.00     0.014 C 
HETATM    4  C6  UNL     1      10.354   7.909   1.973  1.00  0.00     0.078 C 
HETATM    5  C13 UNL     1       9.842   9.266   1.612  1.00  0.00     0.014 C 
HETATM    6  C14 UNL     1       8.648   9.636   2.499  1.00  0.00     0.007 C 
ENDROOT
BRANCH   4   7
HETATM    7  C7  UNL     1      11.814   8.041   2.342  1.00  0.00     0.226 C 
HETATM    8  O1  UNL     1      12.378   9.153   2.232  1.00  0.00    -0.273 OA
HETATM    9  N2  UNL     1      12.546   6.937   2.808  1.00  0.00    -0.327 N 
ATOM     10  H2  UNL     1      12.045   6.051   2.878  1.00  0.00     0.169 HD
BRANCH   9  11
HETATM   11  C8  UNL     1      13.923   6.930   3.194  1.00  0.00     0.037 A 
HETATM   12  C9  UNL     1      14.384   7.060   4.472  1.00  0.00     0.046 A 
HETATM   13  C10 UNL     1      15.733   7.058   4.753  1.00  0.00     0.090 A 
HETATM   14  N3  UNL     1      16.597   6.925   3.741  1.00  0.00    -0.375 N 
HETATM   15  C11 UNL     1      16.222   6.792   2.464  1.00  0.00     0.090 A 
ATOM     16  H3  UNL     1      17.595   6.923   3.955  1.00  0.00     0.164 HD
HETATM   17  C12 UNL     1      14.887   6.793   2.185  1.00  0.00     0.046 A 
ENDBRANCH   9  11
ENDBRANCH   4   7
BRANCH   1  18
HETATM   18  C2  UNL     1       8.179  10.226   4.887  1.00  0.00     0.183 C 
HETATM   19  C1  UNL     1       6.764   9.807   4.622  1.00  0.00     0.040 C 
BRANCH  18  20
HETATM   20  N1  UNL     1       8.530   9.740   6.219  1.00  0.00    -0.075 N 
ATOM     21  H13 UNL     1       8.073  10.262   6.967  1.00  0.00     0.274 HD
ATOM     22  H12 UNL     1       8.128   8.827   6.430  1.00  0.00     0.274 HD
ATOM     23  H11 UNL     1       9.548   9.754   6.286  1.00  0.00     0.274 HD
ENDBRANCH  18  20
ENDBRANCH   1  18
TORSDOF 4
ENDMDL
