MODEL 10
REMARK VINA RESULT: -7.413734594      3.418      8.074
REMARK  2 active torsions:
REMARK  status: ('A' for Active; 'I' for Inactive)
REMARK    1  A    between atoms: C9_11  and  S1_12 
REMARK    2  A    between atoms: S1_12  and  N2_15 
ROOT
HETATM    1  S1  UNL     1      12.868   8.634   3.870  1.00  0.00     0.244 S 
HETATM    2  O1  UNL     1      12.937   9.299   5.239  1.00  0.00    -0.206 OA
HETATM    3  O2  UNL     1      12.383   7.242   3.844  1.00  0.00    -0.206 OA
ENDROOT
BRANCH   1   4
HETATM    4  C9  UNL     1      13.884   9.241   2.653  1.00  0.00     0.086 A 
HETATM    5  C8  UNL     1      13.424  10.187   1.699  1.00  0.00     0.026 A 
HETATM    6  C7  UNL     1      14.175  10.697   0.690  1.00  0.00     0.002 A 
HETATM    7  C6  UNL     1      15.460  10.283   0.569  1.00  0.00     0.014 A 
HETATM    8  C5  UNL     1      15.991   9.365   1.450  1.00  0.00    -0.009 A 
HETATM    9  C4  UNL     1      17.299   8.968   1.294  1.00  0.00     0.100 A 
HETATM   10  C16 UNL     1      15.194   8.839   2.499  1.00  0.00     0.006 A 
HETATM   11  N1  UNL     1      17.834   8.085   2.121  1.00  0.00    -0.374 N 
HETATM   12  C3  UNL     1      17.098   7.587   3.102  1.00  0.00     0.095 A 
ATOM     13  H1  UNL     1      18.804   7.792   2.003  1.00  0.00     0.164 HD
HETATM   14  C2  UNL     1      15.750   7.921   3.354  1.00  0.00    -0.034 A 
HETATM   15  C1  UNL     1      15.013   7.293   4.429  1.00  0.00     0.050 C 
ENDBRANCH   1   4
BRANCH   1  16
HETATM   16  N2  UNL     1      11.295   9.391   3.463  1.00  0.00    -0.201 NA
HETATM   17  C10 UNL     1      10.856  10.277   4.461  1.00  0.00     0.109 C 
HETATM   18  C11 UNL     1       9.367  10.523   4.414  1.00  0.00     0.043 C 
HETATM   19  C12 UNL     1       8.520   9.374   4.812  1.00  0.00     0.233 C 
HETATM   20  N3  UNL     1       9.189   8.179   5.202  1.00  0.00    -0.074 N 
HETATM   21  C13 UNL     1       9.830   7.507   4.117  1.00  0.00     0.252 C 
ATOM     22  H32 UNL     1       9.852   8.365   5.954  1.00  0.00     0.277 HD
ATOM     23  H31 UNL     1       8.552   7.550   5.690  1.00  0.00     0.277 HD
HETATM   24  C14 UNL     1      10.328   8.428   3.046  1.00  0.00     0.096 C 
HETATM   25  C15 UNL     1      10.623   7.699   1.783  1.00  0.00     0.029 C 
ENDBRANCH   1  16
TORSDOF 2
ENDMDL
