MODEL 12
REMARK VINA RESULT: -7.349980285      3.953      7.808
REMARK  2 active torsions:
REMARK  status: ('A' for Active; 'I' for Inactive)
REMARK    1  A    between atoms: C9_11  and  S1_12 
REMARK    2  A    between atoms: S1_12  and  N2_15 
ROOT
HETATM    1  S1  UNL     1      13.161   9.373   2.086  1.00  0.00     0.244 S 
HETATM    2  O1  UNL     1      13.764   9.300   3.483  1.00  0.00    -0.206 OA
HETATM    3  O2  UNL     1      12.823   8.086   1.452  1.00  0.00    -0.206 OA
ENDROOT
BRANCH   1   4
HETATM    4  C9  UNL     1      13.497  10.755   1.160  1.00  0.00     0.086 A 
HETATM    5  C8  UNL     1      12.595  11.850   1.096  1.00  0.00     0.026 A 
HETATM    6  C7  UNL     1      12.792  12.974   0.361  1.00  0.00     0.002 A 
HETATM    7  C6  UNL     1      13.927  13.075  -0.373  1.00  0.00     0.014 A 
HETATM    8  C5  UNL     1      14.859  12.058  -0.373  1.00  0.00    -0.009 A 
HETATM    9  C4  UNL     1      15.997  12.196  -1.134  1.00  0.00     0.100 A 
HETATM   10  C16 UNL     1      14.639  10.889   0.398  1.00  0.00     0.006 A 
HETATM   11  N1  UNL     1      16.907  11.236  -1.158  1.00  0.00    -0.374 N 
HETATM   12  C3  UNL     1      16.710  10.140  -0.442  1.00  0.00     0.095 A 
ATOM     13  H1  UNL     1      17.750  11.340  -1.721  1.00  0.00     0.164 HD
HETATM   14  C2  UNL     1      15.583   9.893   0.369  1.00  0.00    -0.034 A 
HETATM   15  C1  UNL     1      15.437   8.644   1.085  1.00  0.00     0.050 C 
ENDBRANCH   1   4
BRANCH   1  16
HETATM   16  N2  UNL     1      11.512   9.721   2.699  1.00  0.00    -0.201 NA
HETATM   17  C10 UNL     1      11.486   9.875   4.095  1.00  0.00     0.109 C 
HETATM   18  C11 UNL     1      10.112   9.655   4.683  1.00  0.00     0.043 C 
HETATM   19  C12 UNL     1       9.622   8.257   4.650  1.00  0.00     0.233 C 
HETATM   20  N3  UNL     1      10.491   7.279   4.085  1.00  0.00    -0.074 N 
HETATM   21  C13 UNL     1      10.643   7.404   2.671  1.00  0.00     0.252 C 
ATOM     22  H32 UNL     1      11.399   7.292   4.550  1.00  0.00     0.277 HD
ATOM     23  H31 UNL     1      10.186   6.338   4.334  1.00  0.00     0.277 HD
HETATM   24  C14 UNL     1      10.543   8.813   2.175  1.00  0.00     0.096 C 
HETATM   25  C15 UNL     1      10.312   8.868   0.707  1.00  0.00     0.029 C 
ENDBRANCH   1  16
TORSDOF 2
ENDMDL
