MODEL 11
REMARK VINA RESULT: -7.367216321      3.207      7.328
REMARK  2 active torsions:
REMARK  status: ('A' for Active; 'I' for Inactive)
REMARK    1  A    between atoms: C9_11  and  S1_12 
REMARK    2  A    between atoms: S1_12  and  N2_15 
ROOT
HETATM    1  S1  UNL     1      12.012   9.374   3.663  1.00  0.00     0.244 S 
HETATM    2  O1  UNL     1      12.407  10.036   4.977  1.00  0.00    -0.206 OA
HETATM    3  O2  UNL     1      11.665   7.944   3.730  1.00  0.00    -0.206 OA
ENDROOT
BRANCH   1   4
HETATM    4  C9  UNL     1      12.581  10.082   2.229  1.00  0.00     0.086 A 
HETATM    5  C8  UNL     1      11.750  10.898   1.416  1.00  0.00     0.026 A 
HETATM    6  C7  UNL     1      12.134  11.476   0.250  1.00  0.00     0.002 A 
HETATM    7  C6  UNL     1      13.401  11.268  -0.187  1.00  0.00     0.014 A 
HETATM    8  C5  UNL     1      14.277  10.488   0.537  1.00  0.00    -0.009 A 
HETATM    9  C4  UNL     1      15.553  10.298   0.060  1.00  0.00     0.100 A 
HETATM   10  C16 UNL     1      13.861   9.888   1.753  1.00  0.00     0.006 A 
HETATM   11  N1  UNL     1      16.415   9.551   0.729  1.00  0.00    -0.374 N 
HETATM   12  C3  UNL     1      16.036   8.986   1.865  1.00  0.00     0.095 A 
ATOM     13  H1  UNL     1      17.361   9.412   0.374  1.00  0.00     0.164 HD
HETATM   14  C2  UNL     1      14.755   9.111   2.445  1.00  0.00    -0.034 A 
HETATM   15  C1  UNL     1      14.421   8.421   3.672  1.00  0.00     0.050 C 
ENDBRANCH   1   4
BRANCH   1  16
HETATM   16  N2  UNL     1      10.326   9.981   3.740  1.00  0.00    -0.201 NA
HETATM   17  C10 UNL     1      10.115  10.826   4.843  1.00  0.00     0.109 C 
HETATM   18  C11 UNL     1       8.660  10.933   5.230  1.00  0.00     0.043 C 
HETATM   19  C12 UNL     1       8.069   9.712   5.827  1.00  0.00     0.233 C 
HETATM   20  N3  UNL     1       8.927   8.586   5.981  1.00  0.00    -0.074 N 
HETATM   21  C13 UNL     1       9.286   7.972   4.743  1.00  0.00     0.252 C 
ATOM     22  H32 UNL     1       9.758   8.836   6.516  1.00  0.00     0.277 HD
ATOM     23  H31 UNL     1       8.516   7.902   6.617  1.00  0.00     0.277 HD
HETATM   24  C14 UNL     1       9.371   8.931   3.596  1.00  0.00     0.096 C 
HETATM   25  C15 UNL     1       9.355   8.228   2.285  1.00  0.00     0.029 C 
ENDBRANCH   1  16
TORSDOF 2
ENDMDL
