MODEL 2
REMARK VINA RESULT: -8.508209775      1.815      3.228
REMARK  2 active torsions:
REMARK  status: ('A' for Active; 'I' for Inactive)
REMARK    1  A    between atoms: C9_11  and  S1_12 
REMARK    2  A    between atoms: S1_12  and  N2_15 
ROOT
HETATM    1  S1  UNL     1       9.224   9.969   4.293  1.00  0.00     0.244 S 
HETATM    2  O1  UNL     1       9.442   8.838   5.291  1.00  0.00    -0.206 OA
HETATM    3  O2  UNL     1       9.849  11.262   4.624  1.00  0.00    -0.206 OA
ENDROOT
BRANCH   1   4
HETATM    4  C9  UNL     1       7.856   9.876   3.292  1.00  0.00     0.086 A 
HETATM    5  C8  UNL     1       7.968   9.730   1.884  1.00  0.00     0.026 A 
HETATM    6  C7  UNL     1       6.919   9.670   1.026  1.00  0.00     0.002 A 
HETATM    7  C6  UNL     1       5.664   9.756   1.533  1.00  0.00     0.014 A 
HETATM    8  C5  UNL     1       5.460   9.901   2.889  1.00  0.00    -0.009 A 
HETATM    9  C4  UNL     1       4.172   9.987   3.365  1.00  0.00     0.100 A 
HETATM   10  C16 UNL     1       6.566   9.964   3.774  1.00  0.00     0.006 A 
HETATM   11  N1  UNL     1       3.946  10.132   4.660  1.00  0.00    -0.374 N 
HETATM   12  C3  UNL     1       4.972  10.193   5.494  1.00  0.00     0.095 A 
ATOM     13  H1  UNL     1       2.991  10.195   5.012  1.00  0.00     0.164 HD
HETATM   14  C2  UNL     1       6.329  10.117   5.117  1.00  0.00    -0.034 A 
HETATM   15  C1  UNL     1       7.386  10.234   6.099  1.00  0.00     0.050 C 
ENDBRANCH   1   4
BRANCH   1  16
HETATM   16  N2  UNL     1      10.529   9.401   3.202  1.00  0.00    -0.201 NA
HETATM   17  C10 UNL     1      10.585   7.999   3.125  1.00  0.00     0.109 C 
HETATM   18  C11 UNL     1      11.929   7.491   2.661  1.00  0.00     0.043 C 
HETATM   19  C12 UNL     1      13.041   7.659   3.628  1.00  0.00     0.233 C 
HETATM   20  N3  UNL     1      12.726   8.263   4.878  1.00  0.00    -0.074 N 
HETATM   21  C13 UNL     1      12.422   9.655   4.776  1.00  0.00     0.252 C 
ATOM     22  H32 UNL     1      11.969   7.761   5.342  1.00  0.00     0.277 HD
ATOM     23  H31 UNL     1      13.473   8.106   5.555  1.00  0.00     0.277 HD
HETATM   24  C14 UNL     1      11.775  10.038   3.481  1.00  0.00     0.096 C 
HETATM   25  C15 UNL     1      11.834  11.506   3.246  1.00  0.00     0.029 C 
ENDBRANCH   1  16
TORSDOF 2
ENDMDL
