MODEL 7
REMARK VINA RESULT: -7.491775912      2.255      5.945
REMARK  2 active torsions:
REMARK  status: ('A' for Active; 'I' for Inactive)
REMARK    1  A    between atoms: S1_2  and  C1_4 
REMARK    2  A    between atoms: S1_2  and  N2_15 
ROOT
HETATM    1  O1  UNL     1      26.878  26.249   7.455  1.00  0.00    -0.200 OA
HETATM    2  S1  UNL     1      26.568  25.146   8.430  1.00  0.00     0.261 S 
HETATM    3  O2  UNL     1      26.762  25.649   9.851  1.00  0.00    -0.200 OA
ENDROOT
BRANCH   2   4
HETATM    4  C1  UNL     1      27.648  23.793   8.239  1.00  0.00     0.090 A 
HETATM    5  C2  UNL     1      27.240  22.509   7.964  1.00  0.00     0.026 A 
HETATM    6  C3  UNL     1      28.102  21.445   7.807  1.00  0.00     0.002 A 
HETATM    7  C4  UNL     1      29.453  21.689   7.933  1.00  0.00     0.014 A 
HETATM    8  C5  UNL     1      29.895  22.960   8.206  1.00  0.00    -0.009 A 
HETATM    9  C6  UNL     1      31.248  23.229   8.337  1.00  0.00     0.100 A 
HETATM   10  C9  UNL     1      29.019  24.013   8.360  1.00  0.00     0.000 A 
HETATM   11  N1  UNL     1      31.709  24.463   8.605  1.00  0.00    -0.374 N 
HETATM   12  C7  UNL     1      30.881  25.506   8.760  1.00  0.00     0.088 A 
ATOM     13  H1  UNL     1      32.714  24.610   8.692  1.00  0.00     0.164 HD
HETATM   14  C8  UNL     1      29.528  25.263   8.635  1.00  0.00     0.031 A 
ENDBRANCH   2   4
BRANCH   2  15
HETATM   15  N2  UNL     1      24.961  24.629   8.286  1.00  0.00    -0.305 N 
HETATM   16  C10 UNL     1      24.021  25.222   9.165  1.00  0.00     0.137 C 
HETATM   17  C11 UNL     1      23.086  26.200   8.484  1.00  0.00     0.048 C 
HETATM   18  C12 UNL     1      22.181  25.568   7.490  1.00  0.00     0.234 C 
HETATM   19  N3  UNL     1      22.144  24.142   7.519  1.00  0.00    -0.074 N 
HETATM   20  C13 UNL     1      23.284  23.499   6.933  1.00  0.00     0.252 C 
ATOM     21  H32 UNL     1      22.003  23.812   8.473  1.00  0.00     0.277 HD
ATOM     22  H31 UNL     1      21.285  23.803   7.086  1.00  0.00     0.277 HD
HETATM   23  C14 UNL     1      24.508  24.405   6.953  1.00  0.00     0.163 C 
ENDBRANCH   2  15
TORSDOF 2
ENDMDL
