MODEL 4
REMARK VINA RESULT: -7.810991942      1.475      2.603
REMARK  2 active torsions:
REMARK  status: ('A' for Active; 'I' for Inactive)
REMARK    1  A    between atoms: S1_2  and  C1_4 
REMARK    2  A    between atoms: S1_2  and  N2_15 
ROOT
HETATM    1  O1  UNL     1      27.120  26.544   9.753  1.00  0.00    -0.200 OA
HETATM    2  S1  UNL     1      27.577  25.628   8.650  1.00  0.00     0.261 S 
HETATM    3  O2  UNL     1      28.048  26.451   7.462  1.00  0.00    -0.200 OA
ENDROOT
BRANCH   2   4
HETATM    4  C1  UNL     1      26.280  24.623   8.067  1.00  0.00     0.090 A 
HETATM    5  C2  UNL     1      26.439  23.329   7.629  1.00  0.00     0.026 A 
HETATM    6  C3  UNL     1      25.405  22.538   7.176  1.00  0.00     0.002 A 
HETATM    7  C4  UNL     1      24.139  23.081   7.163  1.00  0.00     0.014 A 
HETATM    8  C5  UNL     1      23.944  24.370   7.594  1.00  0.00    -0.009 A 
HETATM    9  C6  UNL     1      22.680  24.937   7.591  1.00  0.00     0.100 A 
HETATM   10  C9  UNL     1      24.989  25.148   8.045  1.00  0.00     0.000 A 
HETATM   11  N1  UNL     1      22.460  26.197   8.006  1.00  0.00    -0.374 N 
HETATM   12  C7  UNL     1      23.456  26.976   8.449  1.00  0.00     0.088 A 
ATOM     13  H1  UNL     1      21.510  26.569   7.984  1.00  0.00     0.164 HD
HETATM   14  C8  UNL     1      24.725  26.434   8.462  1.00  0.00     0.031 A 
ENDBRANCH   2   4
BRANCH   2  15
HETATM   15  N2  UNL     1      28.878  24.663   9.151  1.00  0.00    -0.305 N 
HETATM   16  C10 UNL     1      30.030  24.672   8.327  1.00  0.00     0.137 C 
HETATM   17  C11 UNL     1      31.199  25.425   8.927  1.00  0.00     0.048 C 
HETATM   18  C12 UNL     1      31.741  24.800  10.161  1.00  0.00     0.234 C 
HETATM   19  N3  UNL     1      31.268  23.483  10.437  1.00  0.00    -0.074 N 
HETATM   20  C13 UNL     1      29.933  23.421  10.957  1.00  0.00     0.252 C 
ATOM     21  H32 UNL     1      31.352  22.896   9.607  1.00  0.00     0.277 HD
ATOM     22  H31 UNL     1      31.913  22.999  11.061  1.00  0.00     0.277 HD
HETATM   23  C14 UNL     1      29.119  24.644  10.555  1.00  0.00     0.163 C 
ENDBRANCH   2  15
TORSDOF 2
ENDMDL
