MODEL 13
REMARK VINA RESULT: -7.171864549      2.616      6.059
REMARK  2 active torsions:
REMARK  status: ('A' for Active; 'I' for Inactive)
REMARK    1  A    between atoms: S1_2  and  C1_4 
REMARK    2  A    between atoms: S1_2  and  N2_15 
ROOT
HETATM    1  O1  UNL     1      26.228  24.171  10.542  1.00  0.00    -0.200 OA
HETATM    2  S1  UNL     1      26.518  23.935   9.084  1.00  0.00     0.261 S 
HETATM    3  O2  UNL     1      26.209  22.490   8.727  1.00  0.00    -0.200 OA
ENDROOT
BRANCH   2   4
HETATM    4  C1  UNL     1      28.202  24.182   8.713  1.00  0.00     0.090 A 
HETATM    5  C2  UNL     1      29.024  23.223   8.169  1.00  0.00     0.026 A 
HETATM    6  C3  UNL     1      30.354  23.429   7.872  1.00  0.00     0.002 A 
HETATM    7  C4  UNL     1      30.886  24.673   8.137  1.00  0.00     0.014 A 
HETATM    8  C5  UNL     1      30.093  25.654   8.680  1.00  0.00    -0.009 A 
HETATM    9  C6  UNL     1      30.606  26.911   8.954  1.00  0.00     0.100 A 
HETATM   10  C9  UNL     1      28.764  25.431   8.971  1.00  0.00     0.000 A 
HETATM   11  N1  UNL     1      29.852  27.890   9.486  1.00  0.00    -0.374 N 
HETATM   12  C7  UNL     1      28.558  27.702   9.780  1.00  0.00     0.088 A 
ATOM     13  H1  UNL     1      30.277  28.799   9.670  1.00  0.00     0.164 HD
HETATM   14  C8  UNL     1      28.024  26.458   9.515  1.00  0.00     0.031 A 
ENDBRANCH   2   4
BRANCH   2  15
HETATM   15  N2  UNL     1      25.557  24.922   8.097  1.00  0.00    -0.305 N 
HETATM   16  C10 UNL     1      24.738  24.264   7.146  1.00  0.00     0.137 C 
HETATM   17  C11 UNL     1      23.264  24.288   7.495  1.00  0.00     0.048 C 
HETATM   18  C12 UNL     1      22.670  25.649   7.484  1.00  0.00     0.234 C 
HETATM   19  N3  UNL     1      23.485  26.666   6.904  1.00  0.00    -0.074 N 
HETATM   20  C13 UNL     1      24.567  27.114   7.732  1.00  0.00     0.252 C 
ATOM     21  H32 UNL     1      23.836  26.363   5.996  1.00  0.00     0.277 HD
ATOM     22  H31 UNL     1      22.910  27.458   6.615  1.00  0.00     0.277 HD
HETATM   23  C14 UNL     1      24.974  26.050   8.743  1.00  0.00     0.163 C 
ENDBRANCH   2  15
TORSDOF 2
ENDMDL
