MODEL 2
REMARK VINA RESULT: -7.883000711      1.240      2.749
REMARK  2 active torsions:
REMARK  status: ('A' for Active; 'I' for Inactive)
REMARK    1  A    between atoms: S1_2  and  C1_4 
REMARK    2  A    between atoms: S1_2  and  N2_15 
ROOT
HETATM    1  O1  UNL     1      27.309  27.358   8.300  1.00  0.00    -0.200 OA
HETATM    2  S1  UNL     1      27.820  25.943   8.291  1.00  0.00     0.261 S 
HETATM    3  O2  UNL     1      28.867  25.784   7.201  1.00  0.00    -0.200 OA
ENDROOT
BRANCH   2   4
HETATM    4  C1  UNL     1      26.555  24.803   7.926  1.00  0.00     0.090 A 
HETATM    5  C2  UNL     1      26.772  23.495   7.563  1.00  0.00     0.026 A 
HETATM    6  C3  UNL     1      25.765  22.597   7.283  1.00  0.00     0.002 A 
HETATM    7  C4  UNL     1      24.464  23.042   7.375  1.00  0.00     0.014 A 
HETATM    8  C5  UNL     1      24.211  24.343   7.735  1.00  0.00    -0.009 A 
HETATM    9  C6  UNL     1      22.911  24.813   7.834  1.00  0.00     0.100 A 
HETATM   10  C9  UNL     1      25.230  25.228   8.012  1.00  0.00     0.000 A 
HETATM   11  N1  UNL     1      22.634  26.081   8.184  1.00  0.00    -0.374 N 
HETATM   12  C7  UNL     1      23.604  26.964   8.459  1.00  0.00     0.088 A 
ATOM     13  H1  UNL     1      21.660  26.379   8.242  1.00  0.00     0.164 HD
HETATM   14  C8  UNL     1      24.908  26.520   8.367  1.00  0.00     0.031 A 
ENDBRANCH   2   4
BRANCH   2  15
HETATM   15  N2  UNL     1      28.553  25.543   9.766  1.00  0.00    -0.305 N 
HETATM   16  C10 UNL     1      27.723  25.566  10.914  1.00  0.00     0.137 C 
HETATM   17  C11 UNL     1      27.390  24.189  11.449  1.00  0.00     0.048 C 
HETATM   18  C12 UNL     1      28.568  23.448  11.968  1.00  0.00     0.234 C 
HETATM   19  N3  UNL     1      29.755  24.223  12.126  1.00  0.00    -0.074 N 
HETATM   20  C13 UNL     1      30.445  24.523  10.905  1.00  0.00     0.252 C 
ATOM     21  H32 UNL     1      29.551  25.082  12.636  1.00  0.00     0.277 HD
ATOM     22  H31 UNL     1      30.387  23.771  12.787  1.00  0.00     0.277 HD
HETATM   23  C14 UNL     1      29.503  24.483   9.708  1.00  0.00     0.163 C 
ENDBRANCH   2  15
TORSDOF 2
ENDMDL
