MODEL 8
REMARK VINA RESULT: -7.398532685      1.558      5.673
REMARK  2 active torsions:
REMARK  status: ('A' for Active; 'I' for Inactive)
REMARK    1  A    between atoms: S1_2  and  C1_4 
REMARK    2  A    between atoms: S1_2  and  N2_15 
ROOT
HETATM    1  O1  UNL     1      26.788  27.004   7.196  1.00  0.00    -0.200 OA
HETATM    2  S1  UNL     1      26.715  26.045   8.353  1.00  0.00     0.261 S 
HETATM    3  O2  UNL     1      26.435  26.811   9.637  1.00  0.00    -0.200 OA
ENDROOT
BRANCH   2   4
HETATM    4  C1  UNL     1      28.225  25.213   8.599  1.00  0.00     0.090 A 
HETATM    5  C2  UNL     1      29.237  25.153   7.670  1.00  0.00     0.026 A 
HETATM    6  C3  UNL     1      30.432  24.499   7.876  1.00  0.00     0.002 A 
HETATM    7  C4  UNL     1      30.619  23.869   9.087  1.00  0.00     0.014 A 
HETATM    8  C5  UNL     1      29.630  23.909  10.038  1.00  0.00    -0.009 A 
HETATM    9  C6  UNL     1      29.795  23.283  11.263  1.00  0.00     0.100 A 
HETATM   10  C9  UNL     1      28.439  24.568   9.817  1.00  0.00     0.000 A 
HETATM   11  N1  UNL     1      28.843  23.306  12.212  1.00  0.00    -0.374 N 
HETATM   12  C7  UNL     1      27.676  23.939  12.025  1.00  0.00     0.088 A 
ATOM     13  H1  UNL     1      29.013  22.829  13.098  1.00  0.00     0.164 HD
HETATM   14  C8  UNL     1      27.487  24.570  10.812  1.00  0.00     0.031 A 
ENDBRANCH   2   4
BRANCH   2  15
HETATM   15  N2  UNL     1      25.462  24.922   8.145  1.00  0.00    -0.305 N 
HETATM   16  C10 UNL     1      24.418  24.950   9.102  1.00  0.00     0.137 C 
HETATM   17  C11 UNL     1      23.120  25.521   8.567  1.00  0.00     0.048 C 
HETATM   18  C12 UNL     1      22.501  24.696   7.499  1.00  0.00     0.234 C 
HETATM   19  N3  UNL     1      23.062  23.395   7.329  1.00  0.00    -0.074 N 
HETATM   20  C13 UNL     1      24.327  23.370   6.655  1.00  0.00     0.252 C 
ATOM     21  H32 UNL     1      23.131  22.920   8.228  1.00  0.00     0.277 HD
ATOM     22  H31 UNL     1      22.397  22.783   6.857  1.00  0.00     0.277 HD
HETATM   23  C14 UNL     1      25.062  24.696   6.796  1.00  0.00     0.163 C 
ENDBRANCH   2  15
TORSDOF 2
ENDMDL
