MODEL 2
REMARK VINA RESULT: -10.600788720      0.411      1.285
REMARK  3 active torsions:
REMARK  status: ('A' for Active; 'I' for Inactive)
REMARK    1  A    between atoms: N1_4  and  C4_5 
REMARK    2  A    between atoms: C7_9  and  C8_10 
REMARK    3  A    between atoms: C7_9  and  P1_16 
ROOT
HETATM    1  C4  UNL     1      10.327  41.981  24.697  1.00  0.00     0.235 C 
HETATM    2  C5  UNL     1      10.074  41.409  26.055  1.00  0.00     0.089 C 
HETATM    3  C6  UNL     1      11.407  41.803  26.715  1.00  0.00     0.161 C 
HETATM    4  O1  UNL     1      11.639  41.196  27.880  1.00  0.00    -0.332 OA
HETATM    5  C7  UNL     1      12.477  40.096  27.913  1.00  0.00     0.312 C 
HETATM    6  O5  UNL     1      12.265  39.392  26.746  1.00  0.00    -0.338 OA
HETATM    7  C14 UNL     1      12.558  40.011  25.574  1.00  0.00     0.207 C 
HETATM    8  C15 UNL     1      12.330  41.504  25.578  1.00  0.00     0.177 C 
HETATM    9  O6  UNL     1      11.670  41.928  24.434  1.00  0.00    -0.356 OA
ENDROOT
BRANCH   1  10
HETATM   10  N1  UNL     1       9.602  41.328  23.642  1.00  0.00    -0.282 N 
HETATM   11  C3  UNL     1       9.128  40.086  23.857  1.00  0.00     0.110 A 
HETATM   12  C2  UNL     1       8.421  39.376  22.910  1.00  0.00     0.022 A 
HETATM   13  C1  UNL     1       7.897  38.004  23.147  1.00  0.00     0.056 C 
HETATM   14  C17 UNL     1       8.185  39.956  21.681  1.00  0.00     0.256 A 
HETATM   15  N2  UNL     1       8.671  41.205  21.486  1.00  0.00    -0.275 N 
HETATM   16  O8  UNL     1       7.546  39.365  20.766  1.00  0.00    -0.267 OA
HETATM   17  C16 UNL     1       9.359  41.869  22.437  1.00  0.00     0.331 A 
ATOM     18  H2  UNL     1       8.513  41.659  20.587  1.00  0.00     0.173 HD
HETATM   19  O7  UNL     1       9.812  43.039  22.248  1.00  0.00    -0.246 OA
ENDBRANCH   1  10
BRANCH   5  20
HETATM   20  C8  UNL     1      11.910  39.249  29.006  1.00  0.00     0.018 A 
HETATM   21  C9  UNL     1      11.012  38.228  28.762  1.00  0.00     0.013 A 
HETATM   22  C10 UNL     1      10.562  37.491  29.823  1.00  0.00     0.001 A 
HETATM   23  C11 UNL     1      10.975  37.734  31.130  1.00  0.00     0.000 A 
HETATM   24  C12 UNL     1      11.872  38.752  31.382  1.00  0.00     0.001 A 
HETATM   25  C13 UNL     1      12.317  39.488  30.298  1.00  0.00     0.013 A 
ENDBRANCH   5  20
BRANCH   5  26
HETATM   26  P1  UNL     1      14.167  40.323  28.239  1.00  0.00     0.330 P 
HETATM   27  O2  UNL     1      14.934  39.163  29.257  1.00  0.00    -0.636 OA
HETATM   28  O3  UNL     1      14.661  39.434  27.077  1.00  0.00    -0.636 OA
HETATM   29  O4  UNL     1      15.033  41.618  27.785  1.00  0.00    -0.636 OA
ENDBRANCH   5  26
TORSDOF 3
ENDMDL
