MODEL 4
REMARK VINA RESULT: -10.210840149      4.515      6.982
REMARK  3 active torsions:
REMARK  status: ('A' for Active; 'I' for Inactive)
REMARK    1  A    between atoms: N1_4  and  C4_5 
REMARK    2  A    between atoms: C7_9  and  C8_10 
REMARK    3  A    between atoms: C7_9  and  P1_16 
ROOT
HETATM    1  C4  UNL     1      16.369  39.522  24.412  1.00  0.00     0.235 C 
HETATM    2  C5  UNL     1      15.201  38.918  25.123  1.00  0.00     0.089 C 
HETATM    3  C6  UNL     1      14.270  40.142  25.101  1.00  0.00     0.161 C 
HETATM    4  O1  UNL     1      13.215  40.039  25.912  1.00  0.00    -0.332 OA
HETATM    5  C7  UNL     1      13.248  40.662  27.147  1.00  0.00     0.312 C 
HETATM    6  O5  UNL     1      14.544  40.570  27.611  1.00  0.00    -0.338 OA
HETATM    7  C14 UNL     1      15.517  41.184  26.890  1.00  0.00     0.207 C 
HETATM    8  C15 UNL     1      15.274  41.209  25.400  1.00  0.00     0.177 C 
HETATM    9  O6  UNL     1      16.413  40.864  24.686  1.00  0.00    -0.356 OA
ENDROOT
BRANCH   1  10
HETATM   10  N1  UNL     1      17.632  38.921  24.743  1.00  0.00    -0.282 N 
HETATM   11  C3  UNL     1      17.772  38.335  25.948  1.00  0.00     0.110 A 
HETATM   12  C2  UNL     1      18.941  37.732  26.359  1.00  0.00     0.022 A 
HETATM   13  C1  UNL     1      19.097  37.084  27.690  1.00  0.00     0.056 C 
HETATM   14  C17 UNL     1      20.024  37.723  25.505  1.00  0.00     0.256 A 
HETATM   15  N2  UNL     1      19.862  38.318  24.299  1.00  0.00    -0.275 N 
HETATM   16  O8  UNL     1      21.126  37.189  25.814  1.00  0.00    -0.267 OA
HETATM   17  C16 UNL     1      18.701  38.899  23.931  1.00  0.00     0.331 A 
ATOM     18  H2  UNL     1      20.644  38.328  23.646  1.00  0.00     0.173 HD
HETATM   19  O7  UNL     1      18.555  39.455  22.800  1.00  0.00    -0.246 OA
ENDBRANCH   1  10
BRANCH   5  20
HETATM   20  C8  UNL     1      12.439  39.761  28.022  1.00  0.00     0.018 A 
HETATM   21  C9  UNL     1      12.738  39.560  29.356  1.00  0.00     0.013 A 
HETATM   22  C10 UNL     1      11.929  38.733  30.086  1.00  0.00     0.001 A 
HETATM   23  C11 UNL     1      10.823  38.092  29.534  1.00  0.00     0.000 A 
HETATM   24  C12 UNL     1      10.518  38.286  28.202  1.00  0.00     0.001 A 
HETATM   25  C13 UNL     1      11.347  39.126  27.477  1.00  0.00     0.013 A 
ENDBRANCH   5  20
BRANCH   5  26
HETATM   26  P1  UNL     1      12.612  42.269  27.307  1.00  0.00     0.330 P 
HETATM   27  O2  UNL     1      10.943  42.494  26.944  1.00  0.00    -0.636 OA
HETATM   28  O3  UNL     1      12.135  42.093  28.765  1.00  0.00    -0.636 OA
HETATM   29  O4  UNL     1      13.500  43.590  27.622  1.00  0.00    -0.636 OA
ENDBRANCH   5  26
TORSDOF 3
ENDMDL
