MODEL 1
REMARK VINA RESULT: -11.105083457      0.000      0.000
REMARK  3 active torsions:
REMARK  status: ('A' for Active; 'I' for Inactive)
REMARK    1  A    between atoms: N1_4  and  C4_5 
REMARK    2  A    between atoms: C7_9  and  C8_10 
REMARK    3  A    between atoms: C7_9  and  P1_16 
ROOT
HETATM    1  C4  UNL     1      10.391  41.981  24.510  1.00  0.00     0.235 C 
HETATM    2  C5  UNL     1      10.160  41.469  25.895  1.00  0.00     0.089 C 
HETATM    3  C6  UNL     1      11.540  41.799  26.488  1.00  0.00     0.161 C 
HETATM    4  O1  UNL     1      11.783  41.214  27.663  1.00  0.00    -0.332 OA
HETATM    5  C7  UNL     1      12.553  40.066  27.699  1.00  0.00     0.312 C 
HETATM    6  O5  UNL     1      12.251  39.341  26.566  1.00  0.00    -0.338 OA
HETATM    7  C14 UNL     1      12.532  39.904  25.363  1.00  0.00     0.207 C 
HETATM    8  C15 UNL     1      12.397  41.408  25.326  1.00  0.00     0.177 C 
HETATM    9  O6  UNL     1      11.716  41.837  24.196  1.00  0.00    -0.356 OA
ENDROOT
BRANCH   1  10
HETATM   10  N1  UNL     1       9.585  41.343  23.506  1.00  0.00    -0.282 N 
HETATM   11  C3  UNL     1       9.141  40.092  23.734  1.00  0.00     0.110 A 
HETATM   12  C2  UNL     1       8.363  39.395  22.835  1.00  0.00     0.022 A 
HETATM   13  C1  UNL     1       7.872  38.012  23.086  1.00  0.00     0.056 C 
HETATM   14  C17 UNL     1       8.018  39.997  21.643  1.00  0.00     0.256 A 
HETATM   15  N2  UNL     1       8.476  41.254  21.434  1.00  0.00    -0.275 N 
HETATM   16  O8  UNL     1       7.309  39.418  20.773  1.00  0.00    -0.267 OA
HETATM   17  C16 UNL     1       9.236  41.907  22.338  1.00  0.00     0.331 A 
ATOM     18  H2  UNL     1       8.237  41.725  20.562  1.00  0.00     0.173 HD
HETATM   19  O7  UNL     1       9.661  43.084  22.136  1.00  0.00    -0.246 OA
ENDBRANCH   1  10
BRANCH   5  20
HETATM   20  C8  UNL     1      11.981  39.290  28.841  1.00  0.00     0.018 A 
HETATM   21  C9  UNL     1      12.393  39.479  30.145  1.00  0.00     0.013 A 
HETATM   22  C10 UNL     1      11.799  38.737  31.129  1.00  0.00     0.001 A 
HETATM   23  C11 UNL     1      10.800  37.805  30.861  1.00  0.00     0.000 A 
HETATM   24  C12 UNL     1      10.382  37.610  29.560  1.00  0.00     0.001 A 
HETATM   25  C13 UNL     1      10.995  38.369  28.577  1.00  0.00     0.013 A 
ENDBRANCH   5  20
BRANCH   5  26
HETATM   26  P1  UNL     1      14.266  40.197  27.951  1.00  0.00     0.330 P 
HETATM   27  O2  UNL     1      15.219  40.723  26.615  1.00  0.00    -0.636 OA
HETATM   28  O3  UNL     1      14.241  41.689  28.350  1.00  0.00    -0.636 OA
HETATM   29  O4  UNL     1      15.045  39.720  29.291  1.00  0.00    -0.636 OA
ENDBRANCH   5  26
TORSDOF 3
ENDMDL
