MODEL 2
REMARK VINA RESULT: -8.680848118      4.358      5.699
REMARK  10 active torsions:
REMARK  status: ('A' for Active; 'I' for Inactive)
REMARK    1  A    between atoms: N5_13  and  C6_14 
REMARK    2  A    between atoms: C7_16  and  C8_17 
REMARK    3  A    between atoms: C8_17  and  S1_18 
REMARK    4  A    between atoms: S1_18  and  C9_19 
REMARK    5  A    between atoms: C9_19  and  C10_20 
REMARK    6  A    between atoms: C10_20  and  C11_21 
REMARK    7  A    between atoms: C11_21  and  N6_22 
REMARK    8  A    between atoms: C11_21  and  C12_26 
REMARK    9  A    between atoms: C13_29  and  O4_30 
REMARK   10  A    between atoms: C14_32  and  O5_33 
ROOT
HETATM    1  C6  UNL     1      17.341  35.455  24.119  1.00  0.00     0.262 C 
HETATM    2  O1  UNL     1      17.511  34.875  22.850  1.00  0.00    -0.355 OA
HETATM    3  C7  UNL     1      16.419  35.364  22.109  1.00  0.00     0.165 C 
HETATM    4  C13 UNL     1      16.255  36.796  22.553  1.00  0.00     0.180 C 
HETATM    5  C14 UNL     1      17.215  36.895  23.718  1.00  0.00     0.198 C 
ENDROOT
BRANCH   1   6
HETATM    6  N5  UNL     1      18.444  35.146  24.971  1.00  0.00    -0.297 N 
HETATM    7  C3  UNL     1      18.452  34.202  25.926  1.00  0.00     0.142 A 
HETATM    8  N3  UNL     1      17.533  33.325  26.363  1.00  0.00    -0.336 N 
HETATM    9  C4  UNL     1      19.722  34.239  26.502  1.00  0.00     0.119 A 
HETATM   10  C2  UNL     1      17.869  32.496  27.362  1.00  0.00     0.183 A 
ATOM     11  H3  UNL     1      16.603  33.291  25.946  1.00  0.00     0.168 HD
HETATM   12  N2  UNL     1      19.081  32.516  27.929  1.00  0.00    -0.339 N 
HETATM   13  C1  UNL     1      20.020  33.379  27.513  1.00  0.00     0.148 A 
ATOM     14  H2  UNL     1      19.295  31.866  28.686  1.00  0.00     0.167 HD
HETATM   15  N1  UNL     1      21.314  33.398  28.119  1.00  0.00    -0.080 NA
HETATM   16  N4  UNL     1      20.405  35.214  25.851  1.00  0.00    -0.346 N 
HETATM   17  C5  UNL     1      19.638  35.769  24.921  1.00  0.00     0.188 A 
ATOM     18  H4  UNL     1      21.369  35.481  26.049  1.00  0.00     0.167 HD
ENDBRANCH   1   6
BRANCH   5  19
HETATM   19  O5  UNL     1      16.730  37.722  24.720  1.00  0.00    -0.388 OA
ATOM     20  H5  UNL     1      16.414  38.562  24.411  1.00  0.00     0.210 HD
ENDBRANCH   5  19
BRANCH   3  21
HETATM   21  C8  UNL     1      16.791  35.357  20.657  1.00  0.00     0.108 C 
BRANCH  21  22
HETATM   22  S1  UNL     1      17.233  33.812  19.933  1.00  0.00    -0.166 SA
BRANCH  22  23
HETATM   23  C9  UNL     1      16.061  33.095  18.820  1.00  0.00     0.076 C 
BRANCH  23  24
HETATM   24  C10 UNL     1      16.681  32.300  17.707  1.00  0.00     0.054 C 
BRANCH  24  25
HETATM   25  C11 UNL     1      15.817  31.154  17.313  1.00  0.00     0.284 C 
BRANCH  25  26
HETATM   26  N6  UNL     1      14.773  30.889  18.252  1.00  0.00    -0.065 N 
ATOM     27  H63 UNL     1      15.045  31.182  19.191  1.00  0.00     0.275 HD
ATOM     28  H62 UNL     1      13.983  31.516  18.102  1.00  0.00     0.275 HD
ATOM     29  H61 UNL     1      14.468  29.915  18.249  1.00  0.00     0.275 HD
ENDBRANCH  25  26
BRANCH  25  30
HETATM   30  C12 UNL     1      16.568  29.921  17.037  1.00  0.00     0.204 C 
HETATM   31  O2  UNL     1      16.094  29.066  16.265  1.00  0.00    -0.646 OA
HETATM   32  O3  UNL     1      17.795  29.704  17.626  1.00  0.00    -0.646 OA
ENDBRANCH  25  30
ENDBRANCH  24  25
ENDBRANCH  23  24
ENDBRANCH  22  23
ENDBRANCH  21  22
ENDBRANCH   3  21
BRANCH   4  33
HETATM   33  O4  UNL     1      14.957  37.002  23.060  1.00  0.00    -0.390 OA
ATOM     34  H4  UNL     1      14.399  37.378  22.390  1.00  0.00     0.210 HD
ENDBRANCH   4  33
TORSDOF 10
ENDMDL
