MODEL 4
REMARK VINA RESULT: -8.442547326      0.787      1.915
REMARK  10 active torsions:
REMARK  status: ('A' for Active; 'I' for Inactive)
REMARK    1  A    between atoms: N5_13  and  C6_14 
REMARK    2  A    between atoms: C7_16  and  C8_17 
REMARK    3  A    between atoms: C8_17  and  S1_18 
REMARK    4  A    between atoms: S1_18  and  C9_19 
REMARK    5  A    between atoms: C9_19  and  C10_20 
REMARK    6  A    between atoms: C10_20  and  C11_21 
REMARK    7  A    between atoms: C11_21  and  N6_22 
REMARK    8  A    between atoms: C11_21  and  C12_26 
REMARK    9  A    between atoms: C13_29  and  O4_30 
REMARK   10  A    between atoms: C14_32  and  O5_33 
ROOT
HETATM    1  C6  UNL     1      18.385  35.762  25.854  1.00  0.00     0.262 C 
HETATM    2  O1  UNL     1      17.674  35.042  24.878  1.00  0.00    -0.355 OA
HETATM    3  C7  UNL     1      17.181  36.040  24.019  1.00  0.00     0.165 C 
HETATM    4  C13 UNL     1      18.292  37.055  23.919  1.00  0.00     0.180 C 
HETATM    5  C14 UNL     1      19.276  36.575  24.964  1.00  0.00     0.198 C 
ENDROOT
BRANCH   1   6
HETATM    6  N5  UNL     1      19.053  34.876  26.752  1.00  0.00    -0.297 N 
HETATM    7  C3  UNL     1      20.309  34.421  26.610  1.00  0.00     0.142 A 
HETATM    8  N3  UNL     1      21.260  34.616  25.683  1.00  0.00    -0.336 N 
HETATM    9  C4  UNL     1      20.552  33.595  27.708  1.00  0.00     0.119 A 
HETATM   10  C2  UNL     1      22.440  33.998  25.841  1.00  0.00     0.183 A 
ATOM     11  H3  UNL     1      21.091  35.220  24.879  1.00  0.00     0.168 HD
HETATM   12  N2  UNL     1      22.694  33.201  26.886  1.00  0.00    -0.339 N 
HETATM   13  C1  UNL     1      21.763  32.988  27.829  1.00  0.00     0.148 A 
ATOM     14  H2  UNL     1      23.605  32.750  26.968  1.00  0.00     0.167 HD
HETATM   15  N1  UNL     1      22.037  32.137  28.945  1.00  0.00    -0.080 NA
HETATM   16  N4  UNL     1      19.416  33.604  28.449  1.00  0.00    -0.346 N 
HETATM   17  C5  UNL     1      18.502  34.378  27.877  1.00  0.00     0.188 A 
ATOM     18  H4  UNL     1      19.283  33.091  29.320  1.00  0.00     0.167 HD
ENDBRANCH   1   6
BRANCH   5  19
HETATM   19  O5  UNL     1      19.907  37.630  25.604  1.00  0.00    -0.388 OA
ATOM     20  H5  UNL     1      19.761  38.475  25.196  1.00  0.00     0.210 HD
ENDBRANCH   5  19
BRANCH   3  21
HETATM   21  C8  UNL     1      16.966  35.437  22.664  1.00  0.00     0.108 C 
BRANCH  21  22
HETATM   22  S1  UNL     1      16.052  36.376  21.486  1.00  0.00    -0.166 SA
BRANCH  22  23
HETATM   23  C9  UNL     1      15.032  37.671  22.127  1.00  0.00     0.076 C 
BRANCH  23  24
HETATM   24  C10 UNL     1      13.759  37.885  21.360  1.00  0.00     0.054 C 
BRANCH  24  25
HETATM   25  C11 UNL     1      12.794  38.714  22.132  1.00  0.00     0.284 C 
BRANCH  25  26
HETATM   26  N6  UNL     1      11.798  37.939  22.803  1.00  0.00    -0.065 N 
ATOM     27  H63 UNL     1      10.987  37.791  22.202  1.00  0.00     0.275 HD
ATOM     28  H62 UNL     1      12.104  36.973  22.913  1.00  0.00     0.275 HD
ATOM     29  H61 UNL     1      11.517  38.336  23.700  1.00  0.00     0.275 HD
ENDBRANCH  25  26
BRANCH  25  30
HETATM   30  C12 UNL     1      12.155  39.769  21.333  1.00  0.00     0.204 C 
HETATM   31  O2  UNL     1      11.886  39.562  20.135  1.00  0.00    -0.646 OA
HETATM   32  O3  UNL     1      11.851  40.987  21.901  1.00  0.00    -0.646 OA
ENDBRANCH  25  30
ENDBRANCH  24  25
ENDBRANCH  23  24
ENDBRANCH  22  23
ENDBRANCH  21  22
ENDBRANCH   3  21
BRANCH   4  33
HETATM   33  O4  UNL     1      17.832  38.323  24.327  1.00  0.00    -0.390 OA
ATOM     34  H4  UNL     1      18.102  38.986  23.703  1.00  0.00     0.210 HD
ENDBRANCH   4  33
TORSDOF 10
ENDMDL
