MODEL 5
REMARK VINA RESULT: -8.377772613      4.575      6.373
REMARK  10 active torsions:
REMARK  status: ('A' for Active; 'I' for Inactive)
REMARK    1  A    between atoms: N5_13  and  C6_14 
REMARK    2  A    between atoms: C7_16  and  C8_17 
REMARK    3  A    between atoms: C8_17  and  S1_18 
REMARK    4  A    between atoms: S1_18  and  C9_19 
REMARK    5  A    between atoms: C9_19  and  C10_20 
REMARK    6  A    between atoms: C10_20  and  C11_21 
REMARK    7  A    between atoms: C11_21  and  N6_22 
REMARK    8  A    between atoms: C11_21  and  C12_26 
REMARK    9  A    between atoms: C13_29  and  O4_30 
REMARK   10  A    between atoms: C14_32  and  O5_33 
ROOT
HETATM    1  C6  UNL     1      18.248  36.021  23.944  1.00  0.00     0.262 C 
HETATM    2  O1  UNL     1      18.480  35.528  22.649  1.00  0.00    -0.355 OA
HETATM    3  C7  UNL     1      17.210  35.107  22.217  1.00  0.00     0.165 C 
HETATM    4  C13 UNL     1      16.253  36.146  22.748  1.00  0.00     0.180 C 
HETATM    5  C14 UNL     1      17.136  36.983  23.647  1.00  0.00     0.198 C 
ENDROOT
BRANCH   1   6
HETATM    6  N5  UNL     1      19.434  36.600  24.488  1.00  0.00    -0.297 N 
HETATM    7  C3  UNL     1      20.634  35.998  24.559  1.00  0.00     0.142 A 
HETATM    8  N3  UNL     1      21.081  34.787  24.191  1.00  0.00    -0.336 N 
HETATM    9  C4  UNL     1      21.498  36.920  25.151  1.00  0.00     0.119 A 
HETATM   10  C2  UNL     1      22.371  34.492  24.408  1.00  0.00     0.183 A 
ATOM     11  H3  UNL     1      20.456  34.109  23.756  1.00  0.00     0.168 HD
HETATM   12  N2  UNL     1      23.217  35.361  24.975  1.00  0.00    -0.339 N 
HETATM   13  C1  UNL     1      22.799  36.578  25.353  1.00  0.00     0.148 A 
ATOM     14  H2  UNL     1      24.191  35.094  25.121  1.00  0.00     0.167 HD
HETATM   15  N1  UNL     1      23.704  37.505  25.957  1.00  0.00    -0.080 NA
HETATM   16  N4  UNL     1      20.757  38.028  25.402  1.00  0.00    -0.346 N 
HETATM   17  C5  UNL     1      19.505  37.843  25.003  1.00  0.00     0.188 A 
ATOM     18  H4  UNL     1      21.111  38.881  25.835  1.00  0.00     0.167 HD
ENDBRANCH   1   6
BRANCH   5  19
HETATM   19  O5  UNL     1      16.456  37.428  24.771  1.00  0.00    -0.388 OA
ATOM     20  H5  UNL     1      16.289  36.752  25.416  1.00  0.00     0.210 HD
ENDBRANCH   5  19
BRANCH   3  21
HETATM   21  C8  UNL     1      17.177  35.154  20.719  1.00  0.00     0.108 C 
BRANCH  21  22
HETATM   22  S1  UNL     1      17.420  33.641  19.849  1.00  0.00    -0.166 SA
BRANCH  22  23
HETATM   23  C9  UNL     1      16.133  33.150  18.740  1.00  0.00     0.076 C 
BRANCH  23  24
HETATM   24  C10 UNL     1      16.618  32.407  17.529  1.00  0.00     0.054 C 
BRANCH  24  25
HETATM   25  C11 UNL     1      15.831  31.164  17.304  1.00  0.00     0.284 C 
BRANCH  25  26
HETATM   26  N6  UNL     1      14.890  30.898  18.347  1.00  0.00    -0.065 N 
ATOM     27  H63 UNL     1      14.689  29.900  18.409  1.00  0.00     0.275 HD
ATOM     28  H62 UNL     1      15.314  31.042  19.263  1.00  0.00     0.275 HD
ATOM     29  H61 UNL     1      14.029  31.438  18.257  1.00  0.00     0.275 HD
ENDBRANCH  25  26
BRANCH  25  30
HETATM   30  C12 UNL     1      16.663  29.977  17.065  1.00  0.00     0.204 C 
HETATM   31  O2  UNL     1      17.801  29.906  17.568  1.00  0.00    -0.646 OA
HETATM   32  O3  UNL     1      16.194  28.941  16.288  1.00  0.00    -0.646 OA
ENDBRANCH  25  30
ENDBRANCH  24  25
ENDBRANCH  23  24
ENDBRANCH  22  23
ENDBRANCH  21  22
ENDBRANCH   3  21
BRANCH   4  33
HETATM   33  O4  UNL     1      15.278  35.538  23.564  1.00  0.00    -0.390 OA
ATOM     34  H4  UNL     1      15.532  35.596  24.477  1.00  0.00     0.210 HD
ENDBRANCH   4  33
TORSDOF 10
ENDMDL
