MODEL 6
REMARK VINA RESULT: -8.377012096      4.317      5.929
REMARK  10 active torsions:
REMARK  status: ('A' for Active; 'I' for Inactive)
REMARK    1  A    between atoms: N5_13  and  C6_14 
REMARK    2  A    between atoms: C7_16  and  C8_17 
REMARK    3  A    between atoms: C8_17  and  S1_18 
REMARK    4  A    between atoms: S1_18  and  C9_19 
REMARK    5  A    between atoms: C9_19  and  C10_20 
REMARK    6  A    between atoms: C10_20  and  C11_21 
REMARK    7  A    between atoms: C11_21  and  N6_22 
REMARK    8  A    between atoms: C11_21  and  C12_26 
REMARK    9  A    between atoms: C13_29  and  O4_30 
REMARK   10  A    between atoms: C14_32  and  O5_33 
ROOT
HETATM    1  C6  UNL     1      17.030  35.169  24.193  1.00  0.00     0.262 C 
HETATM    2  O1  UNL     1      17.293  34.636  22.919  1.00  0.00    -0.355 OA
HETATM    3  C7  UNL     1      16.406  35.331  22.077  1.00  0.00     0.165 C 
HETATM    4  C13 UNL     1      16.398  36.746  22.600  1.00  0.00     0.180 C 
HETATM    5  C14 UNL     1      17.183  36.629  23.888  1.00  0.00     0.198 C 
ENDROOT
BRANCH   1   6
HETATM    6  N5  UNL     1      17.939  34.643  25.160  1.00  0.00    -0.297 N 
HETATM    7  C3  UNL     1      19.266  34.850  25.178  1.00  0.00     0.142 A 
HETATM    8  N3  UNL     1      20.102  35.541  24.386  1.00  0.00    -0.336 N 
HETATM    9  C4  UNL     1      19.754  34.161  26.289  1.00  0.00     0.119 A 
HETATM   10  C2  UNL     1      21.408  35.546  24.690  1.00  0.00     0.183 A 
ATOM     11  H3  UNL     1      19.753  36.049  23.574  1.00  0.00     0.168 HD
HETATM   12  N2  UNL     1      21.898  34.891  25.750  1.00  0.00    -0.339 N 
HETATM   13  C1  UNL     1      21.087  34.194  26.560  1.00  0.00     0.148 A 
ATOM     14  H2  UNL     1      22.899  34.923  25.944  1.00  0.00     0.167 HD
HETATM   15  N1  UNL     1      21.611  33.496  27.692  1.00  0.00    -0.080 NA
HETATM   16  N4  UNL     1      18.680  33.576  26.875  1.00  0.00    -0.346 N 
HETATM   17  C5  UNL     1      17.575  33.863  26.197  1.00  0.00     0.188 A 
ATOM     18  H4  UNL     1      18.716  32.998  27.714  1.00  0.00     0.167 HD
ENDBRANCH   1   6
BRANCH   5  19
HETATM   19  O5  UNL     1      16.688  37.470  24.874  1.00  0.00    -0.388 OA
ATOM     20  H5  UNL     1      15.864  37.885  24.652  1.00  0.00     0.210 HD
ENDBRANCH   5  19
BRANCH   3  21
HETATM   21  C8  UNL     1      16.978  35.342  20.691  1.00  0.00     0.108 C 
BRANCH  21  22
HETATM   22  S1  UNL     1      17.340  33.787  19.945  1.00  0.00    -0.166 SA
BRANCH  22  23
HETATM   23  C9  UNL     1      16.107  33.120  18.867  1.00  0.00     0.076 C 
BRANCH  23  24
HETATM   24  C10 UNL     1      16.663  32.393  17.676  1.00  0.00     0.054 C 
BRANCH  24  25
HETATM   25  C11 UNL     1      15.821  31.219  17.317  1.00  0.00     0.284 C 
BRANCH  25  26
HETATM   26  N6  UNL     1      14.781  30.962  18.263  1.00  0.00    -0.065 N 
ATOM     27  H63 UNL     1      14.360  31.833  18.586  1.00  0.00     0.275 HD
ATOM     28  H62 UNL     1      13.971  30.543  17.807  1.00  0.00     0.275 HD
ATOM     29  H61 UNL     1      15.088  30.392  19.052  1.00  0.00     0.275 HD
ENDBRANCH  25  26
BRANCH  25  30
HETATM   30  C12 UNL     1      16.595  29.993  17.077  1.00  0.00     0.204 C 
HETATM   31  O2  UNL     1      16.103  29.071  16.399  1.00  0.00    -0.646 OA
HETATM   32  O3  UNL     1      17.864  29.856  17.596  1.00  0.00    -0.646 OA
ENDBRANCH  25  30
ENDBRANCH  24  25
ENDBRANCH  23  24
ENDBRANCH  22  23
ENDBRANCH  21  22
ENDBRANCH   3  21
BRANCH   4  33
HETATM   33  O4  UNL     1      15.086  37.131  22.941  1.00  0.00    -0.390 OA
ATOM     34  H4  UNL     1      14.456  36.638  22.430  1.00  0.00     0.210 HD
ENDBRANCH   4  33
TORSDOF 10
ENDMDL
