MODEL 1
REMARK VINA RESULT: -9.095333654      0.000      0.000
REMARK  10 active torsions:
REMARK  status: ('A' for Active; 'I' for Inactive)
REMARK    1  A    between atoms: N5_13  and  C6_14 
REMARK    2  A    between atoms: C7_16  and  C8_17 
REMARK    3  A    between atoms: C8_17  and  S1_18 
REMARK    4  A    between atoms: S1_18  and  C9_19 
REMARK    5  A    between atoms: C9_19  and  C10_20 
REMARK    6  A    between atoms: C10_20  and  C11_21 
REMARK    7  A    between atoms: C11_21  and  N6_22 
REMARK    8  A    between atoms: C11_21  and  C12_26 
REMARK    9  A    between atoms: C13_29  and  O4_30 
REMARK   10  A    between atoms: C14_32  and  O5_33 
ROOT
HETATM    1  C6  UNL     1      18.649  35.766  25.506  1.00  0.00     0.262 C 
HETATM    2  O1  UNL     1      17.930  35.074  24.516  1.00  0.00    -0.355 OA
HETATM    3  C7  UNL     1      17.200  36.085  23.865  1.00  0.00     0.165 C 
HETATM    4  C13 UNL     1      18.139  37.264  23.797  1.00  0.00     0.180 C 
HETATM    5  C14 UNL     1      19.302  36.812  24.654  1.00  0.00     0.198 C 
ENDROOT
BRANCH   1   6
HETATM    6  N5  UNL     1      19.539  34.886  26.194  1.00  0.00    -0.297 N 
HETATM    7  C3  UNL     1      19.385  34.449  27.455  1.00  0.00     0.142 A 
HETATM    8  N3  UNL     1      18.452  34.661  28.397  1.00  0.00    -0.336 N 
HETATM    9  C4  UNL     1      20.473  33.616  27.714  1.00  0.00     0.119 A 
HETATM   10  C2  UNL     1      18.598  34.057  29.585  1.00  0.00     0.183 A 
ATOM     11  H3  UNL     1      17.653  35.268  28.214  1.00  0.00     0.168 HD
HETATM   12  N2  UNL     1      19.634  33.254  29.855  1.00  0.00    -0.339 N 
HETATM   13  C1  UNL     1      20.581  33.022  28.934  1.00  0.00     0.148 A 
ATOM     14  H2  UNL     1      19.705  32.814  30.773  1.00  0.00     0.167 HD
HETATM   15  N1  UNL     1      21.687  32.164  29.224  1.00  0.00    -0.080 NA
HETATM   16  N4  UNL     1      21.222  33.605  26.583  1.00  0.00    -0.346 N 
HETATM   17  C5  UNL     1      20.663  34.372  25.656  1.00  0.00     0.188 A 
ATOM     18  H4  UNL     1      22.089  33.082  26.462  1.00  0.00     0.167 HD
ENDBRANCH   1   6
BRANCH   5  19
HETATM   19  O5  UNL     1      19.855  37.863  25.371  1.00  0.00    -0.388 OA
ATOM     20  H5  UNL     1      20.800  37.819  25.457  1.00  0.00     0.210 HD
ENDBRANCH   5  19
BRANCH   3  21
HETATM   21  C8  UNL     1      16.905  35.633  22.466  1.00  0.00     0.108 C 
BRANCH  21  22
HETATM   22  S1  UNL     1      15.941  36.700  21.448  1.00  0.00    -0.166 SA
BRANCH  22  23
HETATM   23  C9  UNL     1      14.721  37.684  22.265  1.00  0.00     0.076 C 
BRANCH  23  24
HETATM   24  C10 UNL     1      13.512  37.983  21.426  1.00  0.00     0.054 C 
BRANCH  24  25
HETATM   25  C11 UNL     1      12.544  38.846  22.157  1.00  0.00     0.284 C 
BRANCH  25  26
HETATM   26  N6  UNL     1      11.440  38.119  22.699  1.00  0.00    -0.065 N 
ATOM     27  H63 UNL     1      11.074  37.453  22.019  1.00  0.00     0.275 HD
ATOM     28  H62 UNL     1      11.753  37.467  23.419  1.00  0.00     0.275 HD
ATOM     29  H61 UNL     1      10.698  38.722  23.055  1.00  0.00     0.275 HD
ENDBRANCH  25  26
BRANCH  25  30
HETATM   30  C12 UNL     1      12.056  39.982  21.364  1.00  0.00     0.204 C 
HETATM   31  O2  UNL     1      11.837  41.077  21.917  1.00  0.00    -0.646 OA
HETATM   32  O3  UNL     1      11.837  39.846  20.010  1.00  0.00    -0.646 OA
ENDBRANCH  25  30
ENDBRANCH  24  25
ENDBRANCH  23  24
ENDBRANCH  22  23
ENDBRANCH  21  22
ENDBRANCH   3  21
BRANCH   4  33
HETATM   33  O4  UNL     1      17.562  38.384  24.428  1.00  0.00    -0.390 OA
ATOM     34  H4  UNL     1      18.240  38.945  24.784  1.00  0.00     0.210 HD
ENDBRANCH   4  33
TORSDOF 10
ENDMDL
