MODEL 2
REMARK VINA RESULT: -9.737635500      1.516      2.034
REMARK  8 active torsions:
REMARK  status: ('A' for Active; 'I' for Inactive)
REMARK    1  A    between atoms: C9_12  and  O1_13 
REMARK    2  A    between atoms: O1_13  and  C10_14 
REMARK    3  A    between atoms: C11_17  and  O2_18 
REMARK    4  A    between atoms: O2_18  and  C12_19 
REMARK    5  A    between atoms: C14_21  and  C15_22 
REMARK    6  A    between atoms: C18_29  and  O3_30 
REMARK    7  A    between atoms: C20_34  and  N6_35 
REMARK    8  A    between atoms: C24_39  and  C25_40 
ROOT
HETATM    1  C10 UNL     1      13.419  37.737  15.503  1.00  0.00     0.191 A 
HETATM    2  N3  UNL     1      12.928  36.931  14.516  1.00  0.00    -0.312 N 
ATOM      3  H3  UNL     1      12.879  35.926  14.678  1.00  0.00     0.170 HD
HETATM    4  C11 UNL     1      12.508  37.420  13.347  1.00  0.00     0.192 A 
HETATM    5  C19 UNL     1      12.567  38.773  13.117  1.00  0.00     0.197 A 
HETATM    6  F1  UNL     1      12.138  39.225  11.936  1.00  0.00    -0.199 F 
HETATM    7  C20 UNL     1      13.053  39.660  14.069  1.00  0.00     0.117 A 
HETATM    8  C27 UNL     1      13.476  39.089  15.266  1.00  0.00     0.197 A 
HETATM    9  F2  UNL     1      13.958  39.927  16.207  1.00  0.00    -0.199 F 
ENDROOT
BRANCH   1  10
HETATM   10  O1  UNL     1      13.839  37.145  16.698  1.00  0.00    -0.291 OA
BRANCH  10  11
HETATM   11  C9  UNL     1      14.846  36.193  16.761  1.00  0.00     0.079 A 
HETATM   12  C8  UNL     1      16.087  36.375  16.233  1.00  0.00     0.037 A 
HETATM   13  C7  UNL     1      17.046  35.391  16.327  1.00  0.00     0.004 A 
HETATM   14  C6  UNL     1      16.770  34.200  16.958  1.00  0.00     0.015 A 
HETATM   15  C5  UNL     1      15.510  33.973  17.514  1.00  0.00     0.011 A 
HETATM   16  C4  UNL     1      15.314  32.684  18.141  1.00  0.00     0.117 A 
HETATM   17  C28 UNL     1      14.595  34.964  17.400  1.00  0.00     0.052 A 
HETATM   18  N1  UNL     1      14.256  32.253  18.826  1.00  0.00    -0.346 N 
HETATM   19  N2  UNL     1      16.231  31.665  18.144  1.00  0.00    -0.350 N 
HETATM   20  C1  UNL     1      12.997  32.888  19.166  1.00  0.00     0.157 C 
HETATM   21  C2  UNL     1      14.507  30.970  19.256  1.00  0.00     0.109 A 
HETATM   22  C3  UNL     1      15.760  30.624  18.812  1.00  0.00     0.107 A 
ATOM     23  H2  UNL     1      17.147  31.704  17.696  1.00  0.00     0.166 HD
ENDBRANCH  10  11
ENDBRANCH   1  10
BRANCH   4  24
HETATM   24  O2  UNL     1      12.020  36.566  12.384  1.00  0.00    -0.288 OA
BRANCH  24  25
HETATM   25  C12 UNL     1      12.802  36.072  11.357  1.00  0.00     0.112 A 
HETATM   26  C13 UNL     1      12.210  36.037  10.088  1.00  0.00     0.055 A 
HETATM   27  C14 UNL     1      12.893  35.566   8.992  1.00  0.00     0.007 A 
HETATM   28  C16 UNL     1      14.203  35.132   9.231  1.00  0.00     0.018 A 
HETATM   29  C17 UNL     1      14.790  35.162  10.469  1.00  0.00     0.040 A 
HETATM   30  C18 UNL     1      14.079  35.644  11.573  1.00  0.00     0.099 A 
BRANCH  27  31
HETATM   31  C15 UNL     1      12.336  35.504   7.657  1.00  0.00     0.120 C 
HETATM   32  N4  UNL     1      13.199  35.277   6.558  1.00  0.00    -0.082 NA
HETATM   33  N5  UNL     1      11.088  35.651   7.460  1.00  0.00    -0.387 N 
ATOM     34  H52 UNL     1      10.466  35.814   8.251  1.00  0.00     0.157 HD
ATOM     35  H51 UNL     1      10.696  35.607   6.519  1.00  0.00     0.157 HD
ENDBRANCH  27  31
BRANCH  30  36
HETATM   36  O3  UNL     1      14.674  35.665  12.805  1.00  0.00    -0.358 OA
ATOM     37  H3  UNL     1      15.465  35.178  13.007  1.00  0.00     0.217 HD
ENDBRANCH  30  36
ENDBRANCH  24  25
ENDBRANCH   4  24
BRANCH   7  38
HETATM   38  N6  UNL     1      13.112  41.049  13.830  1.00  0.00    -0.375 N 
HETATM   39  C21 UNL     1      14.314  41.607  13.286  1.00  0.00     0.123 C 
HETATM   40  C22 UNL     1      14.068  42.750  12.334  1.00  0.00     0.021 C 
HETATM   41  C23 UNL     1      13.075  43.736  12.850  1.00  0.00     0.019 C 
HETATM   42  C24 UNL     1      11.819  43.110  13.351  1.00  0.00     0.105 C 
HETATM   43  C26 UNL     1      11.975  41.861  14.141  1.00  0.00     0.138 C 
BRANCH  42  44
HETATM   44  C25 UNL     1      10.894  42.862  12.201  1.00  0.00     0.178 C 
HETATM   45  O4  UNL     1      10.127  41.868  12.167  1.00  0.00    -0.648 OA
HETATM   46  O5  UNL     1      10.845  43.729  11.111  1.00  0.00    -0.648 OA
ENDBRANCH  42  44
ENDBRANCH   7  38
TORSDOF 8
ENDMDL
