MODEL 3
REMARK VINA RESULT: -9.498205352      3.111      8.284
REMARK  8 active torsions:
REMARK  status: ('A' for Active; 'I' for Inactive)
REMARK    1  A    between atoms: C9_12  and  O1_13 
REMARK    2  A    between atoms: O1_13  and  C10_14 
REMARK    3  A    between atoms: C11_17  and  O2_18 
REMARK    4  A    between atoms: O2_18  and  C12_19 
REMARK    5  A    between atoms: C14_21  and  C15_22 
REMARK    6  A    between atoms: C18_29  and  O3_30 
REMARK    7  A    between atoms: C20_34  and  N6_35 
REMARK    8  A    between atoms: C24_39  and  C25_40 
ROOT
HETATM    1  C10 UNL     1      15.197  37.388  14.897  1.00  0.00     0.191 A 
HETATM    2  N3  UNL     1      15.396  36.836  16.130  1.00  0.00    -0.312 N 
ATOM      3  H3  UNL     1      15.298  35.827  16.242  1.00  0.00     0.170 HD
HETATM    4  C11 UNL     1      15.714  37.577  17.194  1.00  0.00     0.192 A 
HETATM    5  C19 UNL     1      15.849  38.937  17.057  1.00  0.00     0.197 A 
HETATM    6  F1  UNL     1      16.168  39.645  18.144  1.00  0.00    -0.199 F 
HETATM    7  C20 UNL     1      15.665  39.575  15.838  1.00  0.00     0.117 A 
HETATM    8  C27 UNL     1      15.334  38.749  14.768  1.00  0.00     0.197 A 
HETATM    9  F2  UNL     1      15.144  39.342  13.571  1.00  0.00    -0.199 F 
ENDROOT
BRANCH   1  10
HETATM   10  O1  UNL     1      14.866  36.541  13.835  1.00  0.00    -0.291 OA
BRANCH  10  11
HETATM   11  C9  UNL     1      13.707  36.680  13.086  1.00  0.00     0.079 A 
HETATM   12  C8  UNL     1      12.540  37.165  13.590  1.00  0.00     0.037 A 
HETATM   13  C7  UNL     1      11.421  37.280  12.794  1.00  0.00     0.004 A 
HETATM   14  C6  UNL     1      11.459  36.906  11.471  1.00  0.00     0.015 A 
HETATM   15  C5  UNL     1      12.637  36.404  10.914  1.00  0.00     0.011 A 
HETATM   16  C4  UNL     1      12.570  36.024   9.520  1.00  0.00     0.117 A 
HETATM   17  C28 UNL     1      13.714  36.307  11.729  1.00  0.00     0.052 A 
HETATM   18  N1  UNL     1      13.562  35.618   8.728  1.00  0.00    -0.346 N 
HETATM   19  N2  UNL     1      11.432  36.039   8.756  1.00  0.00    -0.350 N 
HETATM   20  C1  UNL     1      14.978  35.423   8.971  1.00  0.00     0.157 C 
HETATM   21  C2  UNL     1      13.049  35.377   7.474  1.00  0.00     0.109 A 
HETATM   22  C3  UNL     1      11.703  35.651   7.520  1.00  0.00     0.107 A 
ATOM     23  H2  UNL     1      10.509  36.311   9.092  1.00  0.00     0.166 HD
ENDBRANCH  10  11
ENDBRANCH   1  10
BRANCH   4  24
HETATM   24  O2  UNL     1      15.903  36.973  18.417  1.00  0.00    -0.288 OA
BRANCH  24  25
HETATM   25  C12 UNL     1      17.112  36.424  18.800  1.00  0.00     0.112 A 
HETATM   26  C13 UNL     1      17.962  37.252  19.545  1.00  0.00     0.055 A 
HETATM   27  C14 UNL     1      19.188  36.813  19.980  1.00  0.00     0.007 A 
HETATM   28  C16 UNL     1      19.523  35.497  19.633  1.00  0.00     0.018 A 
HETATM   29  C17 UNL     1      18.698  34.680  18.905  1.00  0.00     0.040 A 
HETATM   30  C18 UNL     1      17.453  35.146  18.469  1.00  0.00     0.099 A 
BRANCH  27  31
HETATM   31  C15 UNL     1      20.111  37.620  20.751  1.00  0.00     0.120 C 
HETATM   32  N4  UNL     1      19.659  38.242  21.939  1.00  0.00    -0.082 NA
HETATM   33  N5  UNL     1      21.316  37.777  20.375  1.00  0.00    -0.387 N 
ATOM     34  H52 UNL     1      21.642  37.328  19.520  1.00  0.00     0.157 HD
ATOM     35  H51 UNL     1      21.966  38.346  20.918  1.00  0.00     0.157 HD
ENDBRANCH  27  31
BRANCH  30  36
HETATM   36  O3  UNL     1      16.640  34.322  17.739  1.00  0.00    -0.358 OA
ATOM     37  H3  UNL     1      16.480  33.415  17.970  1.00  0.00     0.217 HD
ENDBRANCH  30  36
ENDBRANCH  24  25
ENDBRANCH   4  24
BRANCH   7  38
HETATM   38  N6  UNL     1      15.805  40.973  15.700  1.00  0.00    -0.375 N 
HETATM   39  C21 UNL     1      14.732  41.820  16.125  1.00  0.00     0.123 C 
HETATM   40  C22 UNL     1      15.197  43.122  16.727  1.00  0.00     0.021 C 
HETATM   41  C23 UNL     1      16.267  43.786  15.925  1.00  0.00     0.019 C 
HETATM   42  C24 UNL     1      17.388  42.876  15.558  1.00  0.00     0.105 C 
HETATM   43  C26 UNL     1      17.009  41.502  15.137  1.00  0.00     0.138 C 
BRANCH  42  44
HETATM   44  C25 UNL     1      18.360  42.801  16.693  1.00  0.00     0.178 C 
HETATM   45  O4  UNL     1      19.209  43.703  16.901  1.00  0.00    -0.648 OA
HETATM   46  O5  UNL     1      18.364  41.722  17.573  1.00  0.00    -0.648 OA
ENDBRANCH  42  44
ENDBRANCH   7  38
TORSDOF 8
ENDMDL
