MODEL 1
REMARK VINA RESULT: -9.805900013      0.000      0.000
REMARK  8 active torsions:
REMARK  status: ('A' for Active; 'I' for Inactive)
REMARK    1  A    between atoms: C9_12  and  O1_13 
REMARK    2  A    between atoms: O1_13  and  C10_14 
REMARK    3  A    between atoms: C11_17  and  O2_18 
REMARK    4  A    between atoms: O2_18  and  C12_19 
REMARK    5  A    between atoms: C14_21  and  C15_22 
REMARK    6  A    between atoms: C18_29  and  O3_30 
REMARK    7  A    between atoms: C20_34  and  N6_35 
REMARK    8  A    between atoms: C24_39  and  C25_40 
ROOT
HETATM    1  C10 UNL     1      13.417  37.639  15.518  1.00  0.00     0.191 A 
HETATM    2  N3  UNL     1      12.901  36.888  14.501  1.00  0.00    -0.312 N 
ATOM      3  H3  UNL     1      12.797  35.882  14.633  1.00  0.00     0.170 HD
HETATM    4  C11 UNL     1      12.528  37.430  13.340  1.00  0.00     0.192 A 
HETATM    5  C19 UNL     1      12.662  38.785  13.150  1.00  0.00     0.197 A 
HETATM    6  F1  UNL     1      12.278  39.291  11.975  1.00  0.00    -0.199 F 
HETATM    7  C20 UNL     1      13.177  39.617  14.134  1.00  0.00     0.117 A 
HETATM    8  C27 UNL     1      13.549  38.992  15.321  1.00  0.00     0.197 A 
HETATM    9  F2  UNL     1      14.058  39.776  16.293  1.00  0.00    -0.199 F 
ENDROOT
BRANCH   1  10
HETATM   10  O1  UNL     1      13.783  36.992  16.702  1.00  0.00    -0.291 OA
BRANCH  10  11
HETATM   11  C9  UNL     1      14.789  36.039  16.767  1.00  0.00     0.079 A 
HETATM   12  C8  UNL     1      16.014  36.200  16.195  1.00  0.00     0.037 A 
HETATM   13  C7  UNL     1      16.974  35.216  16.294  1.00  0.00     0.004 A 
HETATM   14  C6  UNL     1      16.714  34.048  16.973  1.00  0.00     0.015 A 
HETATM   15  C5  UNL     1      15.471  33.844  17.574  1.00  0.00     0.011 A 
HETATM   16  C4  UNL     1      15.291  32.578  18.250  1.00  0.00     0.117 A 
HETATM   17  C28 UNL     1      14.555  34.834  17.454  1.00  0.00     0.052 A 
HETATM   18  N1  UNL     1      14.253  32.173  18.981  1.00  0.00    -0.346 N 
HETATM   19  N2  UNL     1      16.205  31.556  18.260  1.00  0.00    -0.350 N 
HETATM   20  C1  UNL     1      13.007  32.824  19.337  1.00  0.00     0.157 C 
HETATM   21  C2  UNL     1      14.513  30.905  19.446  1.00  0.00     0.109 A 
HETATM   22  C3  UNL     1      15.752  30.540  18.977  1.00  0.00     0.107 A 
ATOM     23  H2  UNL     1      17.107  31.577  17.783  1.00  0.00     0.166 HD
ENDBRANCH  10  11
ENDBRANCH   1  10
BRANCH   4  24
HETATM   24  O2  UNL     1      12.013  36.631  12.345  1.00  0.00    -0.288 OA
BRANCH  24  25
HETATM   25  C12 UNL     1      12.787  36.119  11.321  1.00  0.00     0.112 A 
HETATM   26  C13 UNL     1      12.193  36.078  10.054  1.00  0.00     0.055 A 
HETATM   27  C14 UNL     1      12.867  35.589   8.961  1.00  0.00     0.007 A 
HETATM   28  C16 UNL     1      14.173  35.142   9.202  1.00  0.00     0.018 A 
HETATM   29  C17 UNL     1      14.763  35.177  10.438  1.00  0.00     0.040 A 
HETATM   30  C18 UNL     1      14.059  35.678  11.539  1.00  0.00     0.099 A 
BRANCH  27  31
HETATM   31  C15 UNL     1      12.308  35.519   7.628  1.00  0.00     0.120 C 
HETATM   32  N4  UNL     1      13.159  35.231   6.535  1.00  0.00    -0.082 NA
HETATM   33  N5  UNL     1      11.067  35.714   7.427  1.00  0.00    -0.387 N 
ATOM     34  H52 UNL     1      10.453  35.922   8.215  1.00  0.00     0.157 HD
ATOM     35  H51 UNL     1      10.672  35.666   6.487  1.00  0.00     0.157 HD
ENDBRANCH  27  31
BRANCH  30  36
HETATM   36  O3  UNL     1      14.657  35.704  12.770  1.00  0.00    -0.358 OA
ATOM     37  H3  UNL     1      15.563  35.454  12.911  1.00  0.00     0.217 HD
ENDBRANCH  30  36
ENDBRANCH  24  25
ENDBRANCH   4  24
BRANCH   7  38
HETATM   38  N6  UNL     1      13.314  41.008  13.936  1.00  0.00    -0.375 N 
HETATM   39  C21 UNL     1      12.275  41.878  14.396  1.00  0.00     0.123 C 
HETATM   40  C22 UNL     1      12.783  43.198  14.918  1.00  0.00     0.021 C 
HETATM   41  C23 UNL     1      13.802  43.825  14.026  1.00  0.00     0.019 C 
HETATM   42  C24 UNL     1      14.893  42.895  13.622  1.00  0.00     0.105 C 
HETATM   43  C26 UNL     1      14.483  41.508  13.278  1.00  0.00     0.138 C 
BRANCH  42  44
HETATM   44  C25 UNL     1      15.936  42.855  14.695  1.00  0.00     0.178 C 
HETATM   45  O4  UNL     1      16.373  43.901  15.235  1.00  0.00    -0.648 OA
HETATM   46  O5  UNL     1      16.468  41.648  15.144  1.00  0.00    -0.648 OA
ENDBRANCH  42  44
ENDBRANCH   7  38
TORSDOF 8
ENDMDL
