MODEL 10
REMARK VINA RESULT: -8.398581312      2.059      2.455
REMARK  6 active torsions:
REMARK  status: ('A' for Active; 'I' for Inactive)
REMARK    1  A    between atoms: C4_5  and  O1_6 
REMARK    2  A    between atoms: O1_6  and  C5_7 
REMARK    3  A    between atoms: C9_11  and  C10_12 
REMARK    4  A    between atoms: C12_20  and  O2_21 
REMARK    5  A    between atoms: O2_21  and  C13_22 
REMARK    6  A    between atoms: C17_26  and  C18_27 
ROOT
HETATM    1  C1  UNL     1      10.747  27.820  20.983  1.00  0.00     0.055 C 
HETATM    2  C2  UNL     1      11.060  26.475  20.427  1.00  0.00     0.024 A 
HETATM    3  C3  UNL     1      12.349  26.185  20.010  1.00  0.00     0.176 A 
HETATM    4  F1  UNL     1      13.301  27.165  20.130  1.00  0.00    -0.201 F 
HETATM    5  C4  UNL     1      12.635  24.944  19.498  1.00  0.00     0.190 A 
HETATM    6  N3  UNL     1      11.651  24.040  19.413  1.00  0.00    -0.312 N 
ATOM      7  H3  UNL     1      11.876  23.121  19.031  1.00  0.00     0.170 HD
HETATM    8  C12 UNL     1      10.387  24.269  19.801  1.00  0.00     0.190 A 
HETATM    9  C20 UNL     1      10.089  25.512  20.317  1.00  0.00     0.176 A 
HETATM   10  F2  UNL     1       8.821  25.823  20.735  1.00  0.00    -0.201 F 
ENDROOT
BRANCH   5  11
HETATM   11  O1  UNL     1      13.913  24.657  19.086  1.00  0.00    -0.291 OA
BRANCH  11  12
HETATM   12  C5  UNL     1      14.332  24.845  17.755  1.00  0.00     0.078 A 
HETATM   13  C6  UNL     1      13.432  25.085  16.742  1.00  0.00     0.037 A 
HETATM   14  C7  UNL     1      13.914  25.262  15.453  1.00  0.00     0.004 A 
HETATM   15  C8  UNL     1      15.272  25.203  15.161  1.00  0.00     0.015 A 
HETATM   16  C9  UNL     1      16.169  24.966  16.159  1.00  0.00     0.007 A 
HETATM   17  C11 UNL     1      15.659  24.790  17.455  1.00  0.00     0.052 A 
BRANCH  16  18
HETATM   18  C10 UNL     1      17.603  24.891  15.921  1.00  0.00     0.120 C 
HETATM   19  N1  UNL     1      18.065  24.073  14.859  1.00  0.00    -0.082 NA
HETATM   20  N2  UNL     1      18.428  25.542  16.644  1.00  0.00    -0.387 N 
ATOM     21  H22 UNL     1      18.096  26.130  17.408  1.00  0.00     0.157 HD
ATOM     22  H21 UNL     1      19.432  25.490  16.477  1.00  0.00     0.157 HD
ENDBRANCH  16  18
ENDBRANCH  11  12
ENDBRANCH   5  11
BRANCH   8  23
HETATM   23  O2  UNL     1       9.404  23.293  19.689  1.00  0.00    -0.291 OA
BRANCH  23  24
HETATM   24  C13 UNL     1       9.539  22.042  20.265  1.00  0.00     0.078 A 
HETATM   25  C14 UNL     1       9.986  21.954  21.567  1.00  0.00     0.037 A 
HETATM   26  C15 UNL     1      10.121  20.711  22.144  1.00  0.00     0.004 A 
HETATM   27  C16 UNL     1       9.803  19.560  21.400  1.00  0.00     0.015 A 
HETATM   28  C17 UNL     1       9.359  19.655  20.106  1.00  0.00     0.007 A 
HETATM   29  C19 UNL     1       9.224  20.929  19.525  1.00  0.00     0.052 A 
BRANCH  28  30
HETATM   30  C18 UNL     1       9.034  18.470  19.348  1.00  0.00     0.120 C 
HETATM   31  N4  UNL     1       9.787  17.287  19.581  1.00  0.00    -0.082 NA
HETATM   32  N5  UNL     1       8.104  18.451  18.483  1.00  0.00    -0.387 N 
ATOM     33  H52 UNL     1       7.565  19.300  18.315  1.00  0.00     0.157 HD
ATOM     34  H51 UNL     1       7.875  17.614  17.947  1.00  0.00     0.157 HD
ENDBRANCH  28  30
ENDBRANCH  23  24
ENDBRANCH   8  23
TORSDOF 6
ENDMDL
