MODEL 20
REMARK VINA RESULT: -8.152974139      2.481      3.100
REMARK  6 active torsions:
REMARK  status: ('A' for Active; 'I' for Inactive)
REMARK    1  A    between atoms: C4_5  and  O1_6 
REMARK    2  A    between atoms: O1_6  and  C5_7 
REMARK    3  A    between atoms: C9_11  and  C10_12 
REMARK    4  A    between atoms: C12_20  and  O2_21 
REMARK    5  A    between atoms: O2_21  and  C13_22 
REMARK    6  A    between atoms: C17_26  and  C18_27 
ROOT
HETATM    1  C1  UNL     1       9.404  27.327  18.232  1.00  0.00     0.055 C 
HETATM    2  C2  UNL     1       9.984  26.032  18.683  1.00  0.00     0.024 A 
HETATM    3  C3  UNL     1      11.254  25.664  18.270  1.00  0.00     0.176 A 
HETATM    4  F1  UNL     1      11.938  26.523  17.449  1.00  0.00    -0.201 F 
HETATM    5  C4  UNL     1      11.785  24.469  18.688  1.00  0.00     0.190 A 
HETATM    6  N3  UNL     1      11.055  23.684  19.490  1.00  0.00    -0.312 N 
ATOM      7  H3  UNL     1      11.460  22.800  19.793  1.00  0.00     0.170 HD
HETATM    8  C12 UNL     1       9.820  23.992  19.918  1.00  0.00     0.190 A 
HETATM    9  C20 UNL     1       9.278  25.190  19.505  1.00  0.00     0.176 A 
HETATM   10  F2  UNL     1       8.023  25.575  19.900  1.00  0.00    -0.201 F 
ENDROOT
BRANCH   5  11
HETATM   11  O1  UNL     1      13.044  24.105  18.279  1.00  0.00    -0.291 OA
BRANCH  11  12
HETATM   12  C5  UNL     1      14.164  24.937  18.470  1.00  0.00     0.078 A 
HETATM   13  C6  UNL     1      14.297  25.721  19.594  1.00  0.00     0.037 A 
HETATM   14  C7  UNL     1      15.426  26.517  19.718  1.00  0.00     0.004 A 
HETATM   15  C8  UNL     1      16.418  26.545  18.743  1.00  0.00     0.015 A 
HETATM   16  C9  UNL     1      16.293  25.772  17.628  1.00  0.00     0.007 A 
HETATM   17  C11 UNL     1      15.143  24.975  17.524  1.00  0.00     0.052 A 
BRANCH  16  18
HETATM   18  C10 UNL     1      17.293  25.755  16.571  1.00  0.00     0.120 C 
HETATM   19  N1  UNL     1      17.803  24.501  16.150  1.00  0.00    -0.082 NA
HETATM   20  N2  UNL     1      17.705  26.836  16.034  1.00  0.00    -0.387 N 
ATOM     21  H22 UNL     1      17.340  27.739  16.337  1.00  0.00     0.157 HD
ATOM     22  H21 UNL     1      18.406  26.825  15.294  1.00  0.00     0.157 HD
ENDBRANCH  16  18
ENDBRANCH  11  12
ENDBRANCH   5  11
BRANCH   8  23
HETATM   23  O2  UNL     1       9.106  23.139  20.751  1.00  0.00    -0.291 OA
BRANCH  23  24
HETATM   24  C13 UNL     1       9.495  21.830  20.974  1.00  0.00     0.078 A 
HETATM   25  C14 UNL     1      10.261  21.544  22.085  1.00  0.00     0.037 A 
HETATM   26  C15 UNL     1      10.649  20.242  22.311  1.00  0.00     0.004 A 
HETATM   27  C16 UNL     1      10.262  19.233  21.409  1.00  0.00     0.015 A 
HETATM   28  C17 UNL     1       9.502  19.525  20.306  1.00  0.00     0.007 A 
HETATM   29  C19 UNL     1       9.108  20.858  20.084  1.00  0.00     0.052 A 
BRANCH  28  30
HETATM   30  C18 UNL     1       9.107  18.486  19.385  1.00  0.00     0.120 C 
HETATM   31  N4  UNL     1       9.844  17.270  19.377  1.00  0.00    -0.082 NA
HETATM   32  N5  UNL     1       8.130  18.622  18.585  1.00  0.00    -0.387 N 
ATOM     33  H52 UNL     1       7.602  19.495  18.591  1.00  0.00     0.157 HD
ATOM     34  H51 UNL     1       7.852  17.888  17.935  1.00  0.00     0.157 HD
ENDBRANCH  28  30
ENDBRANCH  23  24
ENDBRANCH   8  23
TORSDOF 6
ENDMDL
