MODEL 11
REMARK VINA RESULT: -8.380578530      3.576      7.301
REMARK  6 active torsions:
REMARK  status: ('A' for Active; 'I' for Inactive)
REMARK    1  A    between atoms: C4_5  and  O1_6 
REMARK    2  A    between atoms: O1_6  and  C5_7 
REMARK    3  A    between atoms: C9_11  and  C10_12 
REMARK    4  A    between atoms: C12_20  and  O2_21 
REMARK    5  A    between atoms: O2_21  and  C13_22 
REMARK    6  A    between atoms: C17_26  and  C18_27 
ROOT
HETATM    1  C1  UNL     1      12.701  25.933  20.344  1.00  0.00     0.055 C 
HETATM    2  C2  UNL     1      11.561  25.486  21.190  1.00  0.00     0.024 A 
HETATM    3  C3  UNL     1      10.775  24.421  20.781  1.00  0.00     0.176 A 
HETATM    4  F1  UNL     1      11.085  23.810  19.593  1.00  0.00    -0.201 F 
HETATM    5  C4  UNL     1       9.724  24.012  21.563  1.00  0.00     0.190 A 
HETATM    6  N3  UNL     1       9.484  24.658  22.710  1.00  0.00    -0.312 N 
ATOM      7  H3  UNL     1       8.701  24.344  23.283  1.00  0.00     0.170 HD
HETATM    8  C12 UNL     1      10.213  25.695  23.153  1.00  0.00     0.190 A 
HETATM    9  C20 UNL     1      11.271  26.114  22.375  1.00  0.00     0.176 A 
HETATM   10  F2  UNL     1      12.062  27.166  22.759  1.00  0.00    -0.201 F 
ENDROOT
BRANCH   5  11
HETATM   11  O1  UNL     1       8.946  22.955  21.157  1.00  0.00    -0.291 OA
BRANCH  11  12
HETATM   12  C5  UNL     1       9.358  21.618  21.310  1.00  0.00     0.078 A 
HETATM   13  C6  UNL     1      10.058  21.201  22.421  1.00  0.00     0.037 A 
HETATM   14  C7  UNL     1      10.433  19.868  22.507  1.00  0.00     0.004 A 
HETATM   15  C8  UNL     1      10.124  18.951  21.509  1.00  0.00     0.015 A 
HETATM   16  C9  UNL     1       9.433  19.356  20.407  1.00  0.00     0.007 A 
HETATM   17  C11 UNL     1       9.063  20.708  20.341  1.00  0.00     0.052 A 
BRANCH  16  18
HETATM   18  C10 UNL     1       9.079  18.447  19.327  1.00  0.00     0.120 C 
HETATM   19  N1  UNL     1       9.810  17.238  19.201  1.00  0.00    -0.082 NA
HETATM   20  N2  UNL     1       8.138  18.724  18.512  1.00  0.00    -0.387 N 
ATOM     21  H22 UNL     1       7.613  19.594  18.601  1.00  0.00     0.157 HD
ATOM     22  H21 UNL     1       7.890  18.087  17.755  1.00  0.00     0.157 HD
ENDBRANCH  16  18
ENDBRANCH  11  12
ENDBRANCH   5  11
BRANCH   8  23
HETATM   23  O2  UNL     1       9.919  26.330  24.354  1.00  0.00    -0.291 OA
BRANCH  23  24
HETATM   24  C13 UNL     1       9.375  25.655  25.432  1.00  0.00     0.078 A 
HETATM   25  C14 UNL     1      10.212  24.923  26.248  1.00  0.00     0.037 A 
HETATM   26  C15 UNL     1       9.675  24.250  27.323  1.00  0.00     0.004 A 
HETATM   27  C16 UNL     1       8.292  24.319  27.567  1.00  0.00     0.015 A 
HETATM   28  C17 UNL     1       7.465  25.048  26.751  1.00  0.00     0.007 A 
HETATM   29  C19 UNL     1       8.023  25.733  25.656  1.00  0.00     0.052 A 
BRANCH  28  30
HETATM   30  C18 UNL     1       6.046  25.115  27.007  1.00  0.00     0.120 C 
HETATM   31  N4  UNL     1       5.256  25.999  26.222  1.00  0.00    -0.082 NA
HETATM   32  N5  UNL     1       5.484  24.416  27.906  1.00  0.00    -0.387 N 
ATOM     33  H52 UNL     1       6.051  23.783  28.469  1.00  0.00     0.157 HD
ATOM     34  H51 UNL     1       4.481  24.464  28.086  1.00  0.00     0.157 HD
ENDBRANCH  28  30
ENDBRANCH  23  24
ENDBRANCH   8  23
TORSDOF 6
ENDMDL
