MODEL 8
REMARK VINA RESULT: -8.426093459      2.358      7.635
REMARK  6 active torsions:
REMARK  status: ('A' for Active; 'I' for Inactive)
REMARK    1  A    between atoms: C4_5  and  O1_6 
REMARK    2  A    between atoms: O1_6  and  C5_7 
REMARK    3  A    between atoms: C9_11  and  C10_12 
REMARK    4  A    between atoms: C12_20  and  O2_21 
REMARK    5  A    between atoms: O2_21  and  C13_22 
REMARK    6  A    between atoms: C17_26  and  C18_27 
ROOT
HETATM    1  C1  UNL     1      10.207  28.082  19.840  1.00  0.00     0.055 C 
HETATM    2  C2  UNL     1      10.579  26.653  19.647  1.00  0.00     0.024 A 
HETATM    3  C3  UNL     1       9.607  25.670  19.736  1.00  0.00     0.176 A 
HETATM    4  F1  UNL     1       8.319  26.059  20.002  1.00  0.00    -0.201 F 
HETATM    5  C4  UNL     1       9.954  24.353  19.557  1.00  0.00     0.190 A 
HETATM    6  N3  UNL     1      11.232  24.053  19.300  1.00  0.00    -0.312 N 
ATOM      7  H3  UNL     1      11.476  23.071  19.169  1.00  0.00     0.170 HD
HETATM    8  C12 UNL     1      12.212  24.965  19.204  1.00  0.00     0.190 A 
HETATM    9  C20 UNL     1      11.875  26.290  19.382  1.00  0.00     0.176 A 
HETATM   10  F2  UNL     1      12.820  27.280  19.299  1.00  0.00    -0.201 F 
ENDROOT
BRANCH   5  11
HETATM   11  O1  UNL     1       8.989  23.380  19.645  1.00  0.00    -0.291 OA
BRANCH  11  12
HETATM   12  C5  UNL     1       9.216  22.156  20.304  1.00  0.00     0.078 A 
HETATM   13  C6  UNL     1       9.575  22.108  21.632  1.00  0.00     0.037 A 
HETATM   14  C7  UNL     1       9.784  20.868  22.218  1.00  0.00     0.004 A 
HETATM   15  C8  UNL     1       9.641  19.683  21.505  1.00  0.00     0.015 A 
HETATM   16  C9  UNL     1       9.287  19.723  20.190  1.00  0.00     0.007 A 
HETATM   17  C11 UNL     1       9.080  20.988  19.618  1.00  0.00     0.052 A 
BRANCH  16  18
HETATM   18  C10 UNL     1       9.121  18.521  19.387  1.00  0.00     0.120 C 
HETATM   19  N1  UNL     1       9.898  17.381  19.719  1.00  0.00    -0.082 NA
HETATM   20  N2  UNL     1       8.302  18.486  18.410  1.00  0.00    -0.387 N 
ATOM     21  H22 UNL     1       7.744  19.305  18.172  1.00  0.00     0.157 HD
ATOM     22  H21 UNL     1       8.186  17.643  17.848  1.00  0.00     0.157 HD
ENDBRANCH  16  18
ENDBRANCH  11  12
ENDBRANCH   5  11
BRANCH   8  23
HETATM   23  O2  UNL     1      13.525  24.596  18.936  1.00  0.00    -0.291 OA
BRANCH  23  24
HETATM   24  C13 UNL     1      14.104  24.781  17.693  1.00  0.00     0.078 A 
HETATM   25  C14 UNL     1      13.284  24.971  16.600  1.00  0.00     0.037 A 
HETATM   26  C15 UNL     1      13.856  25.157  15.361  1.00  0.00     0.004 A 
HETATM   27  C16 UNL     1      15.257  25.149  15.233  1.00  0.00     0.015 A 
HETATM   28  C17 UNL     1      16.066  24.959  16.323  1.00  0.00     0.007 A 
HETATM   29  C19 UNL     1      15.472  24.770  17.586  1.00  0.00     0.052 A 
BRANCH  28  30
HETATM   30  C18 UNL     1      17.503  24.951  16.186  1.00  0.00     0.120 C 
HETATM   31  N4  UNL     1      18.073  24.303  15.056  1.00  0.00    -0.082 NA
HETATM   32  N5  UNL     1      18.270  25.501  17.036  1.00  0.00    -0.387 N 
ATOM     33  H52 UNL     1      17.860  25.965  17.846  1.00  0.00     0.157 HD
ATOM     34  H51 UNL     1      19.285  25.495  16.939  1.00  0.00     0.157 HD
ENDBRANCH  28  30
ENDBRANCH  23  24
ENDBRANCH   8  23
TORSDOF 6
ENDMDL
