MODEL 14
REMARK VINA RESULT: -8.313417907      3.505      6.524
REMARK  6 active torsions:
REMARK  status: ('A' for Active; 'I' for Inactive)
REMARK    1  A    between atoms: C4_5  and  O1_6 
REMARK    2  A    between atoms: O1_6  and  C5_7 
REMARK    3  A    between atoms: C9_11  and  C10_12 
REMARK    4  A    between atoms: C12_20  and  O2_21 
REMARK    5  A    between atoms: O2_21  and  C13_22 
REMARK    6  A    between atoms: C17_26  and  C18_27 
ROOT
HETATM    1  C1  UNL     1      12.174  25.900  19.227  1.00  0.00     0.055 C 
HETATM    2  C2  UNL     1      11.163  25.550  20.262  1.00  0.00     0.024 A 
HETATM    3  C3  UNL     1      11.008  26.359  21.375  1.00  0.00     0.176 A 
HETATM    4  F1  UNL     1      11.805  27.470  21.480  1.00  0.00    -0.201 F 
HETATM    5  C4  UNL     1      10.075  26.033  22.328  1.00  0.00     0.190 A 
HETATM    6  N3  UNL     1       9.335  24.932  22.154  1.00  0.00    -0.312 N 
ATOM      7  H3  UNL     1       8.645  24.700  22.868  1.00  0.00     0.170 HD
HETATM    8  C12 UNL     1       9.445  24.114  21.095  1.00  0.00     0.190 A 
HETATM    9  C20 UNL     1      10.378  24.432  20.132  1.00  0.00     0.176 A 
HETATM   10  F2  UNL     1      10.550  23.646  19.023  1.00  0.00    -0.201 F 
ENDROOT
BRANCH   5  11
HETATM   11  O1  UNL     1       9.922  26.836  23.431  1.00  0.00    -0.291 OA
BRANCH  11  12
HETATM   12  C5  UNL     1      10.302  26.419  24.721  1.00  0.00     0.078 A 
HETATM   13  C6  UNL     1      11.436  26.906  25.332  1.00  0.00     0.037 A 
HETATM   14  C7  UNL     1      11.751  26.452  26.604  1.00  0.00     0.004 A 
HETATM   15  C8  UNL     1      10.959  25.525  27.273  1.00  0.00     0.015 A 
HETATM   16  C9  UNL     1       9.835  25.038  26.674  1.00  0.00     0.007 A 
HETATM   17  C11 UNL     1       9.535  25.512  25.387  1.00  0.00     0.052 A 
BRANCH  16  18
HETATM   18  C10 UNL     1       8.964  24.067  27.318  1.00  0.00     0.120 C 
HETATM   19  N1  UNL     1       7.562  24.262  27.230  1.00  0.00    -0.082 NA
HETATM   20  N2  UNL     1       9.442  23.064  27.945  1.00  0.00    -0.387 N 
ATOM     21  H22 UNL     1      10.450  22.924  28.009  1.00  0.00     0.157 HD
ATOM     22  H21 UNL     1       8.831  22.383  28.396  1.00  0.00     0.157 HD
ENDBRANCH  16  18
ENDBRANCH  11  12
ENDBRANCH   5  11
BRANCH   8  23
HETATM   23  O2  UNL     1       8.649  22.982  20.966  1.00  0.00    -0.291 OA
BRANCH  23  24
HETATM   24  C13 UNL     1       9.154  21.703  21.123  1.00  0.00     0.078 A 
HETATM   25  C14 UNL     1       9.931  21.427  22.227  1.00  0.00     0.037 A 
HETATM   26  C15 UNL     1      10.435  20.155  22.388  1.00  0.00     0.004 A 
HETATM   27  C16 UNL     1      10.150  19.167  21.427  1.00  0.00     0.015 A 
HETATM   28  C17 UNL     1       9.377  19.449  20.331  1.00  0.00     0.007 A 
HETATM   29  C19 UNL     1       8.866  20.751  20.176  1.00  0.00     0.052 A 
BRANCH  28  30
HETATM   30  C18 UNL     1       9.088  18.431  19.349  1.00  0.00     0.120 C 
HETATM   31  N4  UNL     1       9.836  17.223  19.384  1.00  0.00    -0.082 NA
HETATM   32  N5  UNL     1       8.193  18.580  18.460  1.00  0.00    -0.387 N 
ATOM     33  H52 UNL     1       7.657  19.447  18.435  1.00  0.00     0.157 HD
ATOM     34  H51 UNL     1       7.989  17.861  17.766  1.00  0.00     0.157 HD
ENDBRANCH  28  30
ENDBRANCH  23  24
ENDBRANCH   8  23
TORSDOF 6
ENDMDL
