MODEL 1
REMARK VINA RESULT: -9.624928243      0.000      0.000
REMARK  6 active torsions:
REMARK  status: ('A' for Active; 'I' for Inactive)
REMARK    1  A    between atoms: C2_2  and  N2_6 
REMARK    2  A    between atoms: C5_9  and  O1_10 
REMARK    3  A    between atoms: O1_10  and  C6_11 
REMARK    4  A    between atoms: N3_21  and  C16_22 
REMARK    5  A    between atoms: C16_22  and  C17_23 
REMARK    6  A    between atoms: C23_29  and  C24_30 
ROOT
HETATM    1  C6  UNL     1      25.471   2.271  58.585  1.00  0.00     0.071 A 
HETATM    2  C7  UNL     1      25.675   3.585  58.944  1.00  0.00     0.038 A 
HETATM    3  C8  UNL     1      26.882   4.238  58.775  1.00  0.00     0.017 A 
HETATM    4  C9  UNL     1      27.951   3.560  58.222  1.00  0.00     0.003 A 
HETATM    5  C10 UNL     1      29.237   3.961  57.940  1.00  0.00     0.003 A 
HETATM    6  C11 UNL     1      29.927   5.164  58.104  1.00  0.00     0.014 A 
HETATM    7  C12 UNL     1      31.243   5.291  57.719  1.00  0.00     0.001 A 
HETATM    8  C13 UNL     1      31.857   4.187  57.167  1.00  0.00     0.002 A 
HETATM    9  C14 UNL     1      31.170   2.992  57.006  1.00  0.00     0.030 A 
HETATM   10  C15 UNL     1      29.838   2.851  57.390  1.00  0.00     0.046 A 
HETATM   11  N3  UNL     1      28.959   1.831  57.343  1.00  0.00    -0.341 N 
HETATM   12  C28 UNL     1      27.769   2.250  57.857  1.00  0.00     0.049 A 
HETATM   13  C29 UNL     1      26.561   1.594  58.024  1.00  0.00     0.067 A 
ENDROOT
BRANCH  11  14
HETATM   14  C16 UNL     1      29.180   0.509  56.849  1.00  0.00     0.168 C 
BRANCH  14  15
HETATM   15  C17 UNL     1      29.110   0.338  55.402  1.00  0.00    -0.039 A 
HETATM   16  C18 UNL     1      28.664   1.315  54.549  1.00  0.00     0.010 A 
HETATM   17  C19 UNL     1      28.617   1.110  53.165  1.00  0.00     0.013 A 
HETATM   18  C20 UNL     1      29.022  -0.091  52.627  1.00  0.00    -0.026 A 
HETATM   19  C21 UNL     1      28.992  -0.333  51.261  1.00  0.00     0.013 A 
HETATM   20  C26 UNL     1      29.469  -1.073  53.468  1.00  0.00    -0.025 A 
HETATM   21  C22 UNL     1      29.418  -1.570  50.803  1.00  0.00     0.015 A 
HETATM   22  C23 UNL     1      29.870  -2.564  51.643  1.00  0.00     0.005 A 
HETATM   23  C25 UNL     1      29.883  -2.275  53.013  1.00  0.00     0.027 A 
HETATM   24  C27 UNL     1      29.506  -0.847  54.830  1.00  0.00     0.021 A 
BRANCH  22  25
HETATM   25  C24 UNL     1      30.322  -3.863  51.172  1.00  0.00     0.120 C 
HETATM   26  N4  UNL     1      31.679  -3.966  50.691  1.00  0.00    -0.082 NA
HETATM   27  N5  UNL     1      29.572  -4.887  51.171  1.00  0.00    -0.387 N 
ATOM     28  H52 UNL     1      28.613  -4.815  51.511  1.00  0.00     0.157 HD
ATOM     29  H51 UNL     1      29.888  -5.799  50.841  1.00  0.00     0.157 HD
ENDBRANCH  22  25
ENDBRANCH  14  15
ENDBRANCH  11  14
BRANCH   1  30
HETATM   30  O1  UNL     1      24.272   1.605  58.745  1.00  0.00    -0.346 OA
BRANCH  30  31
HETATM   31  C5  UNL     1      23.274   1.421  57.798  1.00  0.00     0.132 C 
HETATM   32  C4  UNL     1      23.009   2.721  57.062  1.00  0.00     0.052 C 
HETATM   33  C3  UNL     1      22.061   2.465  55.936  1.00  0.00     0.126 C 
HETATM   34  N2  UNL     1      21.077   1.443  56.209  1.00  0.00    -0.371 N 
HETATM   35  C31 UNL     1      20.896   0.786  57.482  1.00  0.00     0.126 C 
HETATM   36  C30 UNL     1      21.951   1.067  58.492  1.00  0.00     0.052 C 
BRANCH  34  37
HETATM   37  C2  UNL     1      20.237   1.090  55.090  1.00  0.00     0.068 C 
HETATM   38  C1  UNL     1      20.432   1.653  53.746  1.00  0.00     0.088 C 
HETATM   39  N1  UNL     1      19.281   0.247  55.301  1.00  0.00    -0.389 N 
ATOM     40  H12 UNL     1      18.688  -0.003  54.510  1.00  0.00     0.157 HD
ATOM     41  H11 UNL     1      19.145  -0.145  56.233  1.00  0.00     0.157 HD
ENDBRANCH  34  37
ENDBRANCH  30  31
ENDBRANCH   1  30
TORSDOF 6
ENDMDL
