MODEL 3
REMARK VINA RESULT: -9.283671456      1.884      2.371
REMARK  6 active torsions:
REMARK  status: ('A' for Active; 'I' for Inactive)
REMARK    1  A    between atoms: C2_2  and  N2_6 
REMARK    2  A    between atoms: C5_9  and  O1_10 
REMARK    3  A    between atoms: O1_10  and  C6_11 
REMARK    4  A    between atoms: N3_21  and  C16_22 
REMARK    5  A    between atoms: C16_22  and  C17_23 
REMARK    6  A    between atoms: C23_29  and  C24_30 
ROOT
HETATM    1  C6  UNL     1      25.967   2.286  58.149  1.00  0.00     0.071 A 
HETATM    2  C7  UNL     1      26.719   2.232  59.302  1.00  0.00     0.038 A 
HETATM    3  C8  UNL     1      27.992   1.696  59.353  1.00  0.00     0.017 A 
HETATM    4  C9  UNL     1      28.560   1.182  58.202  1.00  0.00     0.003 A 
HETATM    5  C10 UNL     1      29.789   0.607  57.972  1.00  0.00     0.003 A 
HETATM    6  C11 UNL     1      30.889   0.329  58.786  1.00  0.00     0.014 A 
HETATM    7  C12 UNL     1      32.022  -0.265  58.277  1.00  0.00     0.001 A 
HETATM    8  C13 UNL     1      32.032  -0.578  56.935  1.00  0.00     0.002 A 
HETATM    9  C14 UNL     1      30.938  -0.302  56.128  1.00  0.00     0.030 A 
HETATM   10  C15 UNL     1      29.785   0.298  56.630  1.00  0.00     0.046 A 
HETATM   11  N3  UNL     1      28.613   0.669  56.079  1.00  0.00    -0.341 N 
HETATM   12  C28 UNL     1      27.828   1.227  57.042  1.00  0.00     0.049 A 
HETATM   13  C29 UNL     1      26.553   1.764  56.990  1.00  0.00     0.067 A 
ENDROOT
BRANCH  11  14
HETATM   14  C16 UNL     1      28.204   0.527  54.717  1.00  0.00     0.168 C 
BRANCH  14  15
HETATM   15  C17 UNL     1      29.226   0.081  53.777  1.00  0.00    -0.039 A 
HETATM   16  C18 UNL     1      30.243   0.887  53.331  1.00  0.00     0.010 A 
HETATM   17  C19 UNL     1      31.206   0.417  52.430  1.00  0.00     0.013 A 
HETATM   18  C20 UNL     1      31.150  -0.879  51.969  1.00  0.00    -0.026 A 
HETATM   19  C21 UNL     1      32.087  -1.384  51.077  1.00  0.00     0.013 A 
HETATM   20  C26 UNL     1      30.142  -1.693  52.406  1.00  0.00    -0.025 A 
HETATM   21  C22 UNL     1      31.958  -2.700  50.663  1.00  0.00     0.015 A 
HETATM   22  C23 UNL     1      30.945  -3.525  51.099  1.00  0.00     0.005 A 
HETATM   23  C25 UNL     1      30.024  -2.974  51.998  1.00  0.00     0.027 A 
HETATM   24  C27 UNL     1      29.203  -1.206  53.295  1.00  0.00     0.021 A 
BRANCH  22  25
HETATM   25  C24 UNL     1      30.803  -4.908  50.672  1.00  0.00     0.120 C 
HETATM   26  N4  UNL     1      31.821  -5.447  49.802  1.00  0.00    -0.082 NA
HETATM   27  N5  UNL     1      29.830  -5.638  51.035  1.00  0.00    -0.387 N 
ATOM     28  H52 UNL     1      29.111  -5.257  51.650  1.00  0.00     0.157 HD
ATOM     29  H51 UNL     1      29.730  -6.608  50.735  1.00  0.00     0.157 HD
ENDBRANCH  22  25
ENDBRANCH  14  15
ENDBRANCH  11  14
BRANCH   1  30
HETATM   30  O1  UNL     1      24.696   2.820  58.082  1.00  0.00    -0.346 OA
BRANCH  30  31
HETATM   31  C5  UNL     1      23.621   2.355  57.337  1.00  0.00     0.132 C 
HETATM   32  C4  UNL     1      22.897   3.520  56.687  1.00  0.00     0.052 C 
HETATM   33  C3  UNL     1      21.855   2.992  55.755  1.00  0.00     0.126 C 
HETATM   34  N2  UNL     1      21.237   1.761  56.191  1.00  0.00    -0.371 N 
HETATM   35  C31 UNL     1      21.472   1.122  57.463  1.00  0.00     0.126 C 
HETATM   36  C30 UNL     1      22.588   1.697  58.261  1.00  0.00     0.052 C 
BRANCH  34  37
HETATM   37  C2  UNL     1      20.323   1.169  55.244  1.00  0.00     0.068 C 
HETATM   38  C1  UNL     1      19.706  -0.147  55.458  1.00  0.00     0.088 C 
HETATM   39  N1  UNL     1      20.054   1.838  54.172  1.00  0.00    -0.389 N 
ATOM     40  H12 UNL     1      19.408   1.420  53.503  1.00  0.00     0.157 HD
ATOM     41  H11 UNL     1      20.482   2.752  54.023  1.00  0.00     0.157 HD
ENDBRANCH  34  37
ENDBRANCH  30  31
ENDBRANCH   1  30
TORSDOF 6
ENDMDL
