MODEL 4
REMARK VINA RESULT: -9.242942721      3.213      8.346
REMARK  6 active torsions:
REMARK  status: ('A' for Active; 'I' for Inactive)
REMARK    1  A    between atoms: C2_2  and  N2_6 
REMARK    2  A    between atoms: C5_9  and  O1_10 
REMARK    3  A    between atoms: O1_10  and  C6_11 
REMARK    4  A    between atoms: N3_21  and  C16_22 
REMARK    5  A    between atoms: C16_22  and  C17_23 
REMARK    6  A    between atoms: C23_29  and  C24_30 
ROOT
HETATM    1  C6  UNL     1      30.696   2.171  59.046  1.00  0.00     0.071 A 
HETATM    2  C7  UNL     1      31.469   1.122  58.600  1.00  0.00     0.038 A 
HETATM    3  C8  UNL     1      31.222   0.446  57.419  1.00  0.00     0.017 A 
HETATM    4  C9  UNL     1      30.153   0.825  56.630  1.00  0.00     0.003 A 
HETATM    5  C10 UNL     1      29.692   0.340  55.427  1.00  0.00     0.003 A 
HETATM    6  C11 UNL     1      30.114  -0.685  54.578  1.00  0.00     0.014 A 
HETATM    7  C12 UNL     1      29.451  -0.957  53.402  1.00  0.00     0.001 A 
HETATM    8  C13 UNL     1      28.354  -0.182  53.092  1.00  0.00     0.002 A 
HETATM    9  C14 UNL     1      27.936   0.836  53.937  1.00  0.00     0.030 A 
HETATM   10  C15 UNL     1      28.598   1.122  55.130  1.00  0.00     0.046 A 
HETATM   11  N3  UNL     1      28.408   2.032  56.104  1.00  0.00    -0.341 N 
HETATM   12  C28 UNL     1      29.370   1.868  57.055  1.00  0.00     0.049 A 
HETATM   13  C29 UNL     1      29.616   2.546  58.237  1.00  0.00     0.067 A 
ENDROOT
BRANCH  11  14
HETATM   14  C16 UNL     1      27.387   3.028  56.183  1.00  0.00     0.168 C 
BRANCH  14  15
HETATM   15  C17 UNL     1      26.139   2.628  56.822  1.00  0.00    -0.039 A 
HETATM   16  C18 UNL     1      26.020   2.408  58.171  1.00  0.00     0.010 A 
HETATM   17  C19 UNL     1      24.801   2.028  58.745  1.00  0.00     0.013 A 
HETATM   18  C20 UNL     1      23.684   1.866  57.956  1.00  0.00    -0.026 A 
HETATM   19  C21 UNL     1      22.457   1.493  58.486  1.00  0.00     0.013 A 
HETATM   20  C26 UNL     1      23.789   2.083  56.610  1.00  0.00    -0.025 A 
HETATM   21  C22 UNL     1      21.382   1.353  57.622  1.00  0.00     0.015 A 
HETATM   22  C23 UNL     1      21.481   1.570  56.265  1.00  0.00     0.005 A 
HETATM   23  C25 UNL     1      22.737   1.945  55.775  1.00  0.00     0.027 A 
HETATM   24  C27 UNL     1      25.003   2.457  56.067  1.00  0.00     0.021 A 
BRANCH  22  25
HETATM   25  C24 UNL     1      20.359   1.427  55.351  1.00  0.00     0.120 C 
HETATM   26  N4  UNL     1      19.644   0.172  55.360  1.00  0.00    -0.082 NA
HETATM   27  N5  UNL     1      19.998   2.354  54.563  1.00  0.00    -0.387 N 
ATOM     28  H52 UNL     1      20.503   3.240  54.557  1.00  0.00     0.157 HD
ATOM     29  H51 UNL     1      19.211   2.255  53.922  1.00  0.00     0.157 HD
ENDBRANCH  22  25
ENDBRANCH  14  15
ENDBRANCH  11  14
BRANCH   1  30
HETATM   30  O1  UNL     1      30.930   2.856  60.221  1.00  0.00    -0.346 OA
BRANCH  30  31
HETATM   31  C5  UNL     1      30.086   2.971  61.316  1.00  0.00     0.132 C 
HETATM   32  C4  UNL     1      29.489   4.365  61.368  1.00  0.00     0.052 C 
HETATM   33  C3  UNL     1      28.455   4.418  62.446  1.00  0.00     0.126 C 
HETATM   34  N2  UNL     1      28.750   3.592  63.593  1.00  0.00    -0.371 N 
HETATM   35  C31 UNL     1      29.979   2.860  63.792  1.00  0.00     0.126 C 
HETATM   36  C30 UNL     1      30.887   2.822  62.616  1.00  0.00     0.052 C 
BRANCH  34  37
HETATM   37  C2  UNL     1      27.704   3.529  64.585  1.00  0.00     0.068 C 
HETATM   38  C1  UNL     1      27.984   3.444  66.025  1.00  0.00     0.088 C 
HETATM   39  N1  UNL     1      26.481   3.546  64.168  1.00  0.00    -0.389 N 
ATOM     40  H12 UNL     1      25.742   3.501  64.869  1.00  0.00     0.157 HD
ATOM     41  H11 UNL     1      26.287   3.604  63.168  1.00  0.00     0.157 HD
ENDBRANCH  34  37
ENDBRANCH  30  31
ENDBRANCH   1  30
TORSDOF 6
ENDMDL
