MODEL 8
REMARK VINA RESULT: -8.219243336      4.188      7.458
REMARK  8 active torsions:
REMARK  status: ('A' for Active; 'I' for Inactive)
REMARK    1  A    between atoms: C1_2  and  C2_6 
REMARK    2  A    between atoms: C5_9  and  O1_10 
REMARK    3  A    between atoms: C6_12  and  O2_13 
REMARK    4  A    between atoms: O2_13  and  C7_14 
REMARK    5  A    between atoms: C9_16  and  C10_17 
REMARK    6  A    between atoms: C12_21  and  O5_22 
REMARK    7  A    between atoms: O5_22  and  C13_23 
REMARK    8  A    between atoms: C17_27  and  C18_28 
ROOT
HETATM    1  C7  UNL     1       9.727  23.853  21.080  1.00  0.00     0.151 A 
HETATM    2  C8  UNL     1      10.836  23.991  20.279  1.00  0.00     0.075 A 
HETATM    3  C9  UNL     1      11.771  24.985  20.452  1.00  0.00     0.049 A 
HETATM    4  C11 UNL     1      11.587  25.892  21.483  1.00  0.00     0.075 A 
HETATM    5  C12 UNL     1      10.470  25.745  22.284  1.00  0.00     0.151 A 
HETATM    6  N5  UNL     1       9.575  24.763  22.088  1.00  0.00    -0.317 N 
ATOM      7  H5  UNL     1       8.765  24.695  22.704  1.00  0.00     0.170 HD
ENDROOT
BRANCH   1   8
HETATM    8  O2  UNL     1       8.766  22.869  20.938  1.00  0.00    -0.291 OA
BRANCH   8   9
HETATM    9  C6  UNL     1       9.097  21.544  21.137  1.00  0.00     0.111 A 
HETATM   10  C5  UNL     1       9.678  21.109  22.319  1.00  0.00     0.099 A 
HETATM   11  C4  UNL     1      10.009  19.789  22.524  1.00  0.00     0.040 A 
HETATM   12  C3  UNL     1       9.753  18.886  21.528  1.00  0.00     0.018 A 
HETATM   13  C2  UNL     1       9.165  19.286  20.317  1.00  0.00     0.007 A 
HETATM   14  C22 UNL     1       8.849  20.601  20.142  1.00  0.00     0.055 A 
BRANCH  10  15
HETATM   15  O1  UNL     1       9.935  22.029  23.335  1.00  0.00    -0.358 OA
ATOM     16  H1  UNL     1      10.756  22.506  23.320  1.00  0.00     0.217 HD
ENDBRANCH  10  15
BRANCH  13  17
HETATM   17  C1  UNL     1       8.932  18.268  19.324  1.00  0.00     0.120 C 
HETATM   18  N1  UNL     1       9.683  17.067  19.357  1.00  0.00    -0.082 NA
HETATM   19  N2  UNL     1       8.060  18.422  18.409  1.00  0.00    -0.387 N 
ATOM     20  H22 UNL     1       7.895  17.702  17.706  1.00  0.00     0.157 HD
ATOM     21  H21 UNL     1       7.519  19.287  18.386  1.00  0.00     0.157 HD
ENDBRANCH  13  17
ENDBRANCH   8   9
ENDBRANCH   1   8
BRANCH   3  22
HETATM   22  C10 UNL     1      12.914  25.062  19.563  1.00  0.00     0.209 C 
HETATM   23  O3  UNL     1      13.989  25.539  19.997  1.00  0.00    -0.644 OA
HETATM   24  O4  UNL     1      12.874  24.631  18.247  1.00  0.00    -0.644 OA
ENDBRANCH   3  22
BRANCH   5  25
HETATM   25  O5  UNL     1      10.272  26.656  23.331  1.00  0.00    -0.294 OA
BRANCH  25  26
HETATM   26  C13 UNL     1      10.341  26.268  24.651  1.00  0.00     0.078 A 
HETATM   27  C14 UNL     1      11.543  26.251  25.324  1.00  0.00     0.037 A 
HETATM   28  C15 UNL     1      11.546  25.852  26.644  1.00  0.00     0.004 A 
HETATM   29  C16 UNL     1      10.382  25.478  27.280  1.00  0.00     0.015 A 
HETATM   30  C17 UNL     1       9.171  25.490  26.617  1.00  0.00     0.011 A 
HETATM   31  C21 UNL     1       9.183  25.891  25.300  1.00  0.00     0.052 A 
BRANCH  30  32
HETATM   32  C18 UNL     1       7.934  25.099  27.274  1.00  0.00     0.115 A 
HETATM   33  N3  UNL     1       6.711  25.230  26.736  1.00  0.00    -0.350 N 
HETATM   34  C19 UNL     1       5.760  24.773  27.599  1.00  0.00     0.106 A 
ATOM     35  H3  UNL     1       6.519  25.617  25.811  1.00  0.00     0.166 HD
HETATM   36  C20 UNL     1       6.453  24.347  28.710  1.00  0.00     0.106 A 
HETATM   37  N4  UNL     1       7.759  24.555  28.489  1.00  0.00    -0.350 N 
ATOM     38  H4  UNL     1       8.507  24.333  29.146  1.00  0.00     0.166 HD
ENDBRANCH  30  32
ENDBRANCH  25  26
ENDBRANCH   5  25
TORSDOF 8
ENDMDL
