MODEL 1
REMARK VINA RESULT: -8.597339233      0.000      0.000
REMARK  8 active torsions:
REMARK  status: ('A' for Active; 'I' for Inactive)
REMARK    1  A    between atoms: C1_2  and  C2_6 
REMARK    2  A    between atoms: C5_9  and  O1_10 
REMARK    3  A    between atoms: C6_12  and  O2_13 
REMARK    4  A    between atoms: O2_13  and  C7_14 
REMARK    5  A    between atoms: C9_16  and  C10_17 
REMARK    6  A    between atoms: C12_21  and  O5_22 
REMARK    7  A    between atoms: O5_22  and  C13_23 
REMARK    8  A    between atoms: C17_27  and  C18_28 
ROOT
HETATM    1  C7  UNL     1       9.434  23.645  20.079  1.00  0.00     0.151 A 
HETATM    2  C8  UNL     1       9.035  24.319  18.949  1.00  0.00     0.075 A 
HETATM    3  C9  UNL     1       9.869  25.145  18.230  1.00  0.00     0.049 A 
HETATM    4  C11 UNL     1      11.173  25.306  18.667  1.00  0.00     0.075 A 
HETATM    5  C12 UNL     1      11.566  24.625  19.805  1.00  0.00     0.151 A 
HETATM    6  N5  UNL     1      10.726  23.826  20.483  1.00  0.00    -0.317 N 
ATOM      7  H5  UNL     1      11.060  23.344  21.318  1.00  0.00     0.170 HD
ENDROOT
BRANCH   1   8
HETATM    8  O2  UNL     1       8.626  22.809  20.827  1.00  0.00    -0.291 OA
BRANCH   8   9
HETATM    9  C6  UNL     1       9.012  21.506  21.065  1.00  0.00     0.111 A 
HETATM   10  C5  UNL     1       9.601  21.129  22.264  1.00  0.00     0.099 A 
HETATM   11  C4  UNL     1       9.987  19.830  22.508  1.00  0.00     0.040 A 
HETATM   12  C3  UNL     1       9.778  18.891  21.536  1.00  0.00     0.018 A 
HETATM   13  C2  UNL     1       9.185  19.231  20.311  1.00  0.00     0.007 A 
HETATM   14  C22 UNL     1       8.813  20.525  20.096  1.00  0.00     0.055 A 
BRANCH  10  15
HETATM   15  O1  UNL     1       9.810  22.087  23.256  1.00  0.00    -0.358 OA
ATOM     16  H1  UNL     1       9.460  22.960  23.126  1.00  0.00     0.217 HD
ENDBRANCH  10  15
BRANCH  13  17
HETATM   17  C1  UNL     1       9.004  18.176  19.345  1.00  0.00     0.120 C 
HETATM   18  N1  UNL     1       9.718  16.961  19.487  1.00  0.00    -0.082 NA
HETATM   19  N2  UNL     1       8.211  18.310  18.357  1.00  0.00    -0.387 N 
ATOM     20  H22 UNL     1       8.083  17.564  17.673  1.00  0.00     0.157 HD
ATOM     21  H21 UNL     1       7.697  19.186  18.255  1.00  0.00     0.157 HD
ENDBRANCH  13  17
ENDBRANCH   8   9
ENDBRANCH   1   8
BRANCH   3  22
HETATM   22  C10 UNL     1       9.371  25.820  17.048  1.00  0.00     0.209 C 
HETATM   23  O3  UNL     1       9.547  27.055  16.936  1.00  0.00    -0.644 OA
HETATM   24  O4  UNL     1       8.706  25.159  16.028  1.00  0.00    -0.644 OA
ENDBRANCH   3  22
BRANCH   5  25
HETATM   25  O5  UNL     1      12.884  24.780  20.257  1.00  0.00    -0.294 OA
BRANCH  25  26
HETATM   26  C13 UNL     1      13.787  25.580  19.595  1.00  0.00     0.078 A 
HETATM   27  C14 UNL     1      13.913  26.917  19.904  1.00  0.00     0.037 A 
HETATM   28  C15 UNL     1      14.836  27.665  19.204  1.00  0.00     0.004 A 
HETATM   29  C16 UNL     1      15.616  27.098  18.219  1.00  0.00     0.015 A 
HETATM   30  C17 UNL     1      15.501  25.761  17.900  1.00  0.00     0.011 A 
HETATM   31  C21 UNL     1      14.575  25.026  18.606  1.00  0.00     0.052 A 
BRANCH  30  32
HETATM   32  C18 UNL     1      16.317  25.147  16.864  1.00  0.00     0.115 A 
HETATM   33  N3  UNL     1      16.079  25.248  15.546  1.00  0.00    -0.350 N 
HETATM   34  C19 UNL     1      17.021  24.562  14.840  1.00  0.00     0.106 A 
ATOM     35  H3  UNL     1      15.303  25.764  15.132  1.00  0.00     0.166 HD
HETATM   36  C20 UNL     1      17.865  24.025  15.785  1.00  0.00     0.106 A 
HETATM   37  N4  UNL     1      17.419  24.391  16.995  1.00  0.00    -0.350 N 
ATOM     38  H4  UNL     1      17.851  24.133  17.882  1.00  0.00     0.166 HD
ENDBRANCH  30  32
ENDBRANCH  25  26
ENDBRANCH   5  25
TORSDOF 8
ENDMDL
