MODEL 10
REMARK VINA RESULT: -8.154557557      3.629      5.265
REMARK  8 active torsions:
REMARK  status: ('A' for Active; 'I' for Inactive)
REMARK    1  A    between atoms: C1_2  and  C2_6 
REMARK    2  A    between atoms: C5_9  and  O1_10 
REMARK    3  A    between atoms: C6_12  and  O2_13 
REMARK    4  A    between atoms: O2_13  and  C7_14 
REMARK    5  A    between atoms: C9_16  and  C10_17 
REMARK    6  A    between atoms: C12_21  and  O5_22 
REMARK    7  A    between atoms: O5_22  and  C13_23 
REMARK    8  A    between atoms: C17_27  and  C18_28 
ROOT
HETATM    1  C7  UNL     1      10.371  22.784  23.374  1.00  0.00     0.151 A 
HETATM    2  C8  UNL     1       9.958  23.888  24.084  1.00  0.00     0.075 A 
HETATM    3  C9  UNL     1      10.690  25.051  24.159  1.00  0.00     0.049 A 
HETATM    4  C11 UNL     1      11.900  25.114  23.490  1.00  0.00     0.075 A 
HETATM    5  C12 UNL     1      12.308  24.000  22.779  1.00  0.00     0.151 A 
HETATM    6  N5  UNL     1      11.570  22.879  22.725  1.00  0.00    -0.317 N 
ATOM      7  H5  UNL     1      11.911  22.082  22.189  1.00  0.00     0.170 HD
ENDROOT
BRANCH   1   8
HETATM    8  O2  UNL     1       9.667  21.599  23.275  1.00  0.00    -0.291 OA
BRANCH   8   9
HETATM    9  C6  UNL     1       9.391  21.060  22.035  1.00  0.00     0.111 A 
HETATM   10  C5  UNL     1       8.781  21.806  21.037  1.00  0.00     0.099 A 
HETATM   11  C4  UNL     1       8.504  21.274  19.798  1.00  0.00     0.040 A 
HETATM   12  C3  UNL     1       8.845  19.972  19.552  1.00  0.00     0.018 A 
HETATM   13  C2  UNL     1       9.464  19.184  20.535  1.00  0.00     0.007 A 
HETATM   14  C22 UNL     1       9.725  19.738  21.754  1.00  0.00     0.055 A 
BRANCH  10  15
HETATM   15  O1  UNL     1       8.437  23.134  21.287  1.00  0.00    -0.358 OA
ATOM     16  H1  UNL     1       7.532  23.399  21.175  1.00  0.00     0.217 HD
ENDBRANCH  10  15
BRANCH  13  17
HETATM   17  C1  UNL     1       9.787  17.823  20.188  1.00  0.00     0.120 C 
HETATM   18  N1  UNL     1      10.886  17.180  20.809  1.00  0.00    -0.082 NA
HETATM   19  N2  UNL     1       9.102  17.177  19.330  1.00  0.00    -0.387 N 
ATOM     20  H22 UNL     1       9.331  16.214  19.085  1.00  0.00     0.157 HD
ATOM     21  H21 UNL     1       8.311  17.640  18.884  1.00  0.00     0.157 HD
ENDBRANCH  13  17
ENDBRANCH   8   9
ENDBRANCH   1   8
BRANCH   3  22
HETATM   22  C10 UNL     1      10.185  26.170  24.929  1.00  0.00     0.209 C 
HETATM   23  O3  UNL     1       9.113  26.035  25.565  1.00  0.00    -0.644 OA
HETATM   24  O4  UNL     1      10.835  27.393  24.995  1.00  0.00    -0.644 OA
ENDBRANCH   3  22
BRANCH   5  25
HETATM   25  O5  UNL     1      13.531  24.051  22.096  1.00  0.00    -0.294 OA
BRANCH  25  26
HETATM   26  C13 UNL     1      14.144  25.247  21.798  1.00  0.00     0.078 A 
HETATM   27  C14 UNL     1      13.988  25.838  20.563  1.00  0.00     0.037 A 
HETATM   28  C15 UNL     1      14.628  27.035  20.326  1.00  0.00     0.004 A 
HETATM   29  C16 UNL     1      15.407  27.633  21.294  1.00  0.00     0.015 A 
HETATM   30  C17 UNL     1      15.573  27.052  22.535  1.00  0.00     0.011 A 
HETATM   31  C21 UNL     1      14.928  25.856  22.758  1.00  0.00     0.052 A 
BRANCH  30  32
HETATM   32  C18 UNL     1      16.391  27.669  23.567  1.00  0.00     0.115 A 
HETATM   33  N3  UNL     1      15.944  28.027  24.781  1.00  0.00    -0.350 N 
HETATM   34  C19 UNL     1      16.953  28.578  25.515  1.00  0.00     0.106 A 
ATOM     35  H3  UNL     1      14.986  27.905  25.109  1.00  0.00     0.166 HD
HETATM   36  C20 UNL     1      18.058  28.545  24.695  1.00  0.00     0.106 A 
HETATM   37  N4  UNL     1      17.694  27.995  23.529  1.00  0.00    -0.350 N 
ATOM     38  H4  UNL     1      18.313  27.846  22.732  1.00  0.00     0.166 HD
ENDBRANCH  30  32
ENDBRANCH  25  26
ENDBRANCH   5  25
TORSDOF 8
ENDMDL
