MODEL 4
REMARK VINA RESULT: -8.335328333      1.662      1.971
REMARK  8 active torsions:
REMARK  status: ('A' for Active; 'I' for Inactive)
REMARK    1  A    between atoms: C1_2  and  C2_6 
REMARK    2  A    between atoms: C5_9  and  O1_10 
REMARK    3  A    between atoms: C6_12  and  O2_13 
REMARK    4  A    between atoms: O2_13  and  C7_14 
REMARK    5  A    between atoms: C9_16  and  C10_17 
REMARK    6  A    between atoms: C12_21  and  O5_22 
REMARK    7  A    between atoms: O5_22  and  C13_23 
REMARK    8  A    between atoms: C17_27  and  C18_28 
ROOT
HETATM    1  C7  UNL     1       9.088  23.699  20.545  1.00  0.00     0.151 A 
HETATM    2  C8  UNL     1       8.543  24.803  19.932  1.00  0.00     0.075 A 
HETATM    3  C9  UNL     1       9.302  25.813  19.387  1.00  0.00     0.049 A 
HETATM    4  C11 UNL     1      10.681  25.716  19.460  1.00  0.00     0.075 A 
HETATM    5  C12 UNL     1      11.221  24.603  20.079  1.00  0.00     0.151 A 
HETATM    6  N5  UNL     1      10.452  23.633  20.601  1.00  0.00    -0.317 N 
ATOM      7  H5  UNL     1      10.894  22.831  21.048  1.00  0.00     0.170 HD
ENDROOT
BRANCH   1   8
HETATM    8  O2  UNL     1       8.361  22.665  21.104  1.00  0.00    -0.291 OA
BRANCH   8   9
HETATM    9  C6  UNL     1       8.913  21.404  21.202  1.00  0.00     0.111 A 
HETATM   10  C5  UNL     1       9.700  21.038  22.284  1.00  0.00     0.099 A 
HETATM   11  C4  UNL     1      10.252  19.781  22.390  1.00  0.00     0.040 A 
HETATM   12  C3  UNL     1      10.013  18.874  21.394  1.00  0.00     0.018 A 
HETATM   13  C2  UNL     1       9.222  19.206  20.283  1.00  0.00     0.007 A 
HETATM   14  C22 UNL     1       8.687  20.458  20.206  1.00  0.00     0.055 A 
BRANCH  10  15
HETATM   15  O1  UNL     1       9.941  21.962  23.301  1.00  0.00    -0.358 OA
ATOM     16  H1  UNL     1      10.735  22.482  23.265  1.00  0.00     0.217 HD
ENDBRANCH  10  15
BRANCH  13  17
HETATM   17  C1  UNL     1       9.022  18.188  19.282  1.00  0.00     0.120 C 
HETATM   18  N1  UNL     1       9.718  16.957  19.380  1.00  0.00    -0.082 NA
HETATM   19  N2  UNL     1       8.229  18.368  18.302  1.00  0.00    -0.387 N 
ATOM     20  H22 UNL     1       8.088  17.648  17.594  1.00  0.00     0.157 HD
ATOM     21  H21 UNL     1       7.728  19.254  18.231  1.00  0.00     0.157 HD
ENDBRANCH  13  17
ENDBRANCH   8   9
ENDBRANCH   1   8
BRANCH   3  22
HETATM   22  C10 UNL     1       8.650  26.944  18.757  1.00  0.00     0.209 C 
HETATM   23  O3  UNL     1       7.446  27.175  19.021  1.00  0.00    -0.644 OA
HETATM   24  O4  UNL     1       9.298  27.788  17.870  1.00  0.00    -0.644 OA
ENDBRANCH   3  22
BRANCH   5  25
HETATM   25  O5  UNL     1      12.616  24.491  20.160  1.00  0.00    -0.294 OA
BRANCH  25  26
HETATM   26  C13 UNL     1      13.442  25.032  19.200  1.00  0.00     0.078 A 
HETATM   27  C14 UNL     1      14.489  25.857  19.546  1.00  0.00     0.037 A 
HETATM   28  C15 UNL     1      15.280  26.367  18.539  1.00  0.00     0.004 A 
HETATM   29  C16 UNL     1      15.036  26.064  17.217  1.00  0.00     0.015 A 
HETATM   30  C17 UNL     1      13.990  25.239  16.855  1.00  0.00     0.011 A 
HETATM   31  C21 UNL     1      13.209  24.737  17.872  1.00  0.00     0.052 A 
BRANCH  30  32
HETATM   32  C18 UNL     1      13.719  24.909  15.465  1.00  0.00     0.115 A 
HETATM   33  N3  UNL     1      12.593  24.324  15.026  1.00  0.00    -0.350 N 
HETATM   34  C19 UNL     1      12.645  24.149  13.675  1.00  0.00     0.106 A 
ATOM     35  H3  UNL     1      11.810  24.049  15.619  1.00  0.00     0.166 HD
HETATM   36  C20 UNL     1      13.864  24.657  13.289  1.00  0.00     0.106 A 
HETATM   37  N4  UNL     1      14.492  25.108  14.384  1.00  0.00    -0.350 N 
ATOM     38  H4  UNL     1      15.417  25.536  14.395  1.00  0.00     0.166 HD
ENDBRANCH  30  32
ENDBRANCH  25  26
ENDBRANCH   5  25
TORSDOF 8
ENDMDL
