MODEL 7
REMARK VINA RESULT: -8.245421209      3.044      4.803
REMARK  8 active torsions:
REMARK  status: ('A' for Active; 'I' for Inactive)
REMARK    1  A    between atoms: C1_2  and  C2_6 
REMARK    2  A    between atoms: C5_9  and  O1_10 
REMARK    3  A    between atoms: C6_12  and  O2_13 
REMARK    4  A    between atoms: O2_13  and  C7_14 
REMARK    5  A    between atoms: C9_16  and  C10_17 
REMARK    6  A    between atoms: C12_21  and  O5_22 
REMARK    7  A    between atoms: O5_22  and  C13_23 
REMARK    8  A    between atoms: C17_27  and  C18_28 
ROOT
HETATM    1  C7  UNL     1       8.505  23.258  20.216  1.00  0.00     0.151 A 
HETATM    2  C8  UNL     1       7.640  23.892  19.355  1.00  0.00     0.075 A 
HETATM    3  C9  UNL     1       8.041  24.855  18.458  1.00  0.00     0.049 A 
HETATM    4  C11 UNL     1       9.381  25.205  18.420  1.00  0.00     0.075 A 
HETATM    5  C12 UNL     1      10.243  24.562  19.290  1.00  0.00     0.151 A 
HETATM    6  N5  UNL     1       9.819  23.625  20.153  1.00  0.00    -0.317 N 
ATOM      7  H5  UNL     1      10.492  23.179  20.776  1.00  0.00     0.170 HD
ENDROOT
BRANCH   1   8
HETATM    8  O2  UNL     1       8.141  22.287  21.130  1.00  0.00    -0.291 OA
BRANCH   8   9
HETATM    9  C6  UNL     1       8.838  21.098  21.192  1.00  0.00     0.111 A 
HETATM   10  C5  UNL     1       9.731  20.831  22.220  1.00  0.00     0.099 A 
HETATM   11  C4  UNL     1      10.428  19.646  22.289  1.00  0.00     0.040 A 
HETATM   12  C3  UNL     1      10.228  18.711  21.311  1.00  0.00     0.018 A 
HETATM   13  C2  UNL     1       9.333  18.941  20.255  1.00  0.00     0.007 A 
HETATM   14  C22 UNL     1       8.656  20.125  20.213  1.00  0.00     0.055 A 
BRANCH  10  15
HETATM   15  O1  UNL     1       9.931  21.784  23.218  1.00  0.00    -0.358 OA
ATOM     16  H1  UNL     1      10.287  21.502  24.052  1.00  0.00     0.217 HD
ENDBRANCH  10  15
BRANCH  13  17
HETATM   17  C1  UNL     1       9.186  17.900  19.270  1.00  0.00     0.120 C 
HETATM   18  N1  UNL     1       9.931  16.701  19.395  1.00  0.00    -0.082 NA
HETATM   19  N2  UNL     1       8.394  18.030  18.280  1.00  0.00    -0.387 N 
ATOM     20  H22 UNL     1       8.290  17.293  17.583  1.00  0.00     0.157 HD
ATOM     21  H21 UNL     1       7.858  18.893  18.190  1.00  0.00     0.157 HD
ENDBRANCH  13  17
ENDBRANCH   8   9
ENDBRANCH   1   8
BRANCH   3  22
HETATM   22  C10 UNL     1       7.066  25.476  17.584  1.00  0.00     0.209 C 
HETATM   23  O3  UNL     1       6.139  26.150  18.091  1.00  0.00    -0.644 OA
HETATM   24  O4  UNL     1       7.111  25.360  16.203  1.00  0.00    -0.644 OA
ENDBRANCH   3  22
BRANCH   5  25
HETATM   25  O5  UNL     1      11.602  24.906  19.262  1.00  0.00    -0.294 OA
BRANCH  25  26
HETATM   26  C13 UNL     1      12.295  25.213  20.411  1.00  0.00     0.078 A 
HETATM   27  C14 UNL     1      13.586  25.691  20.357  1.00  0.00     0.037 A 
HETATM   28  C15 UNL     1      14.226  25.979  21.543  1.00  0.00     0.004 A 
HETATM   29  C16 UNL     1      13.598  25.797  22.757  1.00  0.00     0.015 A 
HETATM   30  C17 UNL     1      12.305  25.319  22.826  1.00  0.00     0.011 A 
HETATM   31  C21 UNL     1      11.678  25.036  21.633  1.00  0.00     0.052 A 
BRANCH  30  32
HETATM   32  C18 UNL     1      11.627  25.122  24.098  1.00  0.00     0.115 A 
HETATM   33  N3  UNL     1      11.605  26.019  25.097  1.00  0.00    -0.350 N 
HETATM   34  C19 UNL     1      10.888  25.536  26.151  1.00  0.00     0.106 A 
ATOM     35  H3  UNL     1      12.059  26.932  25.071  1.00  0.00     0.166 HD
HETATM   36  C20 UNL     1      10.462  24.288  25.760  1.00  0.00     0.106 A 
HETATM   37  N4  UNL     1      10.920  24.062  24.521  1.00  0.00    -0.350 N 
ATOM     38  H4  UNL     1      10.756  23.212  23.981  1.00  0.00     0.166 HD
ENDBRANCH  30  32
ENDBRANCH  25  26
ENDBRANCH   5  25
TORSDOF 8
ENDMDL
