MODEL 1
REMARK VINA RESULT: -9.703821187      0.000      0.000
REMARK  6 active torsions:
REMARK  status: ('A' for Active; 'I' for Inactive)
REMARK    1  A    between atoms: C2_2  and  N2_6 
REMARK    2  A    between atoms: C5_9  and  O1_10 
REMARK    3  A    between atoms: O1_10  and  C6_11 
REMARK    4  A    between atoms: N4_19  and  C12_20 
REMARK    5  A    between atoms: C12_20  and  C13_21 
REMARK    6  A    between atoms: C19_27  and  C20_28 
ROOT
HETATM    1  C6  UNL     1      29.537   0.092  55.532  1.00  0.00     0.071 A 
HETATM    2  C7  UNL     1      30.680  -0.042  56.284  1.00  0.00     0.039 A 
HETATM    3  C8  UNL     1      31.058   0.886  57.248  1.00  0.00     0.035 A 
HETATM    4  C9  UNL     1      30.231   1.972  57.430  1.00  0.00     0.060 A 
HETATM    5  N3  UNL     1      30.295   3.049  58.264  1.00  0.00    -0.344 N 
ATOM      6  H3  UNL     1      31.030   3.233  58.945  1.00  0.00     0.167 HD
HETATM    7  C10 UNL     1      29.230   3.819  58.036  1.00  0.00     0.080 A 
HETATM    8  C11 UNL     1      28.934   5.093  58.746  1.00  0.00     0.089 C 
HETATM    9  N4  UNL     1      28.459   3.281  57.070  1.00  0.00    -0.331 N 
HETATM   10  C24 UNL     1      29.058   2.158  56.695  1.00  0.00     0.065 A 
HETATM   11  C25 UNL     1      28.726   1.214  55.754  1.00  0.00     0.068 A 
ENDROOT
BRANCH   9  12
HETATM   12  C12 UNL     1      27.229   3.825  56.546  1.00  0.00     0.169 C 
BRANCH  12  13
HETATM   13  C13 UNL     1      26.015   3.153  57.054  1.00  0.00    -0.039 A 
HETATM   14  C14 UNL     1      25.990   2.717  58.357  1.00  0.00     0.010 A 
HETATM   15  C15 UNL     1      24.891   2.083  58.905  1.00  0.00     0.013 A 
HETATM   16  C16 UNL     1      23.765   1.868  58.143  1.00  0.00    -0.026 A 
HETATM   17  C17 UNL     1      22.666   1.237  58.683  1.00  0.00     0.013 A 
HETATM   18  C22 UNL     1      23.754   2.297  56.816  1.00  0.00    -0.025 A 
HETATM   19  C18 UNL     1      21.545   1.039  57.872  1.00  0.00     0.015 A 
HETATM   20  C19 UNL     1      21.492   1.445  56.563  1.00  0.00     0.005 A 
HETATM   21  C21 UNL     1      22.629   2.081  56.057  1.00  0.00     0.027 A 
HETATM   22  C23 UNL     1      24.880   2.929  56.307  1.00  0.00     0.021 A 
BRANCH  20  23
HETATM   23  C20 UNL     1      20.335   1.245  55.715  1.00  0.00     0.120 C 
HETATM   24  N5  UNL     1      19.550   0.073  55.928  1.00  0.00    -0.082 NA
HETATM   25  N6  UNL     1      19.980   2.053  54.792  1.00  0.00    -0.387 N 
ATOM     26  H62 UNL     1      20.541   2.890  54.640  1.00  0.00     0.157 HD
ATOM     27  H61 UNL     1      19.165   1.912  54.195  1.00  0.00     0.157 HD
ENDBRANCH  20  23
ENDBRANCH  12  13
ENDBRANCH   9  12
BRANCH   1  28
HETATM   28  O1  UNL     1      29.150  -0.807  54.584  1.00  0.00    -0.346 OA
BRANCH  28  29
HETATM   29  C5  UNL     1      29.945  -1.427  53.619  1.00  0.00     0.132 C 
HETATM   30  C4  UNL     1      29.700  -2.918  53.725  1.00  0.00     0.052 C 
HETATM   31  C3  UNL     1      29.757  -3.541  52.366  1.00  0.00     0.126 C 
HETATM   32  N2  UNL     1      30.716  -2.840  51.558  1.00  0.00    -0.371 N 
HETATM   33  C27 UNL     1      30.352  -1.475  51.159  1.00  0.00     0.126 C 
HETATM   34  C26 UNL     1      29.505  -0.868  52.269  1.00  0.00     0.052 C 
BRANCH  32  35
HETATM   35  C2  UNL     1      31.937  -3.426  51.171  1.00  0.00     0.068 C 
HETATM   36  C1  UNL     1      31.969  -4.841  50.735  1.00  0.00     0.088 C 
HETATM   37  N1  UNL     1      33.038  -2.764  51.183  1.00  0.00    -0.389 N 
ATOM     38  H12 UNL     1      33.922  -3.189  50.903  1.00  0.00     0.157 HD
ATOM     39  H11 UNL     1      33.016  -1.790  51.484  1.00  0.00     0.157 HD
ENDBRANCH  32  35
ENDBRANCH  28  29
ENDBRANCH   1  28
TORSDOF 6
ENDMDL
