MODEL 8
REMARK VINA RESULT: -8.580806855      1.143      1.713
REMARK  6 active torsions:
REMARK  status: ('A' for Active; 'I' for Inactive)
REMARK    1  A    between atoms: C2_2  and  N2_6 
REMARK    2  A    between atoms: C5_9  and  O1_10 
REMARK    3  A    between atoms: O1_10  and  C6_11 
REMARK    4  A    between atoms: N4_19  and  C12_20 
REMARK    5  A    between atoms: C12_20  and  C13_21 
REMARK    6  A    between atoms: C19_27  and  C20_28 
ROOT
HETATM    1  C6  UNL     1      30.052   0.118  55.501  1.00  0.00     0.071 A 
HETATM    2  C7  UNL     1      31.261   0.745  55.311  1.00  0.00     0.039 A 
HETATM    3  C8  UNL     1      31.757   1.702  56.190  1.00  0.00     0.035 A 
HETATM    4  C9  UNL     1      30.979   2.010  57.284  1.00  0.00     0.060 A 
HETATM    5  N3  UNL     1      31.150   2.879  58.319  1.00  0.00    -0.344 N 
ATOM      6  H3  UNL     1      31.954   3.491  58.458  1.00  0.00     0.167 HD
HETATM    7  C10 UNL     1      30.087   2.792  59.119  1.00  0.00     0.080 A 
HETATM    8  C11 UNL     1      29.891   3.585  60.364  1.00  0.00     0.089 C 
HETATM    9  N4  UNL     1      29.212   1.885  58.641  1.00  0.00    -0.331 N 
HETATM   10  C24 UNL     1      29.744   1.403  57.526  1.00  0.00     0.065 A 
HETATM   11  C25 UNL     1      29.296   0.464  56.629  1.00  0.00     0.068 A 
ENDROOT
BRANCH   9  12
HETATM   12  C12 UNL     1      27.944   1.518  59.226  1.00  0.00     0.169 C 
BRANCH  12  13
HETATM   13  C13 UNL     1      26.778   2.137  58.561  1.00  0.00    -0.039 A 
HETATM   14  C14 UNL     1      26.867   3.441  58.136  1.00  0.00     0.010 A 
HETATM   15  C15 UNL     1      25.821   4.086  57.505  1.00  0.00     0.013 A 
HETATM   16  C16 UNL     1      24.635   3.426  57.279  1.00  0.00    -0.026 A 
HETATM   17  C17 UNL     1      23.588   4.064  56.650  1.00  0.00     0.013 A 
HETATM   18  C22 UNL     1      24.508   2.102  57.697  1.00  0.00    -0.025 A 
HETATM   19  C18 UNL     1      22.403   3.354  56.442  1.00  0.00     0.015 A 
HETATM   20  C19 UNL     1      22.236   2.052  56.837  1.00  0.00     0.005 A 
HETATM   21  C21 UNL     1      23.323   1.444  57.471  1.00  0.00     0.027 A 
HETATM   22  C23 UNL     1      25.585   1.492  58.327  1.00  0.00     0.021 A 
BRANCH  20  23
HETATM   23  C20 UNL     1      21.012   1.307  56.626  1.00  0.00     0.120 C 
HETATM   24  N5  UNL     1      20.453   1.306  55.313  1.00  0.00    -0.082 NA
HETATM   25  N6  UNL     1      20.406   0.656  57.541  1.00  0.00    -0.387 N 
ATOM     26  H62 UNL     1      20.805   0.656  58.480  1.00  0.00     0.157 HD
ATOM     27  H61 UNL     1      19.544   0.132  57.392  1.00  0.00     0.157 HD
ENDBRANCH  20  23
ENDBRANCH  12  13
ENDBRANCH   9  12
BRANCH   1  28
HETATM   28  O1  UNL     1      29.550  -0.823  54.651  1.00  0.00    -0.346 OA
BRANCH  28  29
HETATM   29  C5  UNL     1      30.235  -1.541  53.670  1.00  0.00     0.132 C 
HETATM   30  C4  UNL     1      29.831  -2.993  53.812  1.00  0.00     0.052 C 
HETATM   31  C3  UNL     1      29.768  -3.639  52.463  1.00  0.00     0.126 C 
HETATM   32  N2  UNL     1      30.768  -3.060  51.609  1.00  0.00    -0.371 N 
HETATM   33  C27 UNL     1      30.543  -1.669  51.198  1.00  0.00     0.126 C 
HETATM   34  C26 UNL     1      29.810  -0.956  52.326  1.00  0.00     0.052 C 
BRANCH  32  35
HETATM   35  C2  UNL     1      31.901  -3.784  51.191  1.00  0.00     0.068 C 
HETATM   36  C1  UNL     1      31.758  -5.196  50.767  1.00  0.00     0.088 C 
HETATM   37  N1  UNL     1      33.070  -3.252  51.162  1.00  0.00    -0.389 N 
ATOM     38  H12 UNL     1      33.891  -3.777  50.859  1.00  0.00     0.157 HD
ATOM     39  H11 UNL     1      33.169  -2.280  51.454  1.00  0.00     0.157 HD
ENDBRANCH  32  35
ENDBRANCH  28  29
ENDBRANCH   1  28
TORSDOF 6
ENDMDL
