MODEL 11
REMARK VINA RESULT: -8.490197160      1.358      1.613
REMARK  6 active torsions:
REMARK  status: ('A' for Active; 'I' for Inactive)
REMARK    1  A    between atoms: C2_2  and  N2_6 
REMARK    2  A    between atoms: C5_9  and  O1_10 
REMARK    3  A    between atoms: O1_10  and  C6_11 
REMARK    4  A    between atoms: N4_19  and  C12_20 
REMARK    5  A    between atoms: C12_20  and  C13_21 
REMARK    6  A    between atoms: C19_27  and  C20_28 
ROOT
HETATM    1  C6  UNL     1      29.585   0.361  55.861  1.00  0.00     0.071 A 
HETATM    2  C7  UNL     1      30.692   0.178  56.656  1.00  0.00     0.039 A 
HETATM    3  C8  UNL     1      30.985   1.003  57.736  1.00  0.00     0.035 A 
HETATM    4  C9  UNL     1      30.110   2.036  57.991  1.00  0.00     0.060 A 
HETATM    5  N3  UNL     1      30.091   3.013  58.941  1.00  0.00    -0.344 N 
ATOM      6  H3  UNL     1      30.783   3.142  59.678  1.00  0.00     0.167 HD
HETATM    7  C10 UNL     1      29.012   3.770  58.741  1.00  0.00     0.080 A 
HETATM    8  C11 UNL     1      28.632   4.947  59.571  1.00  0.00     0.089 C 
HETATM    9  N4  UNL     1      28.312   3.321  57.680  1.00  0.00    -0.331 N 
HETATM   10  C24 UNL     1      28.971   2.267  57.216  1.00  0.00     0.065 A 
HETATM   11  C25 UNL     1      28.723   1.425  56.160  1.00  0.00     0.068 A 
ENDROOT
BRANCH   9  12
HETATM   12  C12 UNL     1      27.092   3.882  57.152  1.00  0.00     0.169 C 
BRANCH  12  13
HETATM   13  C13 UNL     1      25.878   3.119  57.512  1.00  0.00    -0.039 A 
HETATM   14  C14 UNL     1      25.813   2.513  58.744  1.00  0.00     0.010 A 
HETATM   15  C15 UNL     1      24.712   1.785  59.153  1.00  0.00     0.013 A 
HETATM   16  C16 UNL     1      23.626   1.644  58.319  1.00  0.00    -0.026 A 
HETATM   17  C17 UNL     1      22.525   0.919  58.722  1.00  0.00     0.013 A 
HETATM   18  C22 UNL     1      23.657   2.244  57.062  1.00  0.00    -0.025 A 
HETATM   19  C18 UNL     1      21.446   0.802  57.842  1.00  0.00     0.015 A 
HETATM   20  C19 UNL     1      21.436   1.377  56.596  1.00  0.00     0.005 A 
HETATM   21  C21 UNL     1      22.572   2.102  56.230  1.00  0.00     0.027 A 
HETATM   22  C23 UNL     1      24.784   2.967  56.692  1.00  0.00     0.021 A 
BRANCH  20  23
HETATM   23  C20 UNL     1      20.322   1.262  55.677  1.00  0.00     0.120 C 
HETATM   24  N5  UNL     1      19.507   0.094  55.764  1.00  0.00    -0.082 NA
HETATM   25  N6  UNL     1      20.029   2.140  54.799  1.00  0.00    -0.387 N 
ATOM     26  H62 UNL     1      20.611   2.975  54.737  1.00  0.00     0.157 HD
ATOM     27  H61 UNL     1      19.245   2.059  54.152  1.00  0.00     0.157 HD
ENDBRANCH  20  23
ENDBRANCH  12  13
ENDBRANCH   9  12
BRANCH   1  28
HETATM   28  O1  UNL     1      29.280  -0.438  54.798  1.00  0.00    -0.346 OA
BRANCH  28  29
HETATM   29  C5  UNL     1      29.638  -0.254  53.462  1.00  0.00     0.132 C 
HETATM   30  C4  UNL     1      30.041  -1.608  52.915  1.00  0.00     0.052 C 
HETATM   31  C3  UNL     1      29.622  -1.724  51.483  1.00  0.00     0.126 C 
HETATM   32  N2  UNL     1      29.708  -0.435  50.854  1.00  0.00    -0.371 N 
HETATM   33  C27 UNL     1      28.726   0.565  51.290  1.00  0.00     0.126 C 
HETATM   34  C26 UNL     1      28.407   0.306  52.756  1.00  0.00     0.052 C 
BRANCH  32  35
HETATM   35  C2  UNL     1      30.679  -0.144  49.876  1.00  0.00     0.068 C 
HETATM   36  C1  UNL     1      32.117  -0.212  50.223  1.00  0.00     0.088 C 
HETATM   37  N1  UNL     1      30.353   0.179  48.676  1.00  0.00    -0.389 N 
ATOM     38  H12 UNL     1      31.057   0.390  47.968  1.00  0.00     0.157 HD
ATOM     39  H11 UNL     1      29.363   0.225  48.437  1.00  0.00     0.157 HD
ENDBRANCH  32  35
ENDBRANCH  28  29
ENDBRANCH   1  28
TORSDOF 6
ENDMDL
