MODEL 6
REMARK VINA RESULT: -8.699487152      2.846      4.792
REMARK  6 active torsions:
REMARK  status: ('A' for Active; 'I' for Inactive)
REMARK    1  A    between atoms: C2_2  and  N2_6 
REMARK    2  A    between atoms: C5_9  and  O1_10 
REMARK    3  A    between atoms: O1_10  and  C6_11 
REMARK    4  A    between atoms: N4_19  and  C12_20 
REMARK    5  A    between atoms: C12_20  and  C13_21 
REMARK    6  A    between atoms: C19_27  and  C20_28 
ROOT
HETATM    1  C6  UNL     1      30.121   0.559  56.526  1.00  0.00     0.071 A 
HETATM    2  C7  UNL     1      30.519   0.113  55.288  1.00  0.00     0.039 A 
HETATM    3  C8  UNL     1      30.057   0.676  54.103  1.00  0.00     0.035 A 
HETATM    4  C9  UNL     1      29.167   1.721  54.212  1.00  0.00     0.060 A 
HETATM    5  N3  UNL     1      28.527   2.486  53.283  1.00  0.00    -0.344 N 
ATOM      6  H3  UNL     1      28.617   2.395  52.271  1.00  0.00     0.167 HD
HETATM    7  C10 UNL     1      27.764   3.372  53.923  1.00  0.00     0.080 A 
HETATM    8  C11 UNL     1      26.903   4.390  53.260  1.00  0.00     0.089 C 
HETATM    9  N4  UNL     1      27.879   3.215  55.257  1.00  0.00    -0.331 N 
HETATM   10  C24 UNL     1      28.731   2.215  55.444  1.00  0.00     0.065 A 
HETATM   11  C25 UNL     1      29.214   1.626  56.586  1.00  0.00     0.068 A 
ENDROOT
BRANCH   9  12
HETATM   12  C12 UNL     1      27.205   3.982  56.277  1.00  0.00     0.169 C 
BRANCH  12  13
HETATM   13  C13 UNL     1      26.019   3.307  56.846  1.00  0.00    -0.039 A 
HETATM   14  C14 UNL     1      26.043   2.918  58.164  1.00  0.00     0.010 A 
HETATM   15  C15 UNL     1      24.972   2.285  58.767  1.00  0.00     0.013 A 
HETATM   16  C16 UNL     1      23.829   2.022  58.049  1.00  0.00    -0.026 A 
HETATM   17  C17 UNL     1      22.758   1.391  58.645  1.00  0.00     0.013 A 
HETATM   18  C22 UNL     1      23.769   2.403  56.709  1.00  0.00    -0.025 A 
HETATM   19  C18 UNL     1      21.617   1.145  57.876  1.00  0.00     0.015 A 
HETATM   20  C19 UNL     1      21.517   1.503  56.556  1.00  0.00     0.005 A 
HETATM   21  C21 UNL     1      22.626   2.140  55.993  1.00  0.00     0.027 A 
HETATM   22  C23 UNL     1      24.867   3.037  56.143  1.00  0.00     0.021 A 
BRANCH  20  23
HETATM   23  C20 UNL     1      20.339   1.252  55.751  1.00  0.00     0.120 C 
HETATM   24  N5  UNL     1      19.613   0.048  55.994  1.00  0.00    -0.082 NA
HETATM   25  N6  UNL     1      19.915   2.041  54.842  1.00  0.00    -0.387 N 
ATOM     26  H62 UNL     1      20.435   2.902  54.668  1.00  0.00     0.157 HD
ATOM     27  H61 UNL     1      19.086   1.865  54.275  1.00  0.00     0.157 HD
ENDBRANCH  20  23
ENDBRANCH  12  13
ENDBRANCH   9  12
BRANCH   1  28
HETATM   28  O1  UNL     1      30.563   0.020  57.699  1.00  0.00    -0.346 OA
BRANCH  28  29
HETATM   29  C5  UNL     1      31.883  -0.173  58.107  1.00  0.00     0.132 C 
HETATM   30  C4  UNL     1      32.586   1.164  58.000  1.00  0.00     0.052 C 
HETATM   31  C3  UNL     1      33.584   1.304  59.106  1.00  0.00     0.126 C 
HETATM   32  N2  UNL     1      34.140   0.015  59.414  1.00  0.00    -0.371 N 
HETATM   33  C27 UNL     1      33.233  -0.944  60.057  1.00  0.00     0.126 C 
HETATM   34  C26 UNL     1      31.824  -0.677  59.545  1.00  0.00     0.052 C 
BRANCH  32  35
HETATM   35  C2  UNL     1      35.477  -0.311  59.117  1.00  0.00     0.068 C 
HETATM   36  C1  UNL     1      36.511  -0.218  60.173  1.00  0.00     0.088 C 
HETATM   37  N1  UNL     1      35.834  -0.694  57.943  1.00  0.00    -0.389 N 
ATOM     38  H12 UNL     1      36.803  -0.931  57.728  1.00  0.00     0.157 HD
ATOM     39  H11 UNL     1      35.122  -0.758  57.216  1.00  0.00     0.157 HD
ENDBRANCH  32  35
ENDBRANCH  28  29
ENDBRANCH   1  28
TORSDOF 6
ENDMDL
