MODEL 7
REMARK VINA RESULT: -8.663964360      3.293      4.785
REMARK  6 active torsions:
REMARK  status: ('A' for Active; 'I' for Inactive)
REMARK    1  A    between atoms: C2_2  and  N2_6 
REMARK    2  A    between atoms: C5_9  and  O1_10 
REMARK    3  A    between atoms: O1_10  and  C6_11 
REMARK    4  A    between atoms: N4_19  and  C12_20 
REMARK    5  A    between atoms: C12_20  and  C13_21 
REMARK    6  A    between atoms: C19_27  and  C20_28 
ROOT
HETATM    1  C6  UNL     1      29.024   1.499  54.922  1.00  0.00     0.071 A 
HETATM    2  C7  UNL     1      29.256   1.541  53.567  1.00  0.00     0.039 A 
HETATM    3  C8  UNL     1      28.754   2.549  52.750  1.00  0.00     0.035 A 
HETATM    4  C9  UNL     1      27.999   3.528  53.356  1.00  0.00     0.060 A 
HETATM    5  N3  UNL     1      27.365   4.634  52.873  1.00  0.00    -0.344 N 
ATOM      6  H3  UNL     1      27.353   4.936  51.899  1.00  0.00     0.167 HD
HETATM    7  C10 UNL     1      26.766   5.252  53.891  1.00  0.00     0.080 A 
HETATM    8  C11 UNL     1      25.966   6.503  53.775  1.00  0.00     0.089 C 
HETATM    9  N4  UNL     1      26.983   4.584  55.041  1.00  0.00    -0.331 N 
HETATM   10  C24 UNL     1      27.732   3.534  54.728  1.00  0.00     0.065 A 
HETATM   11  C25 UNL     1      28.249   2.518  55.493  1.00  0.00     0.068 A 
ENDROOT
BRANCH   9  12
HETATM   12  C12 UNL     1      26.493   4.939  56.351  1.00  0.00     0.169 C 
BRANCH  12  13
HETATM   13  C13 UNL     1      25.479   4.005  56.884  1.00  0.00    -0.039 A 
HETATM   14  C14 UNL     1      25.638   3.501  58.153  1.00  0.00     0.010 A 
HETATM   15  C15 UNL     1      24.732   2.625  58.720  1.00  0.00     0.013 A 
HETATM   16  C16 UNL     1      23.621   2.225  58.014  1.00  0.00    -0.026 A 
HETATM   17  C17 UNL     1      22.714   1.352  58.575  1.00  0.00     0.013 A 
HETATM   18  C22 UNL     1      23.427   2.715  56.724  1.00  0.00    -0.025 A 
HETATM   19  C18 UNL     1      21.600   0.973  57.821  1.00  0.00     0.015 A 
HETATM   20  C19 UNL     1      21.371   1.431  56.549  1.00  0.00     0.005 A 
HETATM   21  C21 UNL     1      22.317   2.314  56.020  1.00  0.00     0.027 A 
HETATM   22  C23 UNL     1      24.362   3.593  56.193  1.00  0.00     0.021 A 
BRANCH  20  23
HETATM   23  C20 UNL     1      20.220   1.044  55.759  1.00  0.00     0.120 C 
HETATM   24  N5  UNL     1      19.527  -0.145  56.134  1.00  0.00    -0.082 NA
HETATM   25  N6  UNL     1      19.792   1.702  54.752  1.00  0.00    -0.387 N 
ATOM     26  H62 UNL     1      20.288   2.552  54.484  1.00  0.00     0.157 HD
ATOM     27  H61 UNL     1      18.981   1.430  54.197  1.00  0.00     0.157 HD
ENDBRANCH  20  23
ENDBRANCH  12  13
ENDBRANCH   9  12
BRANCH   1  28
HETATM   28  O1  UNL     1      29.507   0.520  55.738  1.00  0.00    -0.346 OA
BRANCH  28  29
HETATM   29  C5  UNL     1      30.346   0.666  56.844  1.00  0.00     0.132 C 
HETATM   30  C4  UNL     1      29.493   0.484  58.082  1.00  0.00     0.052 C 
HETATM   31  C3  UNL     1      30.285  -0.205  59.148  1.00  0.00     0.126 C 
HETATM   32  N2  UNL     1      31.663   0.192  59.053  1.00  0.00    -0.371 N 
HETATM   33  C27 UNL     1      32.398  -0.300  57.882  1.00  0.00     0.126 C 
HETATM   34  C26 UNL     1      31.418  -0.413  56.722  1.00  0.00     0.052 C 
BRANCH  32  35
HETATM   35  C2  UNL     1      32.274   1.007  60.025  1.00  0.00     0.068 C 
HETATM   36  C1  UNL     1      31.632   1.181  61.349  1.00  0.00     0.088 C 
HETATM   37  N1  UNL     1      33.385   1.610  59.800  1.00  0.00    -0.389 N 
ATOM     38  H12 UNL     1      33.828   2.200  60.504  1.00  0.00     0.157 HD
ATOM     39  H11 UNL     1      33.827   1.489  58.889  1.00  0.00     0.157 HD
ENDBRANCH  32  35
ENDBRANCH  28  29
ENDBRANCH   1  28
TORSDOF 6
ENDMDL
