MODEL 3
REMARK VINA RESULT: -9.087347573      1.715      8.787
REMARK  6 active torsions:
REMARK  status: ('A' for Active; 'I' for Inactive)
REMARK    1  A    between atoms: C2_2  and  N2_6 
REMARK    2  A    between atoms: C5_9  and  O1_10 
REMARK    3  A    between atoms: O1_10  and  C6_11 
REMARK    4  A    between atoms: N4_19  and  C12_20 
REMARK    5  A    between atoms: C12_20  and  C13_21 
REMARK    6  A    between atoms: C19_27  and  C20_28 
ROOT
HETATM    1  C6  UNL     1      25.608   2.051  58.169  1.00  0.00     0.071 A 
HETATM    2  C7  UNL     1      25.670   3.416  58.324  1.00  0.00     0.039 A 
HETATM    3  C8  UNL     1      26.833   4.145  58.101  1.00  0.00     0.035 A 
HETATM    4  C9  UNL     1      27.949   3.439  57.709  1.00  0.00     0.060 A 
HETATM    5  N3  UNL     1      29.224   3.821  57.414  1.00  0.00    -0.344 N 
ATOM      6  H3  UNL     1      29.581   4.776  57.439  1.00  0.00     0.167 HD
HETATM    7  C10 UNL     1      29.923   2.734  57.088  1.00  0.00     0.080 A 
HETATM    8  C11 UNL     1      31.361   2.730  56.702  1.00  0.00     0.089 C 
HETATM    9  N4  UNL     1      29.144   1.636  57.159  1.00  0.00    -0.331 N 
HETATM   10  C24 UNL     1      27.942   2.053  57.535  1.00  0.00     0.065 A 
HETATM   11  C25 UNL     1      26.769   1.376  57.768  1.00  0.00     0.068 A 
ENDROOT
BRANCH   9  12
HETATM   12  C12 UNL     1      29.543   0.276  56.885  1.00  0.00     0.169 C 
BRANCH  12  13
HETATM   13  C13 UNL     1      29.504  -0.080  55.450  1.00  0.00    -0.039 A 
HETATM   14  C14 UNL     1      29.104   0.867  54.539  1.00  0.00     0.010 A 
HETATM   15  C15 UNL     1      29.045   0.610  53.182  1.00  0.00     0.013 A 
HETATM   16  C16 UNL     1      29.393  -0.629  52.696  1.00  0.00    -0.026 A 
HETATM   17  C17 UNL     1      29.336  -0.891  51.345  1.00  0.00     0.013 A 
HETATM   18  C22 UNL     1      29.804  -1.615  53.592  1.00  0.00    -0.025 A 
HETATM   19  C18 UNL     1      29.699  -2.164  50.897  1.00  0.00     0.015 A 
HETATM   20  C19 UNL     1      30.108  -3.163  51.743  1.00  0.00     0.005 A 
HETATM   21  C21 UNL     1      30.151  -2.852  53.105  1.00  0.00     0.027 A 
HETATM   22  C23 UNL     1      29.849  -1.314  54.947  1.00  0.00     0.021 A 
BRANCH  20  23
HETATM   23  C20 UNL     1      30.487  -4.485  51.289  1.00  0.00     0.120 C 
HETATM   24  N5  UNL     1      31.643  -4.596  50.459  1.00  0.00    -0.082 NA
HETATM   25  N6  UNL     1      29.850  -5.551  51.585  1.00  0.00    -0.387 N 
ATOM     26  H62 UNL     1      29.024  -5.471  52.178  1.00  0.00     0.157 HD
ATOM     27  H61 UNL     1      30.116  -6.481  51.265  1.00  0.00     0.157 HD
ENDBRANCH  20  23
ENDBRANCH  12  13
ENDBRANCH   9  12
BRANCH   1  28
HETATM   28  O1  UNL     1      24.477   1.320  58.383  1.00  0.00    -0.346 OA
BRANCH  28  29
HETATM   29  C5  UNL     1      23.357   1.217  57.557  1.00  0.00     0.132 C 
HETATM   30  C4  UNL     1      22.316   0.416  58.311  1.00  0.00     0.052 C 
HETATM   31  C3  UNL     1      20.948   0.932  57.993  1.00  0.00     0.126 C 
HETATM   32  N2  UNL     1      20.917   1.399  56.634  1.00  0.00    -0.371 N 
HETATM   33  C27 UNL     1      21.683   2.619  56.351  1.00  0.00     0.126 C 
HETATM   34  C26 UNL     1      22.892   2.643  57.278  1.00  0.00     0.052 C 
BRANCH  32  35
HETATM   35  C2  UNL     1      20.195   0.726  55.630  1.00  0.00     0.068 C 
HETATM   36  C1  UNL     1      20.432   1.056  54.206  1.00  0.00     0.088 C 
HETATM   37  N1  UNL     1      19.328  -0.178  55.912  1.00  0.00    -0.389 N 
ATOM     38  H12 UNL     1      18.804  -0.666  55.184  1.00  0.00     0.157 HD
ATOM     39  H11 UNL     1      19.165  -0.406  56.893  1.00  0.00     0.157 HD
ENDBRANCH  32  35
ENDBRANCH  28  29
ENDBRANCH   1  28
TORSDOF 6
ENDMDL
