MODEL 3
REMARK VINA RESULT: -7.563028298      0.981      1.770
REMARK  9 active torsions:
REMARK  status: ('A' for Active; 'I' for Inactive)
REMARK    1  A    between atoms: C4_4  and  C5_5 
REMARK    2  A    between atoms: C5_5  and  C6_6 
REMARK    3  A    between atoms: C6_6  and  C7_7 
REMARK    4  A    between atoms: C9_9  and  C10_10 
REMARK    5  A    between atoms: C10_10  and  C11_11 
REMARK    6  A    between atoms: C11_11  and  C12_12 
REMARK    7  A    between atoms: C14_14  and  C15_15 
REMARK    8  A    between atoms: C15_15  and  O1_16 
REMARK    9  A    between atoms: C15_15  and  P1_18 
ROOT
HETATM    1  C11 UNL     1     186.824 129.454  31.170  1.00  0.00     0.037 C 
ENDROOT
BRANCH   1   2
HETATM    2  C10 UNL     1     186.000 128.260  31.605  1.00  0.00     0.031 C 
BRANCH   2   3
HETATM    3  C9  UNL     1     186.869 127.073  31.499  1.00  0.00    -0.024 C 
HETATM    4  C7  UNL     1     186.968 126.180  32.505  1.00  0.00    -0.087 C 
HETATM    5  C8  UNL     1     186.175 126.333  33.738  1.00  0.00     0.043 C 
BRANCH   4   6
HETATM    6  C6  UNL     1     187.859 125.020  32.323  1.00  0.00     0.037 C 
BRANCH   6   7
HETATM    7  C5  UNL     1     187.461 124.009  31.317  1.00  0.00     0.031 C 
BRANCH   7   8
HETATM    8  C4  UNL     1     186.348 123.134  31.709  1.00  0.00    -0.024 C 
HETATM    9  C2  UNL     1     185.369 122.862  30.826  1.00  0.00    -0.091 C 
HETATM   10  C1  UNL     1     185.418 123.443  29.473  1.00  0.00     0.042 C 
HETATM   11  C3  UNL     1     184.221 121.984  31.171  1.00  0.00     0.042 C 
ENDBRANCH   7   8
ENDBRANCH   6   7
ENDBRANCH   4   6
ENDBRANCH   2   3
ENDBRANCH   1   2
BRANCH   1  12
HETATM   12  C12 UNL     1     186.850 129.599  29.695  1.00  0.00    -0.084 C 
HETATM   13  C13 UNL     1     187.970 130.382  29.105  1.00  0.00     0.043 C 
HETATM   14  C14 UNL     1     185.952 129.084  28.875  1.00  0.00     0.021 C 
BRANCH  14  15
HETATM   15  C15 UNL     1     186.056 129.279  27.406  1.00  0.00     0.270 C 
BRANCH  15  16
HETATM   16  O1  UNL     1     186.422 127.995  26.925  1.00  0.00    -0.378 OA
ATOM     17  H1  UNL     1     187.208 128.164  26.418  1.00  0.00     0.211 HD
ENDBRANCH  15  16
BRANCH  15  18
HETATM   18  P1  UNL     1     184.710 129.973  26.545  1.00  0.00     0.293 P 
HETATM   19  O2  UNL     1     185.131 131.444  26.701  1.00  0.00    -0.638 OA
HETATM   20  O3  UNL     1     184.623 130.009  24.939  1.00  0.00    -0.638 OA
HETATM   21  O4  UNL     1     183.307 130.443  27.430  1.00  0.00    -0.638 OA
ENDBRANCH  15  18
ENDBRANCH  14  15
ENDBRANCH   1  12
TORSDOF 9
ENDMDL
