MODEL 1
REMARK VINA RESULT: -7.601632563      0.000      0.000
REMARK  9 active torsions:
REMARK  status: ('A' for Active; 'I' for Inactive)
REMARK    1  A    between atoms: C4_4  and  C5_5 
REMARK    2  A    between atoms: C5_5  and  C6_6 
REMARK    3  A    between atoms: C6_6  and  C7_7 
REMARK    4  A    between atoms: C9_9  and  C10_10 
REMARK    5  A    between atoms: C10_10  and  C11_11 
REMARK    6  A    between atoms: C11_11  and  C12_12 
REMARK    7  A    between atoms: C14_14  and  C15_15 
REMARK    8  A    between atoms: C15_15  and  O1_16 
REMARK    9  A    between atoms: C15_15  and  P1_18 
ROOT
HETATM    1  C11 UNL     1     186.852 128.989  30.317  1.00  0.00     0.037 C 
ENDROOT
BRANCH   1   2
HETATM    2  C10 UNL     1     186.163 128.130  31.357  1.00  0.00     0.031 C 
BRANCH   2   3
HETATM    3  C9  UNL     1     186.944 126.884  31.474  1.00  0.00    -0.024 C 
HETATM    4  C7  UNL     1     186.925 126.143  32.601  1.00  0.00    -0.087 C 
HETATM    5  C8  UNL     1     186.085 126.528  33.749  1.00  0.00     0.043 C 
BRANCH   4   6
HETATM    6  C6  UNL     1     187.734 124.912  32.639  1.00  0.00     0.037 C 
BRANCH   6   7
HETATM    7  C5  UNL     1     187.484 123.901  31.587  1.00  0.00     0.031 C 
BRANCH   7   8
HETATM    8  C4  UNL     1     186.339 123.012  31.826  1.00  0.00    -0.024 C 
HETATM    9  C2  UNL     1     185.400 122.860  30.873  1.00  0.00    -0.091 C 
HETATM   10  C1  UNL     1     185.525 123.585  29.596  1.00  0.00     0.042 C 
HETATM   11  C3  UNL     1     184.222 121.974  31.063  1.00  0.00     0.042 C 
ENDBRANCH   7   8
ENDBRANCH   6   7
ENDBRANCH   4   6
ENDBRANCH   2   3
ENDBRANCH   1   2
BRANCH   1  12
HETATM   12  C12 UNL     1     186.136 128.968  29.020  1.00  0.00    -0.084 C 
HETATM   13  C13 UNL     1     186.221 127.721  28.212  1.00  0.00     0.043 C 
HETATM   14  C14 UNL     1     185.432 129.976  28.536  1.00  0.00     0.021 C 
BRANCH  14  15
HETATM   15  C15 UNL     1     184.744 129.868  27.223  1.00  0.00     0.270 C 
BRANCH  15  16
HETATM   16  O1  UNL     1     183.468 130.436  27.470  1.00  0.00    -0.378 OA
ATOM     17  H1  UNL     1     183.247 130.853  26.645  1.00  0.00     0.211 HD
ENDBRANCH  15  16
BRANCH  15  18
HETATM   18  P1  UNL     1     185.519 130.515  25.803  1.00  0.00     0.293 P 
HETATM   19  O2  UNL     1     184.435 130.098  24.796  1.00  0.00    -0.638 OA
HETATM   20  O3  UNL     1     185.487 132.078  25.424  1.00  0.00    -0.638 OA
HETATM   21  O4  UNL     1     186.552 129.491  24.878  1.00  0.00    -0.638 OA
ENDBRANCH  15  18
ENDBRANCH  14  15
ENDBRANCH   1  12
TORSDOF 9
ENDMDL
