MODEL 5
REMARK VINA RESULT: -8.822010516      3.179     10.982
REMARK  14 active torsions:
REMARK  status: ('A' for Active; 'I' for Inactive)
REMARK    1  A    between atoms: N1_3  and  C2_4 
REMARK    2  A    between atoms: C2_4  and  C3_5 
REMARK    3  A    between atoms: C6_8  and  C7_9 
REMARK    4  A    between atoms: C7_9  and  O2_10 
REMARK    5  A    between atoms: C10_14  and  C11_15 
REMARK    6  A    between atoms: C11_15  and  C12_16 
REMARK    7  A    between atoms: C18_22  and  O3_23 
REMARK    8  A    between atoms: C19_25  and  O4_26 
REMARK    9  A    between atoms: C20_28  and  C21_29 
REMARK   10  A    between atoms: C21_29  and  C22_30 
REMARK   11  A    between atoms: N2_36  and  C28_37 
REMARK   12  A    between atoms: C28_37  and  C29_38 
REMARK   13  A    between atoms: C32_41  and  C33_42 
REMARK   14  A    between atoms: C33_42  and  O5_43 
ROOT
HETATM    1  O1  UNL     1     -12.582  14.109  28.474  1.00  0.00    -0.247 OA
HETATM    2  C1  UNL     1     -11.740  14.566  29.339  1.00  0.00     0.322 C 
HETATM    3  N1  UNL     1     -12.198  14.505  30.674  1.00  0.00    -0.322 N 
HETATM    4  C10 UNL     1     -11.516  14.718  31.940  1.00  0.00     0.124 C 
HETATM    5  C18 UNL     1     -10.154  15.261  31.684  1.00  0.00     0.172 C 
HETATM    6  C19 UNL     1     -10.146  16.441  30.759  1.00  0.00     0.172 C 
HETATM    7  C20 UNL     1      -9.706  16.114  29.367  1.00  0.00     0.124 C 
HETATM    8  N2  UNL     1     -10.515  15.042  28.792  1.00  0.00    -0.322 N 
ENDROOT
BRANCH   3   9
HETATM    9  C2  UNL     1     -13.608  14.157  30.783  1.00  0.00     0.166 C 
BRANCH   9  10
HETATM   10  C3  UNL     1     -13.783  12.780  31.294  1.00  0.00    -0.040 A 
HETATM   11  C4  UNL     1     -14.531  12.538  32.425  1.00  0.00     0.009 A 
HETATM   12  C5  UNL     1     -14.708  11.265  32.931  1.00  0.00     0.010 A 
HETATM   13  C6  UNL     1     -14.138  10.179  32.316  1.00  0.00    -0.035 A 
HETATM   14  C8  UNL     1     -13.386  10.398  31.182  1.00  0.00     0.010 A 
HETATM   15  C9  UNL     1     -13.208  11.684  30.673  1.00  0.00     0.009 A 
BRANCH  13  16
HETATM   16  C7  UNL     1     -14.320   8.784  32.852  1.00  0.00     0.202 C 
BRANCH  16  17
HETATM   17  O2  UNL     1     -13.082   8.283  33.193  1.00  0.00    -0.396 OA
ATOM     18  H2  UNL     1     -12.834   8.641  34.037  1.00  0.00     0.209 HD
ENDBRANCH  16  17
ENDBRANCH  13  16
ENDBRANCH   9  10
ENDBRANCH   3   9
BRANCH   4  19
HETATM   19  C11 UNL     1     -12.356  15.396  32.942  1.00  0.00     0.066 C 
BRANCH  19  20
HETATM   20  C12 UNL     1     -12.026  14.964  34.311  1.00  0.00    -0.056 A 
HETATM   21  C13 UNL     1     -11.820  15.798  35.387  1.00  0.00     0.007 A 
HETATM   22  C14 UNL     1     -11.511  15.331  36.641  1.00  0.00     0.001 A 
HETATM   23  C15 UNL     1     -11.392  13.982  36.880  1.00  0.00     0.000 A 
HETATM   24  C16 UNL     1     -11.591  13.111  35.826  1.00  0.00     0.001 A 
HETATM   25  C17 UNL     1     -11.901  13.598  34.577  1.00  0.00     0.007 A 
ENDBRANCH  19  20
ENDBRANCH   4  19
BRANCH   8  26
HETATM   26  C28 UNL     1     -10.103  14.389  27.581  1.00  0.00     0.166 C 
BRANCH  26  27
HETATM   27  C29 UNL     1      -9.659  15.342  26.512  1.00  0.00    -0.040 A 
HETATM   28  C30 UNL     1      -8.488  15.132  25.778  1.00  0.00     0.009 A 
HETATM   29  C31 UNL     1      -8.069  15.999  24.795  1.00  0.00     0.010 A 
HETATM   30  C32 UNL     1      -8.798  17.128  24.491  1.00  0.00    -0.035 A 
HETATM   31  C34 UNL     1      -9.956  17.354  25.202  1.00  0.00     0.010 A 
HETATM   32  C35 UNL     1     -10.364  16.478  26.182  1.00  0.00     0.009 A 
BRANCH  30  33
HETATM   33  C33 UNL     1      -8.346  18.078  23.422  1.00  0.00     0.202 C 
BRANCH  33  34
HETATM   34  O5  UNL     1      -7.404  18.968  23.898  1.00  0.00    -0.396 OA
ATOM     35  H5  UNL     1      -7.808  19.758  24.238  1.00  0.00     0.209 HD
ENDBRANCH  33  34
ENDBRANCH  30  33
ENDBRANCH  26  27
ENDBRANCH   8  26
BRANCH   5  36
HETATM   36  O3  UNL     1      -9.399  15.411  32.826  1.00  0.00    -0.391 OA
ATOM     37  H3  UNL     1      -8.865  14.652  33.029  1.00  0.00     0.210 HD
ENDBRANCH   5  36
BRANCH   7  38
HETATM   38  C21 UNL     1      -8.263  15.813  29.200  1.00  0.00     0.066 C 
BRANCH  38  39
HETATM   39  C22 UNL     1      -7.449  16.809  28.506  1.00  0.00    -0.056 A 
HETATM   40  C23 UNL     1      -7.852  18.085  28.197  1.00  0.00     0.007 A 
HETATM   41  C24 UNL     1      -7.068  18.988  27.514  1.00  0.00     0.001 A 
HETATM   42  C25 UNL     1      -5.805  18.608  27.112  1.00  0.00     0.000 A 
HETATM   43  C26 UNL     1      -5.355  17.334  27.401  1.00  0.00     0.001 A 
HETATM   44  C27 UNL     1      -6.181  16.457  28.092  1.00  0.00     0.007 A 
ENDBRANCH  38  39
ENDBRANCH   7  38
BRANCH   6  45
HETATM   45  O4  UNL     1      -9.324  17.420  31.284  1.00  0.00    -0.391 OA
ATOM     46  H4  UNL     1      -9.402  18.206  30.756  1.00  0.00     0.210 HD
ENDBRANCH   6  45
TORSDOF 14
ENDMDL
