MODEL 8
REMARK VINA RESULT: -8.593893502      3.164     10.970
REMARK  14 active torsions:
REMARK  status: ('A' for Active; 'I' for Inactive)
REMARK    1  A    between atoms: N1_3  and  C2_4 
REMARK    2  A    between atoms: C2_4  and  C3_5 
REMARK    3  A    between atoms: C6_8  and  C7_9 
REMARK    4  A    between atoms: C7_9  and  O2_10 
REMARK    5  A    between atoms: C10_14  and  C11_15 
REMARK    6  A    between atoms: C11_15  and  C12_16 
REMARK    7  A    between atoms: C18_22  and  O3_23 
REMARK    8  A    between atoms: C19_25  and  O4_26 
REMARK    9  A    between atoms: C20_28  and  C21_29 
REMARK   10  A    between atoms: C21_29  and  C22_30 
REMARK   11  A    between atoms: N2_36  and  C28_37 
REMARK   12  A    between atoms: C28_37  and  C29_38 
REMARK   13  A    between atoms: C32_41  and  C33_42 
REMARK   14  A    between atoms: C33_42  and  O5_43 
ROOT
HETATM    1  O1  UNL     1     -12.452  14.039  28.392  1.00  0.00    -0.247 OA
HETATM    2  C1  UNL     1     -11.628  14.497  29.274  1.00  0.00     0.322 C 
HETATM    3  N1  UNL     1     -12.112  14.432  30.600  1.00  0.00    -0.322 N 
HETATM    4  C10 UNL     1     -11.456  14.646  31.879  1.00  0.00     0.124 C 
HETATM    5  C18 UNL     1     -10.091  15.192  31.651  1.00  0.00     0.172 C 
HETATM    6  C19 UNL     1     -10.068  16.374  30.728  1.00  0.00     0.172 C 
HETATM    7  C20 UNL     1      -9.599  16.050  29.344  1.00  0.00     0.124 C 
HETATM    8  N2  UNL     1     -10.394  14.977  28.752  1.00  0.00    -0.322 N 
ENDROOT
BRANCH   3   9
HETATM    9  C2  UNL     1     -13.523  14.081  30.680  1.00  0.00     0.166 C 
BRANCH   9  10
HETATM   10  C3  UNL     1     -13.705  12.709  31.201  1.00  0.00    -0.040 A 
HETATM   11  C4  UNL     1     -14.459  12.478  32.330  1.00  0.00     0.009 A 
HETATM   12  C5  UNL     1     -14.643  11.210  32.846  1.00  0.00     0.010 A 
HETATM   13  C6  UNL     1     -14.074  10.117  32.241  1.00  0.00    -0.035 A 
HETATM   14  C8  UNL     1     -13.315  10.324  31.110  1.00  0.00     0.010 A 
HETATM   15  C9  UNL     1     -13.131  11.606  30.591  1.00  0.00     0.009 A 
BRANCH  13  16
HETATM   16  C7  UNL     1     -14.263   8.727  32.787  1.00  0.00     0.202 C 
BRANCH  16  17
HETATM   17  O2  UNL     1     -13.020   8.177  33.021  1.00  0.00    -0.396 OA
ATOM     18  H2  UNL     1     -13.114   7.480  33.659  1.00  0.00     0.209 HD
ENDBRANCH  16  17
ENDBRANCH  13  16
ENDBRANCH   9  10
ENDBRANCH   3   9
BRANCH   4  19
HETATM   19  C11 UNL     1     -12.318  15.319  32.866  1.00  0.00     0.066 C 
BRANCH  19  20
HETATM   20  C12 UNL     1     -12.034  14.864  34.237  1.00  0.00    -0.056 A 
HETATM   21  C13 UNL     1     -11.856  13.555  34.626  1.00  0.00     0.007 A 
HETATM   22  C14 UNL     1     -11.596  13.195  35.926  1.00  0.00     0.001 A 
HETATM   23  C15 UNL     1     -11.502  14.145  36.914  1.00  0.00     0.000 A 
HETATM   24  C16 UNL     1     -11.676  15.471  36.565  1.00  0.00     0.001 A 
HETATM   25  C17 UNL     1     -11.934  15.813  35.258  1.00  0.00     0.007 A 
ENDBRANCH  19  20
ENDBRANCH   4  19
BRANCH   8  26
HETATM   26  C28 UNL     1      -9.957  14.328  27.548  1.00  0.00     0.166 C 
BRANCH  26  27
HETATM   27  C29 UNL     1      -9.552  15.285  26.468  1.00  0.00    -0.040 A 
HETATM   28  C30 UNL     1     -10.321  16.409  26.154  1.00  0.00     0.009 A 
HETATM   29  C31 UNL     1      -9.962  17.296  25.165  1.00  0.00     0.010 A 
HETATM   30  C32 UNL     1      -8.810  17.106  24.431  1.00  0.00    -0.035 A 
HETATM   31  C34 UNL     1      -8.037  16.004  24.724  1.00  0.00     0.010 A 
HETATM   32  C35 UNL     1      -8.409  15.126  25.717  1.00  0.00     0.009 A 
BRANCH  30  33
HETATM   33  C33 UNL     1      -8.413  18.066  23.349  1.00  0.00     0.202 C 
BRANCH  33  34
HETATM   34  O5  UNL     1      -8.750  17.591  22.098  1.00  0.00    -0.396 OA
ATOM     35  H5  UNL     1      -9.062  18.287  21.531  1.00  0.00     0.209 HD
ENDBRANCH  33  34
ENDBRANCH  30  33
ENDBRANCH  26  27
ENDBRANCH   8  26
BRANCH   5  36
HETATM   36  O3  UNL     1      -9.359  15.342  32.807  1.00  0.00    -0.391 OA
ATOM     37  H3  UNL     1      -9.485  14.636  33.430  1.00  0.00     0.210 HD
ENDBRANCH   5  36
BRANCH   7  38
HETATM   38  C21 UNL     1      -8.153  15.753  29.205  1.00  0.00     0.066 C 
BRANCH  38  39
HETATM   39  C22 UNL     1      -7.342  16.715  28.461  1.00  0.00    -0.056 A 
HETATM   40  C23 UNL     1      -6.070  16.486  27.995  1.00  0.00     0.007 A 
HETATM   41  C24 UNL     1      -5.323  17.428  27.322  1.00  0.00     0.001 A 
HETATM   42  C25 UNL     1      -5.867  18.674  27.094  1.00  0.00     0.000 A 
HETATM   43  C26 UNL     1      -7.143  18.951  27.543  1.00  0.00     0.001 A 
HETATM   44  C27 UNL     1      -7.860  17.970  28.218  1.00  0.00     0.007 A 
ENDBRANCH  38  39
ENDBRANCH   7  38
BRANCH   6  45
HETATM   45  O4  UNL     1      -9.259  17.354  31.271  1.00  0.00    -0.391 OA
ATOM     46  H4  UNL     1      -9.788  17.928  31.812  1.00  0.00     0.210 HD
ENDBRANCH   6  45
TORSDOF 14
ENDMDL
