MODEL 1
REMARK VINA RESULT: -9.078917898      0.000      0.000
REMARK  14 active torsions:
REMARK  status: ('A' for Active; 'I' for Inactive)
REMARK    1  A    between atoms: N1_3  and  C2_4 
REMARK    2  A    between atoms: C2_4  and  C3_5 
REMARK    3  A    between atoms: C6_8  and  C7_9 
REMARK    4  A    between atoms: C7_9  and  O2_10 
REMARK    5  A    between atoms: C10_14  and  C11_15 
REMARK    6  A    between atoms: C11_15  and  C12_16 
REMARK    7  A    between atoms: C18_22  and  O3_23 
REMARK    8  A    between atoms: C19_25  and  O4_26 
REMARK    9  A    between atoms: C20_28  and  C21_29 
REMARK   10  A    between atoms: C21_29  and  C22_30 
REMARK   11  A    between atoms: N2_36  and  C28_37 
REMARK   12  A    between atoms: C28_37  and  C29_38 
REMARK   13  A    between atoms: C32_41  and  C33_42 
REMARK   14  A    between atoms: C33_42  and  O5_43 
ROOT
HETATM    1  O1  UNL     1      -6.112  17.994  27.739  1.00  0.00    -0.247 OA
HETATM    2  C1  UNL     1      -6.885  17.535  26.813  1.00  0.00     0.322 C 
HETATM    3  N1  UNL     1      -6.581  18.018  25.521  1.00  0.00    -0.322 N 
HETATM    4  C10 UNL     1      -7.053  17.618  24.205  1.00  0.00     0.124 C 
HETATM    5  C18 UNL     1      -8.174  16.650  24.353  1.00  0.00     0.172 C 
HETATM    6  C19 UNL     1      -9.246  17.118  25.289  1.00  0.00     0.172 C 
HETATM    7  C20 UNL     1      -9.200  16.466  26.635  1.00  0.00     0.124 C 
HETATM    8  N2  UNL     1      -7.891  16.633  27.262  1.00  0.00    -0.322 N 
ENDROOT
BRANCH   3   9
HETATM    9  C2  UNL     1      -5.614  19.107  25.526  1.00  0.00     0.166 C 
BRANCH   9  10
HETATM   10  C3  UNL     1      -4.296  18.657  25.029  1.00  0.00    -0.040 A 
HETATM   11  C4  UNL     1      -3.488  19.506  24.308  1.00  0.00     0.009 A 
HETATM   12  C5  UNL     1      -2.254  19.115  23.825  1.00  0.00     0.010 A 
HETATM   13  C6  UNL     1      -1.783  17.846  24.050  1.00  0.00    -0.035 A 
HETATM   14  C8  UNL     1      -2.575  16.979  24.770  1.00  0.00     0.010 A 
HETATM   15  C9  UNL     1      -3.820  17.376  25.257  1.00  0.00     0.009 A 
BRANCH  13  16
HETATM   16  C7  UNL     1      -0.441  17.400  23.532  1.00  0.00     0.202 C 
BRANCH  16  17
HETATM   17  O2  UNL     1      -0.176  16.143  24.032  1.00  0.00    -0.396 OA
ATOM     18  H2  UNL     1       0.065  15.576  23.308  1.00  0.00     0.209 HD
ENDBRANCH  16  17
ENDBRANCH  13  16
ENDBRANCH   9  10
ENDBRANCH   3   9
BRANCH   4  19
HETATM   19  C11 UNL     1      -7.234  18.755  23.286  1.00  0.00     0.066 C 
BRANCH  19  20
HETATM   20  C12 UNL     1      -6.813  18.420  21.916  1.00  0.00    -0.056 A 
HETATM   21  C13 UNL     1      -7.622  18.442  20.801  1.00  0.00     0.007 A 
HETATM   22  C14 UNL     1      -7.168  18.114  19.547  1.00  0.00     0.001 A 
HETATM   23  C15 UNL     1      -5.860  17.741  19.347  1.00  0.00     0.000 A 
HETATM   24  C16 UNL     1      -5.016  17.705  20.440  1.00  0.00     0.001 A 
HETATM   25  C17 UNL     1      -5.488  18.038  21.689  1.00  0.00     0.007 A 
ENDBRANCH  19  20
ENDBRANCH   4  19
BRANCH   8  26
HETATM   26  C28 UNL     1      -7.538  15.869  28.425  1.00  0.00     0.166 C 
BRANCH  26  27
HETATM   27  C29 UNL     1      -8.559  15.946  29.521  1.00  0.00    -0.040 A 
HETATM   28  C30 UNL     1      -8.944  14.816  30.249  1.00  0.00     0.009 A 
HETATM   29  C31 UNL     1      -9.880  14.873  31.256  1.00  0.00     0.010 A 
HETATM   30  C32 UNL     1     -10.485  16.066  31.592  1.00  0.00    -0.035 A 
HETATM   31  C34 UNL     1     -10.119  17.191  30.887  1.00  0.00     0.010 A 
HETATM   32  C35 UNL     1      -9.181  17.120  29.882  1.00  0.00     0.009 A 
BRANCH  30  33
HETATM   33  C33 UNL     1     -11.507  16.135  32.687  1.00  0.00     0.202 C 
BRANCH  33  34
HETATM   34  O5  UNL     1     -12.771  15.831  32.223  1.00  0.00    -0.396 OA
ATOM     35  H5  UNL     1     -13.446  16.247  32.747  1.00  0.00     0.209 HD
ENDBRANCH  33  34
ENDBRANCH  30  33
ENDBRANCH  26  27
ENDBRANCH   8  26
BRANCH   5  36
HETATM   36  O3  UNL     1      -8.626  16.147  23.154  1.00  0.00    -0.391 OA
ATOM     37  H3  UNL     1      -9.466  15.708  23.220  1.00  0.00     0.210 HD
ENDBRANCH   5  36
BRANCH   7  38
HETATM   38  C21 UNL     1      -9.610  15.041  26.676  1.00  0.00     0.066 C 
BRANCH  38  39
HETATM   39  C22 UNL     1     -10.839  14.720  27.400  1.00  0.00    -0.056 A 
HETATM   40  C23 UNL     1     -11.264  13.452  27.715  1.00  0.00     0.007 A 
HETATM   41  C24 UNL     1     -12.445  13.185  28.372  1.00  0.00     0.001 A 
HETATM   42  C25 UNL     1     -13.256  14.236  28.743  1.00  0.00     0.000 A 
HETATM   43  C26 UNL     1     -12.870  15.529  28.448  1.00  0.00     0.001 A 
HETATM   44  C27 UNL     1     -11.670  15.751  27.783  1.00  0.00     0.007 A 
ENDBRANCH  38  39
ENDBRANCH   7  38
BRANCH   6  45
HETATM   45  O4  UNL     1     -10.481  16.893  24.711  1.00  0.00    -0.391 OA
ATOM     46  H4  UNL     1     -11.098  16.638  25.386  1.00  0.00     0.210 HD
ENDBRANCH   6  45
TORSDOF 14
ENDMDL
