MODEL 1
REMARK VINA RESULT: -9.630440499      0.000      0.000
REMARK  12 active torsions:
REMARK  status: ('A' for Active; 'I' for Inactive)
REMARK       I    between atoms: C1_2  and  N1_3 
REMARK    1  A    between atoms: C1_2  and  C5_11 
REMARK    2  A    between atoms: N1_3  and  C2_5 
REMARK    3  A    between atoms: C9_15  and  C10_16 
REMARK    4  A    between atoms: C10_16  and  N3_17 
REMARK    5  A    between atoms: N4_20  and  C12_21 
REMARK    6  A    between atoms: C12_21  and  C13_22 
REMARK    7  A    between atoms: C16_25  and  C17_26 
REMARK    8  A    between atoms: C17_26  and  C18_27 
REMARK    9  A    between atoms: C24_33  and  O3_34 
REMARK   10  A    between atoms: C25_36  and  O4_37 
REMARK   11  A    between atoms: C26_39  and  C27_40 
REMARK   12  A    between atoms: C27_40  and  C28_41 
ROOT
HETATM    1  N3  UNL     1      -8.974  15.584  26.125  1.00  0.00    -0.322 N 
HETATM    2  C11 UNL     1     -10.149  15.300  26.867  1.00  0.00     0.325 C 
HETATM    3  O2  UNL     1     -11.039  14.586  26.281  1.00  0.00    -0.247 OA
HETATM    4  N4  UNL     1     -10.501  15.711  28.223  1.00  0.00    -0.304 N 
HETATM    5  C16 UNL     1      -9.551  16.005  29.210  1.00  0.00     0.029 C 
HETATM    6  C24 UNL     1      -8.370  16.859  28.704  1.00  0.00     0.195 C 
HETATM    7  C25 UNL     1      -8.571  17.540  27.421  1.00  0.00     0.175 C 
HETATM    8  C26 UNL     1      -8.139  16.769  26.195  1.00  0.00     0.125 C 
ENDROOT
BRANCH   1   9
HETATM    9  C10 UNL     1      -8.604  14.540  25.148  1.00  0.00     0.166 C 
BRANCH   9  10
HETATM   10  C9  UNL     1      -8.906  14.898  23.765  1.00  0.00    -0.039 A 
HETATM   11  C8  UNL     1     -10.211  14.938  23.337  1.00  0.00     0.009 A 
HETATM   12  C7  UNL     1     -10.532  15.271  22.031  1.00  0.00     0.002 A 
HETATM   13  C6  UNL     1      -9.480  15.567  21.160  1.00  0.00     0.017 A 
HETATM   14  C5  UNL     1      -8.162  15.539  21.547  1.00  0.00     0.033 A 
HETATM   15  C34 UNL     1      -7.914  15.196  22.871  1.00  0.00     0.026 A 
BRANCH  14  16
HETATM   16  C1  UNL     1      -7.085  15.839  20.623  1.00  0.00     0.257 C 
HETATM   17  O1  UNL     1      -7.362  16.051  19.412  1.00  0.00    -0.267 OA
HETATM   18  N1  UNL     1      -5.733  15.908  21.007  1.00  0.00    -0.303 N 
ATOM     19  H1  UNL     1      -5.481  15.738  21.980  1.00  0.00     0.171 HD
BRANCH  18  20
HETATM   20  C2  UNL     1      -4.693  16.215  20.050  1.00  0.00     0.151 A 
HETATM   21  N2  UNL     1      -4.437  17.376  19.472  1.00  0.00    -0.346 N 
HETATM   22  C3  UNL     1      -3.459  17.473  18.633  1.00  0.00     0.097 A 
ATOM     23  H2  UNL     1      -5.010  18.192  19.688  1.00  0.00     0.167 HD
HETATM   24  C4  UNL     1      -2.720  16.343  18.381  1.00  0.00     0.070 A 
HETATM   25  S1  UNL     1      -3.495  15.197  19.383  1.00  0.00    -0.064 SA
ENDBRANCH  18  20
ENDBRANCH  14  16
ENDBRANCH   9  10
ENDBRANCH   1   9
BRANCH   8  26
HETATM   26  C27 UNL     1      -6.708  16.477  26.099  1.00  0.00     0.066 C 
BRANCH  26  27
HETATM   27  C28 UNL     1      -5.980  17.223  25.051  1.00  0.00    -0.056 A 
HETATM   28  C29 UNL     1      -6.634  18.087  24.177  1.00  0.00     0.007 A 
HETATM   29  C30 UNL     1      -5.916  18.751  23.207  1.00  0.00     0.001 A 
HETATM   30  C31 UNL     1      -4.561  18.547  23.119  1.00  0.00     0.000 A 
HETATM   31  C32 UNL     1      -3.881  17.703  23.962  1.00  0.00     0.001 A 
HETATM   32  C33 UNL     1      -4.627  17.041  24.937  1.00  0.00     0.007 A 
ENDBRANCH  26  27
ENDBRANCH   8  26
BRANCH   4  33
HETATM   33  C12 UNL     1     -11.923  15.757  28.356  1.00  0.00     0.138 C 
BRANCH  33  34
HETATM   34  C13 UNL     1     -12.374  14.492  29.104  1.00  0.00     0.004 A 
HETATM   35  C14 UNL     1     -13.570  14.648  30.015  1.00  0.00     0.007 A 
HETATM   36  C15 UNL     1     -13.676  13.848  28.735  1.00  0.00     0.007 A 
ENDBRANCH  33  34
ENDBRANCH   4  33
BRANCH   7  37
HETATM   37  O4  UNL     1      -7.941  18.793  27.444  1.00  0.00    -0.391 OA
ATOM     38  H4  UNL     1      -8.590  19.478  27.556  1.00  0.00     0.210 HD
ENDBRANCH   7  37
BRANCH   5  39
HETATM   39  C17 UNL     1      -9.871  16.300  30.608  1.00  0.00     0.094 C 
BRANCH  39  40
HETATM   40  C18 UNL     1      -9.340  15.407  31.645  1.00  0.00    -0.053 A 
HETATM   41  C19 UNL     1     -10.064  15.412  32.852  1.00  0.00     0.007 A 
HETATM   42  C20 UNL     1      -9.754  14.595  33.906  1.00  0.00     0.001 A 
HETATM   43  C21 UNL     1      -8.695  13.719  33.811  1.00  0.00     0.000 A 
HETATM   44  C22 UNL     1      -7.983  13.719  32.612  1.00  0.00     0.001 A 
HETATM   45  C23 UNL     1      -8.309  14.543  31.573  1.00  0.00     0.007 A 
ENDBRANCH  39  40
ENDBRANCH   5  39
BRANCH   6  46
HETATM   46  O3  UNL     1      -8.142  17.836  29.705  1.00  0.00    -0.387 OA
ATOM     47  H3  UNL     1      -7.276  18.185  29.533  1.00  0.00     0.210 HD
ENDBRANCH   6  46
TORSDOF 12
ENDMDL
