MODEL 5
REMARK VINA RESULT: -8.823139298      2.000      4.663
REMARK  12 active torsions:
REMARK  status: ('A' for Active; 'I' for Inactive)
REMARK       I    between atoms: C1_2  and  N1_3 
REMARK    1  A    between atoms: C1_2  and  C5_11 
REMARK    2  A    between atoms: N1_3  and  C2_5 
REMARK    3  A    between atoms: C9_15  and  C10_16 
REMARK    4  A    between atoms: C10_16  and  N3_17 
REMARK    5  A    between atoms: N4_20  and  C12_21 
REMARK    6  A    between atoms: C12_21  and  C13_22 
REMARK    7  A    between atoms: C16_25  and  C17_26 
REMARK    8  A    between atoms: C17_26  and  C18_27 
REMARK    9  A    between atoms: C24_33  and  O3_34 
REMARK   10  A    between atoms: C25_36  and  O4_37 
REMARK   11  A    between atoms: C26_39  and  C27_40 
REMARK   12  A    between atoms: C27_40  and  C28_41 
ROOT
HETATM    1  N3  UNL     1      -9.832  16.333  28.174  1.00  0.00    -0.322 N 
HETATM    2  C11 UNL     1     -10.093  16.422  29.566  1.00  0.00     0.325 C 
HETATM    3  O2  UNL     1      -9.290  17.147  30.255  1.00  0.00    -0.247 OA
HETATM    4  N4  UNL     1     -11.159  15.795  30.344  1.00  0.00    -0.304 N 
HETATM    5  C16 UNL     1     -12.398  15.431  29.799  1.00  0.00     0.029 C 
HETATM    6  C24 UNL     1     -12.296  14.747  28.420  1.00  0.00     0.195 C 
HETATM    7  C25 UNL     1     -10.969  14.245  28.047  1.00  0.00     0.175 C 
HETATM    8  C26 UNL     1     -10.091  15.214  27.288  1.00  0.00     0.125 C 
ENDROOT
BRANCH   1   9
HETATM    9  C10 UNL     1      -9.189  17.531  27.598  1.00  0.00     0.166 C 
BRANCH   9  10
HETATM   10  C9  UNL     1      -7.778  17.339  27.271  1.00  0.00    -0.039 A 
HETATM   11  C8  UNL     1      -6.865  17.128  28.276  1.00  0.00     0.009 A 
HETATM   12  C7  UNL     1      -5.520  16.944  28.001  1.00  0.00     0.002 A 
HETATM   13  C6  UNL     1      -5.121  16.980  26.662  1.00  0.00     0.017 A 
HETATM   14  C5  UNL     1      -6.001  17.188  25.628  1.00  0.00     0.033 A 
HETATM   15  C34 UNL     1      -7.335  17.365  25.977  1.00  0.00     0.026 A 
BRANCH  14  16
HETATM   16  C1  UNL     1      -5.564  17.232  24.245  1.00  0.00     0.257 C 
HETATM   17  O1  UNL     1      -4.424  17.701  23.982  1.00  0.00    -0.267 OA
HETATM   18  N1  UNL     1      -6.349  16.777  23.171  1.00  0.00    -0.303 N 
ATOM     19  H1  UNL     1      -7.276  16.396  23.356  1.00  0.00     0.171 HD
BRANCH  18  20
HETATM   20  C2  UNL     1      -5.868  16.838  21.808  1.00  0.00     0.151 A 
HETATM   21  N2  UNL     1      -4.630  16.680  21.375  1.00  0.00    -0.346 N 
HETATM   22  C3  UNL     1      -4.376  16.768  20.111  1.00  0.00     0.097 A 
ATOM     23  H2  UNL     1      -3.877  16.490  22.036  1.00  0.00     0.167 HD
HETATM   24  C4  UNL     1      -5.428  17.024  19.265  1.00  0.00     0.070 A 
HETATM   25  S1  UNL     1      -6.732  17.124  20.363  1.00  0.00    -0.064 SA
ENDBRANCH  18  20
ENDBRANCH  14  16
ENDBRANCH   9  10
ENDBRANCH   1   9
BRANCH   8  26
HETATM   26  C27 UNL     1     -10.583  15.619  25.970  1.00  0.00     0.066 C 
BRANCH  26  27
HETATM   27  C28 UNL     1      -9.823  15.084  24.820  1.00  0.00    -0.056 A 
HETATM   28  C29 UNL     1      -8.655  14.346  24.993  1.00  0.00     0.007 A 
HETATM   29  C30 UNL     1      -7.972  13.879  23.891  1.00  0.00     0.001 A 
HETATM   30  C31 UNL     1      -8.459  14.152  22.636  1.00  0.00     0.000 A 
HETATM   31  C32 UNL     1      -9.606  14.877  22.427  1.00  0.00     0.001 A 
HETATM   32  C33 UNL     1     -10.282  15.339  23.556  1.00  0.00     0.007 A 
ENDBRANCH  26  27
ENDBRANCH   8  26
BRANCH   4  33
HETATM   33  C12 UNL     1     -10.731  15.628  31.697  1.00  0.00     0.138 C 
BRANCH  33  34
HETATM   34  C13 UNL     1      -9.744  14.450  31.743  1.00  0.00     0.004 A 
HETATM   35  C14 UNL     1      -8.363  14.760  32.271  1.00  0.00     0.007 A 
HETATM   36  C15 UNL     1      -9.319  13.904  33.072  1.00  0.00     0.007 A 
ENDBRANCH  33  34
ENDBRANCH   4  33
BRANCH   7  37
HETATM   37  O4  UNL     1     -11.098  13.050  27.323  1.00  0.00    -0.391 OA
ATOM     38  H4  UNL     1     -11.869  13.090  26.770  1.00  0.00     0.210 HD
ENDBRANCH   7  37
BRANCH   5  39
HETATM   39  C17 UNL     1     -13.526  14.915  30.575  1.00  0.00     0.094 C 
BRANCH  39  40
HETATM   40  C18 UNL     1     -13.274  13.828  31.528  1.00  0.00    -0.053 A 
HETATM   41  C19 UNL     1     -13.308  14.213  32.882  1.00  0.00     0.007 A 
HETATM   42  C20 UNL     1     -13.160  13.322  33.910  1.00  0.00     0.001 A 
HETATM   43  C21 UNL     1     -12.967  11.985  33.642  1.00  0.00     0.000 A 
HETATM   44  C22 UNL     1     -12.935  11.611  32.298  1.00  0.00     0.001 A 
HETATM   45  C23 UNL     1     -13.085  12.516  31.288  1.00  0.00     0.007 A 
ENDBRANCH  39  40
ENDBRANCH   5  39
BRANCH   6  46
HETATM   46  O3  UNL     1     -13.197  13.654  28.463  1.00  0.00    -0.387 OA
ATOM     47  H3  UNL     1     -12.934  13.073  27.759  1.00  0.00     0.210 HD
ENDBRANCH   6  46
TORSDOF 12
ENDMDL
