MODEL 6
REMARK VINA RESULT: -8.816656904      2.105      4.772
REMARK  12 active torsions:
REMARK  status: ('A' for Active; 'I' for Inactive)
REMARK       I    between atoms: C1_2  and  N1_3 
REMARK    1  A    between atoms: C1_2  and  C5_11 
REMARK    2  A    between atoms: N1_3  and  C2_5 
REMARK    3  A    between atoms: C9_15  and  C10_16 
REMARK    4  A    between atoms: C10_16  and  N3_17 
REMARK    5  A    between atoms: N4_20  and  C12_21 
REMARK    6  A    between atoms: C12_21  and  C13_22 
REMARK    7  A    between atoms: C16_25  and  C17_26 
REMARK    8  A    between atoms: C17_26  and  C18_27 
REMARK    9  A    between atoms: C24_33  and  O3_34 
REMARK   10  A    between atoms: C25_36  and  O4_37 
REMARK   11  A    between atoms: C26_39  and  C27_40 
REMARK   12  A    between atoms: C27_40  and  C28_41 
ROOT
HETATM    1  N3  UNL     1      -9.493  15.945  28.404  1.00  0.00    -0.322 N 
HETATM    2  C11 UNL     1      -9.705  15.709  29.787  1.00  0.00     0.325 C 
HETATM    3  O2  UNL     1      -8.853  16.225  30.595  1.00  0.00    -0.247 OA
HETATM    4  N4  UNL     1     -10.769  14.949  30.437  1.00  0.00    -0.304 N 
HETATM    5  C16 UNL     1     -12.039  14.763  29.872  1.00  0.00     0.029 C 
HETATM    6  C24 UNL     1     -12.008  14.422  28.368  1.00  0.00     0.195 C 
HETATM    7  C25 UNL     1     -10.715  13.983  27.834  1.00  0.00     0.175 C 
HETATM    8  C26 UNL     1      -9.824  15.077  27.290  1.00  0.00     0.125 C 
ENDROOT
BRANCH   1   9
HETATM    9  C10 UNL     1      -8.821  17.225  28.102  1.00  0.00     0.166 C 
BRANCH   9  10
HETATM   10  C9  UNL     1      -7.462  17.067  27.591  1.00  0.00    -0.039 A 
HETATM   11  C8  UNL     1      -6.425  16.835  28.463  1.00  0.00     0.009 A 
HETATM   12  C7  UNL     1      -5.124  16.683  28.012  1.00  0.00     0.002 A 
HETATM   13  C6  UNL     1      -4.900  16.774  26.636  1.00  0.00     0.017 A 
HETATM   14  C5  UNL     1      -5.907  17.004  25.731  1.00  0.00     0.033 A 
HETATM   15  C34 UNL     1      -7.187  17.147  26.253  1.00  0.00     0.026 A 
BRANCH  14  16
HETATM   16  C1  UNL     1      -5.650  17.105  24.307  1.00  0.00     0.257 C 
HETATM   17  O1  UNL     1      -6.600  17.413  23.537  1.00  0.00    -0.267 OA
HETATM   18  N1  UNL     1      -4.388  16.878  23.731  1.00  0.00    -0.303 N 
ATOM     19  H1  UNL     1      -3.603  16.624  24.331  1.00  0.00     0.171 HD
BRANCH  18  20
HETATM   20  C2  UNL     1      -4.178  16.995  22.305  1.00  0.00     0.151 A 
HETATM   21  N2  UNL     1      -4.938  16.527  21.330  1.00  0.00    -0.346 N 
HETATM   22  C3  UNL     1      -4.597  16.724  20.099  1.00  0.00     0.097 A 
ATOM     23  H2  UNL     1      -5.790  16.011  21.548  1.00  0.00     0.167 HD
HETATM   24  C4  UNL     1      -3.440  17.426  19.862  1.00  0.00     0.070 A 
HETATM   25  S1  UNL     1      -2.911  17.759  21.452  1.00  0.00    -0.064 SA
ENDBRANCH  18  20
ENDBRANCH  14  16
ENDBRANCH   9  10
ENDBRANCH   1   9
BRANCH   8  26
HETATM   26  C27 UNL     1     -10.341  15.798  26.126  1.00  0.00     0.066 C 
BRANCH  26  27
HETATM   27  C28 UNL     1      -9.821  15.342  24.818  1.00  0.00    -0.056 A 
HETATM   28  C29 UNL     1      -8.667  14.571  24.717  1.00  0.00     0.007 A 
HETATM   29  C30 UNL     1      -8.213  14.182  23.476  1.00  0.00     0.001 A 
HETATM   30  C31 UNL     1      -8.911  14.564  22.357  1.00  0.00     0.000 A 
HETATM   31  C32 UNL     1     -10.052  15.324  22.418  1.00  0.00     0.001 A 
HETATM   32  C33 UNL     1     -10.495  15.707  23.684  1.00  0.00     0.007 A 
ENDBRANCH  26  27
ENDBRANCH   8  26
BRANCH   4  33
HETATM   33  C12 UNL     1     -10.306  14.453  31.694  1.00  0.00     0.138 C 
BRANCH  33  34
HETATM   34  C13 UNL     1     -11.001  15.251  32.809  1.00  0.00     0.004 A 
HETATM   35  C14 UNL     1     -11.273  14.502  34.093  1.00  0.00     0.007 A 
HETATM   36  C15 UNL     1     -10.233  15.600  34.047  1.00  0.00     0.007 A 
ENDBRANCH  33  34
ENDBRANCH   4  33
BRANCH   7  37
HETATM   37  O4  UNL     1     -10.914  12.999  26.855  1.00  0.00    -0.391 OA
ATOM     38  H4  UNL     1     -11.179  13.405  26.038  1.00  0.00     0.210 HD
ENDBRANCH   7  37
BRANCH   5  39
HETATM   39  C17 UNL     1     -13.162  14.113  30.550  1.00  0.00     0.094 C 
BRANCH  39  40
HETATM   40  C18 UNL     1     -13.011  12.710  30.952  1.00  0.00    -0.053 A 
HETATM   41  C19 UNL     1     -13.599  12.386  32.190  1.00  0.00     0.007 A 
HETATM   42  C20 UNL     1     -13.614  11.113  32.694  1.00  0.00     0.001 A 
HETATM   43  C21 UNL     1     -13.037  10.084  31.983  1.00  0.00     0.000 A 
HETATM   44  C22 UNL     1     -12.458  10.412  30.757  1.00  0.00     0.001 A 
HETATM   45  C23 UNL     1     -12.454  11.688  30.273  1.00  0.00     0.007 A 
ENDBRANCH  39  40
ENDBRANCH   5  39
BRANCH   6  46
HETATM   46  O3  UNL     1     -12.950  13.380  28.188  1.00  0.00    -0.387 OA
ATOM     47  H3  UNL     1     -12.882  13.124  27.276  1.00  0.00     0.210 HD
ENDBRANCH   6  46
TORSDOF 12
ENDMDL
