MODEL 9
REMARK VINA RESULT: -8.059605664      2.133      7.905
REMARK  9 active torsions:
REMARK  status: ('A' for Active; 'I' for Inactive)
REMARK    1  A    between atoms: N1_1  and  C1_5 
REMARK    2  A    between atoms: C1_5  and  C2_6 
REMARK    3  A    between atoms: C1_5  and  C9_13 
REMARK    4  A    between atoms: C2_6  and  C3_7 
REMARK       I    between atoms: C9_13  and  N2_15 
REMARK    5  A    between atoms: C13_19  and  C14_20 
REMARK       I    between atoms: C14_20  and  N3_22 
REMARK    6  A    between atoms: N3_22  and  C15_24 
REMARK    7  A    between atoms: C15_24  and  C16_25 
REMARK    8  A    between atoms: C16_25  and  N4_26 
REMARK    9  A    between atoms: N4_26  and  C17_28 
ROOT
HETATM    1  C9  UNL     1      14.649 -12.360  20.507  1.00  0.00     0.251 C 
HETATM    2  O1  UNL     1      15.350 -11.836  21.451  1.00  0.00    -0.271 OA
HETATM    3  N2  UNL     1      15.070 -13.578  19.954  1.00  0.00    -0.337 N 
HETATM    4  C10 UNL     1      14.482 -14.371  18.898  1.00  0.00     0.127 C 
HETATM    5  C11 UNL     1      15.583 -15.360  18.478  1.00  0.00     0.022 C 
HETATM    6  C12 UNL     1      16.157 -15.690  19.863  1.00  0.00     0.037 C 
HETATM    7  C13 UNL     1      16.276 -14.294  20.407  1.00  0.00     0.179 C 
ENDROOT
BRANCH   7   8
HETATM    8  C14 UNL     1      17.490 -13.645  19.825  1.00  0.00     0.240 C 
HETATM    9  O2  UNL     1      17.414 -12.733  18.975  1.00  0.00    -0.271 OA
HETATM   10  N3  UNL     1      18.748 -14.097  20.268  1.00  0.00    -0.358 N 
ATOM     11  H3  UNL     1      18.758 -14.846  20.960  1.00  0.00     0.162 HD
BRANCH  10  12
HETATM   12  C15 UNL     1      20.028 -13.587  19.822  1.00  0.00     0.142 C 
BRANCH  12  13
HETATM   13  C16 UNL     1      20.913 -13.370  21.033  1.00  0.00     0.139 C 
BRANCH  13  14
HETATM   14  N4  UNL     1      20.878 -14.441  21.979  1.00  0.00    -0.388 N 
ATOM     15  H4  UNL     1      20.575 -15.358  21.650  1.00  0.00     0.159 HD
BRANCH  14  16
HETATM   16  C17 UNL     1      21.233 -14.313  23.331  1.00  0.00     0.030 A 
HETATM   17  C18 UNL     1      22.509 -14.444  23.808  1.00  0.00     0.046 A 
HETATM   18  C19 UNL     1      22.791 -14.289  25.151  1.00  0.00     0.089 A 
HETATM   19  N5  UNL     1      21.817 -14.007  26.017  1.00  0.00    -0.375 N 
HETATM   20  C20 UNL     1      20.544 -13.868  25.608  1.00  0.00     0.089 A 
ATOM     21  H5  UNL     1      22.041 -13.896  27.005  1.00  0.00     0.164 HD
HETATM   22  C21 UNL     1      20.251 -14.017  24.280  1.00  0.00     0.046 A 
ENDBRANCH  14  16
ENDBRANCH  13  14
ENDBRANCH  12  13
ENDBRANCH  10  12
ENDBRANCH   7   8
BRANCH   1  23
HETATM   23  C1  UNL     1      13.470 -11.565  20.143  1.00  0.00     0.279 C 
BRANCH  23  24
HETATM   24  N1  UNL     1      13.404 -11.085  18.806  1.00  0.00    -0.066 N 
ATOM     25  H13 UNL     1      12.682 -11.557  18.261  1.00  0.00     0.275 HD
ATOM     26  H12 UNL     1      13.029 -10.137  18.754  1.00  0.00     0.275 HD
ATOM     27  H11 UNL     1      14.326 -11.161  18.376  1.00  0.00     0.275 HD
ENDBRANCH  23  24
BRANCH  23  28
HETATM   28  C2  UNL     1      13.248 -10.405  21.105  1.00  0.00     0.081 C 
BRANCH  28  29
HETATM   29  C3  UNL     1      12.468 -10.862  22.285  1.00  0.00    -0.056 A 
HETATM   30  C4  UNL     1      11.836 -12.090  22.312  1.00  0.00     0.007 A 
HETATM   31  C5  UNL     1      11.109 -12.519  23.410  1.00  0.00     0.001 A 
HETATM   32  C6  UNL     1      11.000 -11.717  24.515  1.00  0.00     0.000 A 
HETATM   33  C7  UNL     1      11.617 -10.486  24.522  1.00  0.00     0.001 A 
HETATM   34  C8  UNL     1      12.341 -10.076  23.410  1.00  0.00     0.007 A 
ENDBRANCH  28  29
ENDBRANCH  23  28
ENDBRANCH   1  23
TORSDOF 9
ENDMDL
