MODEL 15
REMARK VINA RESULT: -7.813555689      2.028      7.544
REMARK  9 active torsions:
REMARK  status: ('A' for Active; 'I' for Inactive)
REMARK    1  A    between atoms: N1_1  and  C1_5 
REMARK    2  A    between atoms: C1_5  and  C2_6 
REMARK    3  A    between atoms: C1_5  and  C9_13 
REMARK    4  A    between atoms: C2_6  and  C3_7 
REMARK       I    between atoms: C9_13  and  N2_15 
REMARK    5  A    between atoms: C13_19  and  C14_20 
REMARK       I    between atoms: C14_20  and  N3_22 
REMARK    6  A    between atoms: N3_22  and  C15_24 
REMARK    7  A    between atoms: C15_24  and  C16_25 
REMARK    8  A    between atoms: C16_25  and  N4_26 
REMARK    9  A    between atoms: N4_26  and  C17_28 
ROOT
HETATM    1  C9  UNL     1      14.702 -14.874  21.346  1.00  0.00     0.251 C 
HETATM    2  O1  UNL     1      14.723 -16.106  20.973  1.00  0.00    -0.271 OA
HETATM    3  N2  UNL     1      15.797 -14.058  21.030  1.00  0.00    -0.337 N 
HETATM    4  C10 UNL     1      16.030 -12.662  21.327  1.00  0.00     0.127 C 
HETATM    5  C11 UNL     1      17.534 -12.446  21.082  1.00  0.00     0.022 C 
HETATM    6  C12 UNL     1      17.704 -13.309  19.825  1.00  0.00     0.037 C 
HETATM    7  C13 UNL     1      16.972 -14.539  20.283  1.00  0.00     0.179 C 
ENDROOT
BRANCH   7   8
HETATM    8  C14 UNL     1      17.859 -15.323  21.198  1.00  0.00     0.240 C 
HETATM    9  O2  UNL     1      19.101 -15.337  21.070  1.00  0.00    -0.271 OA
HETATM   10  N3  UNL     1      17.244 -16.060  22.228  1.00  0.00    -0.358 N 
ATOM     11  H3  UNL     1      16.227 -16.020  22.290  1.00  0.00     0.162 HD
BRANCH  10  12
HETATM   12  C15 UNL     1      17.937 -16.871  23.208  1.00  0.00     0.142 C 
BRANCH  12  13
HETATM   13  C16 UNL     1      18.095 -16.066  24.482  1.00  0.00     0.139 C 
BRANCH  13  14
HETATM   14  N4  UNL     1      18.796 -14.833  24.308  1.00  0.00    -0.388 N 
ATOM     15  H4  UNL     1      18.308 -14.069  23.841  1.00  0.00     0.159 HD
BRANCH  14  16
HETATM   16  C17 UNL     1      20.114 -14.605  24.737  1.00  0.00     0.030 A 
HETATM   17  C18 UNL     1      20.459 -14.273  26.019  1.00  0.00     0.046 A 
HETATM   18  C19 UNL     1      21.778 -14.079  26.377  1.00  0.00     0.089 A 
HETATM   19  N5  UNL     1      22.749 -14.211  25.473  1.00  0.00    -0.375 N 
HETATM   20  C20 UNL     1      22.472 -14.535  24.199  1.00  0.00     0.089 A 
ATOM     21  H5  UNL     1      23.719 -14.064  25.754  1.00  0.00     0.164 HD
HETATM   22  C21 UNL     1      21.169 -14.731  23.831  1.00  0.00     0.046 A 
ENDBRANCH  14  16
ENDBRANCH  13  14
ENDBRANCH  12  13
ENDBRANCH  10  12
ENDBRANCH   7   8
BRANCH   1  23
HETATM   23  C1  UNL     1      13.482 -14.505  22.075  1.00  0.00     0.279 C 
BRANCH  23  24
HETATM   24  N1  UNL     1      12.597 -15.559  22.427  1.00  0.00    -0.066 N 
ATOM     25  H13 UNL     1      12.630 -16.331  21.760  1.00  0.00     0.275 HD
ATOM     26  H12 UNL     1      12.912 -16.069  23.254  1.00  0.00     0.275 HD
ATOM     27  H11 UNL     1      11.656 -15.184  22.539  1.00  0.00     0.275 HD
ENDBRANCH  23  24
BRANCH  23  28
HETATM   28  C2  UNL     1      12.701 -13.411  21.356  1.00  0.00     0.081 C 
BRANCH  28  29
HETATM   29  C3  UNL     1      12.389 -12.304  22.297  1.00  0.00    -0.056 A 
HETATM   30  C4  UNL     1      13.042 -11.088  22.239  1.00  0.00     0.007 A 
HETATM   31  C5  UNL     1      12.753 -10.055  23.114  1.00  0.00     0.001 A 
HETATM   32  C6  UNL     1      11.792 -10.221  24.076  1.00  0.00     0.000 A 
HETATM   33  C7  UNL     1      11.120 -11.420  24.163  1.00  0.00     0.001 A 
HETATM   34  C8  UNL     1      11.427 -12.443  23.275  1.00  0.00     0.007 A 
ENDBRANCH  28  29
ENDBRANCH  23  28
ENDBRANCH   1  23
TORSDOF 9
ENDMDL
