MODEL 6
REMARK VINA RESULT: -8.259083002      1.086      1.612
REMARK  9 active torsions:
REMARK  status: ('A' for Active; 'I' for Inactive)
REMARK    1  A    between atoms: N1_1  and  C1_5 
REMARK    2  A    between atoms: C1_5  and  C2_6 
REMARK    3  A    between atoms: C1_5  and  C9_13 
REMARK    4  A    between atoms: C2_6  and  C3_7 
REMARK       I    between atoms: C9_13  and  N2_15 
REMARK    5  A    between atoms: C13_19  and  C14_20 
REMARK       I    between atoms: C14_20  and  N3_22 
REMARK    6  A    between atoms: N3_22  and  C15_24 
REMARK    7  A    between atoms: C15_24  and  C16_25 
REMARK    8  A    between atoms: C16_25  and  N4_26 
REMARK    9  A    between atoms: N4_26  and  C17_28 
ROOT
HETATM    1  C9  UNL     1      17.741 -14.801  22.910  1.00  0.00     0.251 C 
HETATM    2  O1  UNL     1      16.586 -14.251  23.057  1.00  0.00    -0.271 OA
HETATM    3  N2  UNL     1      18.601 -14.299  21.923  1.00  0.00    -0.337 N 
HETATM    4  C10 UNL     1      19.932 -14.725  21.548  1.00  0.00     0.127 C 
HETATM    5  C11 UNL     1      20.190 -14.074  20.179  1.00  0.00     0.022 C 
HETATM    6  C12 UNL     1      19.543 -12.706  20.432  1.00  0.00     0.037 C 
HETATM    7  C13 UNL     1      18.252 -13.167  21.048  1.00  0.00     0.179 C 
ENDROOT
BRANCH   7   8
HETATM    8  C14 UNL     1      17.334 -13.636  19.965  1.00  0.00     0.240 C 
HETATM    9  O2  UNL     1      16.905 -14.808  19.919  1.00  0.00    -0.271 OA
HETATM   10  N3  UNL     1      16.959 -12.705  18.978  1.00  0.00    -0.358 N 
ATOM     11  H3  UNL     1      17.338 -11.762  19.057  1.00  0.00     0.162 HD
BRANCH  10  12
HETATM   12  C15 UNL     1      16.079 -12.976  17.861  1.00  0.00     0.142 C 
BRANCH  12  13
HETATM   13  C16 UNL     1      14.645 -12.946  18.351  1.00  0.00     0.139 C 
BRANCH  13  14
HETATM   14  N4  UNL     1      14.334 -11.814  19.168  1.00  0.00    -0.388 N 
ATOM     15  H4  UNL     1      14.770 -10.923  18.934  1.00  0.00     0.159 HD
BRANCH  14  16
HETATM   16  C17 UNL     1      13.467 -11.852  20.273  1.00  0.00     0.030 A 
HETATM   17  C18 UNL     1      13.073 -10.748  20.980  1.00  0.00     0.046 A 
HETATM   18  C19 UNL     1      12.204 -10.856  22.047  1.00  0.00     0.089 A 
HETATM   19  N5  UNL     1      11.730 -12.047  22.415  1.00  0.00    -0.375 N 
HETATM   20  C20 UNL     1      12.083 -13.166  21.759  1.00  0.00     0.089 A 
ATOM     21  H5  UNL     1      11.089 -12.109  23.206  1.00  0.00     0.164 HD
HETATM   22  C21 UNL     1      12.941 -13.074  20.699  1.00  0.00     0.046 A 
ENDBRANCH  14  16
ENDBRANCH  13  14
ENDBRANCH  12  13
ENDBRANCH  10  12
ENDBRANCH   7   8
BRANCH   1  23
HETATM   23  C1  UNL     1      17.983 -15.912  23.837  1.00  0.00     0.279 C 
BRANCH  23  24
HETATM   24  N1  UNL     1      16.977 -16.913  23.919  1.00  0.00    -0.066 N 
ATOM     25  H13 UNL     1      17.270 -17.792  23.493  1.00  0.00     0.275 HD
ATOM     26  H12 UNL     1      16.845 -17.252  24.873  1.00  0.00     0.275 HD
ATOM     27  H11 UNL     1      16.113 -16.555  23.513  1.00  0.00     0.275 HD
ENDBRANCH  23  24
BRANCH  23  28
HETATM   28  C2  UNL     1      18.318 -15.419  25.239  1.00  0.00     0.081 C 
BRANCH  28  29
HETATM   29  C3  UNL     1      19.768 -15.112  25.339  1.00  0.00    -0.056 A 
HETATM   30  C4  UNL     1      20.232 -13.948  25.922  1.00  0.00     0.007 A 
HETATM   31  C5  UNL     1      21.583 -13.660  26.017  1.00  0.00     0.001 A 
HETATM   32  C6  UNL     1      22.507 -14.543  25.526  1.00  0.00     0.000 A 
HETATM   33  C7  UNL     1      22.082 -15.714  24.938  1.00  0.00     0.001 A 
HETATM   34  C8  UNL     1      20.722 -15.982  24.853  1.00  0.00     0.007 A 
ENDBRANCH  28  29
ENDBRANCH  23  28
ENDBRANCH   1  23
TORSDOF 9
ENDMDL
