MODEL 1
REMARK VINA RESULT: -8.506801242      0.000      0.000
REMARK  9 active torsions:
REMARK  status: ('A' for Active; 'I' for Inactive)
REMARK    1  A    between atoms: N1_1  and  C1_5 
REMARK    2  A    between atoms: C1_5  and  C2_6 
REMARK    3  A    between atoms: C1_5  and  C9_13 
REMARK    4  A    between atoms: C2_6  and  C3_7 
REMARK       I    between atoms: C9_13  and  N2_15 
REMARK    5  A    between atoms: C13_19  and  C14_20 
REMARK       I    between atoms: C14_20  and  N3_22 
REMARK    6  A    between atoms: N3_22  and  C15_24 
REMARK    7  A    between atoms: C15_24  and  C16_25 
REMARK    8  A    between atoms: C16_25  and  N4_26 
REMARK    9  A    between atoms: N4_26  and  C17_28 
ROOT
HETATM    1  C9  UNL     1      17.861 -14.747  22.871  1.00  0.00     0.251 C 
HETATM    2  O1  UNL     1      16.825 -14.072  23.228  1.00  0.00    -0.271 OA
HETATM    3  N2  UNL     1      18.699 -14.215  21.881  1.00  0.00    -0.337 N 
HETATM    4  C10 UNL     1      19.908 -14.756  21.299  1.00  0.00     0.127 C 
HETATM    5  C11 UNL     1      20.143 -13.929  20.023  1.00  0.00     0.022 C 
HETATM    6  C12 UNL     1      19.744 -12.544  20.551  1.00  0.00     0.037 C 
HETATM    7  C13 UNL     1      18.456 -12.915  21.231  1.00  0.00     0.179 C 
ENDROOT
BRANCH   7   8
HETATM    8  C14 UNL     1      17.383 -13.064  20.200  1.00  0.00     0.240 C 
HETATM    9  O2  UNL     1      17.642 -13.279  18.998  1.00  0.00    -0.271 OA
HETATM   10  N3  UNL     1      16.047 -12.954  20.629  1.00  0.00    -0.358 N 
ATOM     11  H3  UNL     1      15.886 -12.774  21.620  1.00  0.00     0.162 HD
BRANCH  10  12
HETATM   12  C15 UNL     1      14.880 -13.074  19.778  1.00  0.00     0.142 C 
BRANCH  12  13
HETATM   13  C16 UNL     1      13.911 -11.960  20.122  1.00  0.00     0.139 C 
BRANCH  13  14
HETATM   14  N4  UNL     1      14.001 -11.509  21.475  1.00  0.00    -0.388 N 
ATOM     15  H4  UNL     1      14.903 -11.167  21.806  1.00  0.00     0.159 HD
BRANCH  14  16
HETATM   16  C17 UNL     1      12.926 -11.506  22.379  1.00  0.00     0.030 A 
HETATM   17  C18 UNL     1      12.583 -10.438  23.164  1.00  0.00     0.046 A 
HETATM   18  C19 UNL     1      11.502 -10.498  24.021  1.00  0.00     0.089 A 
HETATM   19  N5  UNL     1      10.767 -11.608  24.103  1.00  0.00    -0.375 N 
HETATM   20  C20 UNL     1      11.056 -12.688  23.359  1.00  0.00     0.089 A 
ATOM     21  H5  UNL     1       9.972 -11.636  24.742  1.00  0.00     0.164 HD
HETATM   22  C21 UNL     1      12.123 -12.642  22.505  1.00  0.00     0.046 A 
ENDBRANCH  14  16
ENDBRANCH  13  14
ENDBRANCH  12  13
ENDBRANCH  10  12
ENDBRANCH   7   8
BRANCH   1  23
HETATM   23  C1  UNL     1      18.007 -16.020  23.587  1.00  0.00     0.279 C 
BRANCH  23  24
HETATM   24  N1  UNL     1      16.934 -16.946  23.479  1.00  0.00    -0.066 N 
ATOM     25  H13 UNL     1      17.219 -17.897  23.716  1.00  0.00     0.275 HD
ATOM     26  H12 UNL     1      16.236 -16.817  24.213  1.00  0.00     0.275 HD
ATOM     27  H11 UNL     1      16.529 -16.884  22.545  1.00  0.00     0.275 HD
ENDBRANCH  23  24
BRANCH  23  28
HETATM   28  C2  UNL     1      18.343 -15.809  25.058  1.00  0.00     0.081 C 
BRANCH  28  29
HETATM   29  C3  UNL     1      19.735 -15.306  25.196  1.00  0.00    -0.056 A 
HETATM   30  C4  UNL     1      20.810 -15.961  24.626  1.00  0.00     0.007 A 
HETATM   31  C5  UNL     1      22.108 -15.495  24.752  1.00  0.00     0.001 A 
HETATM   32  C6  UNL     1      22.357 -14.349  25.459  1.00  0.00     0.000 A 
HETATM   33  C7  UNL     1      21.310 -13.669  26.041  1.00  0.00     0.001 A 
HETATM   34  C8  UNL     1      20.017 -14.155  25.902  1.00  0.00     0.007 A 
ENDBRANCH  28  29
ENDBRANCH  23  28
ENDBRANCH   1  23
TORSDOF 9
ENDMDL
