MODEL 13
REMARK VINA RESULT: -7.916465687      1.988      7.668
REMARK  9 active torsions:
REMARK  status: ('A' for Active; 'I' for Inactive)
REMARK    1  A    between atoms: N1_1  and  C1_5 
REMARK    2  A    between atoms: C1_5  and  C2_6 
REMARK    3  A    between atoms: C1_5  and  C9_13 
REMARK    4  A    between atoms: C2_6  and  C3_7 
REMARK       I    between atoms: C9_13  and  N2_15 
REMARK    5  A    between atoms: C13_19  and  C14_20 
REMARK       I    between atoms: C14_20  and  N3_22 
REMARK    6  A    between atoms: N3_22  and  C15_24 
REMARK    7  A    between atoms: C15_24  and  C16_25 
REMARK    8  A    between atoms: C16_25  and  N4_26 
REMARK    9  A    between atoms: N4_26  and  C17_28 
ROOT
HETATM    1  C9  UNL     1      14.596 -14.620  21.147  1.00  0.00     0.251 C 
HETATM    2  O1  UNL     1      15.577 -15.257  21.685  1.00  0.00    -0.271 OA
HETATM    3  N2  UNL     1      14.759 -14.108  19.852  1.00  0.00    -0.337 N 
HETATM    4  C10 UNL     1      13.835 -13.362  19.027  1.00  0.00     0.127 C 
HETATM    5  C11 UNL     1      14.698 -12.754  17.908  1.00  0.00     0.022 C 
HETATM    6  C12 UNL     1      15.636 -13.941  17.649  1.00  0.00     0.037 C 
HETATM    7  C13 UNL     1      15.997 -14.269  19.071  1.00  0.00     0.179 C 
ENDROOT
BRANCH   7   8
HETATM    8  C14 UNL     1      17.022 -13.292  19.553  1.00  0.00     0.240 C 
HETATM    9  O2  UNL     1      16.884 -12.059  19.409  1.00  0.00    -0.271 OA
HETATM   10  N3  UNL     1      18.169 -13.808  20.184  1.00  0.00    -0.358 N 
ATOM     11  H3  UNL     1      18.238 -14.822  20.273  1.00  0.00     0.162 HD
BRANCH  10  12
HETATM   12  C15 UNL     1      19.261 -13.019  20.716  1.00  0.00     0.142 C 
BRANCH  12  13
HETATM   13  C16 UNL     1      20.167 -13.925  21.525  1.00  0.00     0.139 C 
BRANCH  13  14
HETATM   14  N4  UNL     1      19.790 -14.047  22.899  1.00  0.00    -0.388 N 
ATOM     15  H4  UNL     1      18.795 -14.049  23.122  1.00  0.00     0.159 HD
BRANCH  14  16
HETATM   16  C17 UNL     1      20.702 -14.163  23.961  1.00  0.00     0.030 A 
HETATM   17  C18 UNL     1      20.387 -13.940  25.274  1.00  0.00     0.046 A 
HETATM   18  C19 UNL     1      21.330 -14.088  26.271  1.00  0.00     0.089 A 
HETATM   19  N5  UNL     1      22.578 -14.452  25.972  1.00  0.00    -0.375 N 
HETATM   20  C20 UNL     1      22.947 -14.683  24.700  1.00  0.00     0.089 A 
ATOM     21  H5  UNL     1      23.263 -14.556  26.720  1.00  0.00     0.164 HD
HETATM   22  C21 UNL     1      22.022 -14.541  23.703  1.00  0.00     0.046 A 
ENDBRANCH  14  16
ENDBRANCH  13  14
ENDBRANCH  12  13
ENDBRANCH  10  12
ENDBRANCH   7   8
BRANCH   1  23
HETATM   23  C1  UNL     1      13.414 -14.527  22.012  1.00  0.00     0.279 C 
BRANCH  23  24
HETATM   24  N1  UNL     1      12.786 -15.748  22.379  1.00  0.00    -0.066 N 
ATOM     25  H13 UNL     1      12.369 -15.704  23.309  1.00  0.00     0.275 HD
ATOM     26  H12 UNL     1      11.934 -15.921  21.845  1.00  0.00     0.275 HD
ATOM     27  H11 UNL     1      13.458 -16.511  22.292  1.00  0.00     0.275 HD
ENDBRANCH  23  24
BRANCH  23  28
HETATM   28  C2  UNL     1      12.369 -13.575  21.444  1.00  0.00     0.081 C 
BRANCH  28  29
HETATM   29  C3  UNL     1      12.205 -12.402  22.342  1.00  0.00    -0.056 A 
HETATM   30  C4  UNL     1      11.306 -12.404  23.391  1.00  0.00     0.007 A 
HETATM   31  C5  UNL     1      11.152 -11.313  24.230  1.00  0.00     0.001 A 
HETATM   32  C6  UNL     1      11.905 -10.185  24.032  1.00  0.00     0.000 A 
HETATM   33  C7  UNL     1      12.811 -10.148  22.995  1.00  0.00     0.001 A 
HETATM   34  C8  UNL     1      12.948 -11.254  22.166  1.00  0.00     0.007 A 
ENDBRANCH  28  29
ENDBRANCH  23  28
ENDBRANCH   1  23
TORSDOF 9
ENDMDL
