MODEL 3
REMARK VINA RESULT: -8.437688696      0.998      1.563
REMARK  9 active torsions:
REMARK  status: ('A' for Active; 'I' for Inactive)
REMARK    1  A    between atoms: N1_1  and  C1_5 
REMARK    2  A    between atoms: C1_5  and  C2_6 
REMARK    3  A    between atoms: C1_5  and  C9_13 
REMARK    4  A    between atoms: C2_6  and  C3_7 
REMARK       I    between atoms: C9_13  and  N2_15 
REMARK    5  A    between atoms: C13_19  and  C14_20 
REMARK       I    between atoms: C14_20  and  N3_22 
REMARK    6  A    between atoms: N3_22  and  C15_24 
REMARK    7  A    between atoms: C15_24  and  C16_25 
REMARK    8  A    between atoms: C16_25  and  N4_26 
REMARK    9  A    between atoms: N4_26  and  C17_28 
ROOT
HETATM    1  C9  UNL     1      17.779 -14.720  22.854  1.00  0.00     0.251 C 
HETATM    2  O1  UNL     1      16.720 -14.058  23.165  1.00  0.00    -0.271 OA
HETATM    3  N2  UNL     1      18.624 -14.204  21.861  1.00  0.00    -0.337 N 
HETATM    4  C10 UNL     1      19.856 -14.736  21.323  1.00  0.00     0.127 C 
HETATM    5  C11 UNL     1      20.098 -13.951  20.022  1.00  0.00     0.022 C 
HETATM    6  C12 UNL     1      19.655 -12.558  20.491  1.00  0.00     0.037 C 
HETATM    7  C13 UNL     1      18.363 -12.935  21.159  1.00  0.00     0.179 C 
ENDROOT
BRANCH   7   8
HETATM    8  C14 UNL     1      17.316 -13.148  20.114  1.00  0.00     0.240 C 
HETATM    9  O2  UNL     1      17.094 -12.312  19.214  1.00  0.00    -0.271 OA
HETATM   10  N3  UNL     1      16.569 -14.340  20.172  1.00  0.00    -0.358 N 
ATOM     11  H3  UNL     1      16.783 -14.990  20.928  1.00  0.00     0.162 HD
BRANCH  10  12
HETATM   12  C15 UNL     1      15.520 -14.720  19.248  1.00  0.00     0.142 C 
BRANCH  12  13
HETATM   13  C16 UNL     1      14.205 -14.770  19.998  1.00  0.00     0.139 C 
BRANCH  13  14
HETATM   14  N4  UNL     1      14.270 -14.236  21.323  1.00  0.00    -0.388 N 
ATOM     15  H4  UNL     1      14.849 -14.725  22.006  1.00  0.00     0.159 HD
BRANCH  14  16
HETATM   16  C17 UNL     1      13.589 -13.083  21.744  1.00  0.00     0.030 A 
HETATM   17  C18 UNL     1      14.075 -11.810  21.613  1.00  0.00     0.046 A 
HETATM   18  C19 UNL     1      13.344 -10.718  22.035  1.00  0.00     0.089 A 
HETATM   19  N5  UNL     1      12.141 -10.882  22.584  1.00  0.00    -0.375 N 
HETATM   20  C20 UNL     1      11.611 -12.108  22.741  1.00  0.00     0.089 A 
ATOM     21  H5  UNL     1      11.614 -10.065  22.891  1.00  0.00     0.164 HD
HETATM   22  C21 UNL     1      12.324 -13.198  22.326  1.00  0.00     0.046 A 
ENDBRANCH  14  16
ENDBRANCH  13  14
ENDBRANCH  12  13
ENDBRANCH  10  12
ENDBRANCH   7   8
BRANCH   1  23
HETATM   23  C1  UNL     1      17.940 -15.962  23.619  1.00  0.00     0.279 C 
BRANCH  23  24
HETATM   24  N1  UNL     1      16.866 -16.892  23.570  1.00  0.00    -0.066 N 
ATOM     25  H13 UNL     1      17.193 -17.859  23.561  1.00  0.00     0.275 HD
ATOM     26  H12 UNL     1      16.343 -16.925  24.446  1.00  0.00     0.275 HD
ATOM     27  H11 UNL     1      16.271 -16.677  22.771  1.00  0.00     0.275 HD
ENDBRANCH  23  24
BRANCH  23  28
HETATM   28  C2  UNL     1      18.304 -15.689  25.073  1.00  0.00     0.081 C 
BRANCH  28  29
HETATM   29  C3  UNL     1      19.725 -15.265  25.172  1.00  0.00    -0.056 A 
HETATM   30  C4  UNL     1      20.094 -14.081  25.780  1.00  0.00     0.007 A 
HETATM   31  C5  UNL     1      21.418 -13.683  25.875  1.00  0.00     0.001 A 
HETATM   32  C6  UNL     1      22.409 -14.474  25.357  1.00  0.00     0.000 A 
HETATM   33  C7  UNL     1      22.077 -15.662  24.744  1.00  0.00     0.001 A 
HETATM   34  C8  UNL     1      20.744 -16.041  24.660  1.00  0.00     0.007 A 
ENDBRANCH  28  29
ENDBRANCH  23  28
ENDBRANCH   1  23
TORSDOF 9
ENDMDL
