MODEL 2
REMARK VINA RESULT: -8.492084515      0.047      1.257
REMARK  9 active torsions:
REMARK  status: ('A' for Active; 'I' for Inactive)
REMARK    1  A    between atoms: N1_1  and  C1_5 
REMARK    2  A    between atoms: C1_5  and  C2_6 
REMARK    3  A    between atoms: C1_5  and  C9_13 
REMARK    4  A    between atoms: C2_6  and  C3_7 
REMARK       I    between atoms: C9_13  and  N2_15 
REMARK    5  A    between atoms: C13_19  and  C14_20 
REMARK       I    between atoms: C14_20  and  N3_22 
REMARK    6  A    between atoms: N3_22  and  C15_24 
REMARK    7  A    between atoms: C15_24  and  C16_25 
REMARK    8  A    between atoms: C16_25  and  N4_26 
REMARK    9  A    between atoms: N4_26  and  C17_28 
ROOT
HETATM    1  C9  UNL     1      17.862 -14.748  22.888  1.00  0.00     0.251 C 
HETATM    2  O1  UNL     1      16.821 -14.077  23.238  1.00  0.00    -0.271 OA
HETATM    3  N2  UNL     1      18.703 -14.216  21.900  1.00  0.00    -0.337 N 
HETATM    4  C10 UNL     1      19.917 -14.754  21.326  1.00  0.00     0.127 C 
HETATM    5  C11 UNL     1      20.155 -13.931  20.048  1.00  0.00     0.022 C 
HETATM    6  C12 UNL     1      19.746 -12.546  20.569  1.00  0.00     0.037 C 
HETATM    7  C13 UNL     1      18.457 -12.920  21.245  1.00  0.00     0.179 C 
ENDROOT
BRANCH   7   8
HETATM    8  C14 UNL     1      17.390 -13.078  20.209  1.00  0.00     0.240 C 
HETATM    9  O2  UNL     1      17.656 -13.286  19.007  1.00  0.00    -0.271 OA
HETATM   10  N3  UNL     1      16.051 -12.984  20.632  1.00  0.00    -0.358 N 
ATOM     11  H3  UNL     1      15.884 -12.809  21.623  1.00  0.00     0.162 HD
BRANCH  10  12
HETATM   12  C15 UNL     1      14.889 -13.114  19.777  1.00  0.00     0.142 C 
BRANCH  12  13
HETATM   13  C16 UNL     1      13.913 -12.003  20.110  1.00  0.00     0.139 C 
BRANCH  13  14
HETATM   14  N4  UNL     1      13.969 -11.569  21.471  1.00  0.00    -0.388 N 
ATOM     15  H4  UNL     1      14.859 -11.219  21.824  1.00  0.00     0.159 HD
BRANCH  14  16
HETATM   16  C17 UNL     1      12.876 -11.595  22.353  1.00  0.00     0.030 A 
HETATM   17  C18 UNL     1      12.047 -12.672  22.521  1.00  0.00     0.046 A 
HETATM   18  C19 UNL     1      10.999 -12.634  23.419  1.00  0.00     0.089 A 
HETATM   19  N5  UNL     1      10.771 -11.539  24.144  1.00  0.00    -0.375 N 
HETATM   20  C20 UNL     1      11.550 -10.451  24.022  1.00  0.00     0.089 A 
ATOM     21  H5  UNL     1       9.992 -11.528  24.803  1.00  0.00     0.164 HD
HETATM   22  C21 UNL     1      12.592 -10.475  23.137  1.00  0.00     0.046 A 
ENDBRANCH  14  16
ENDBRANCH  13  14
ENDBRANCH  12  13
ENDBRANCH  10  12
ENDBRANCH   7   8
BRANCH   1  23
HETATM   23  C1  UNL     1      18.010 -16.018  23.609  1.00  0.00     0.279 C 
BRANCH  23  24
HETATM   24  N1  UNL     1      16.937 -16.945  23.510  1.00  0.00    -0.066 N 
ATOM     25  H13 UNL     1      17.115 -17.669  22.813  1.00  0.00     0.275 HD
ATOM     26  H12 UNL     1      16.869 -17.547  24.331  1.00  0.00     0.275 HD
ATOM     27  H11 UNL     1      16.071 -16.437  23.328  1.00  0.00     0.275 HD
ENDBRANCH  23  24
BRANCH  23  28
HETATM   28  C2  UNL     1      18.352 -15.800  25.078  1.00  0.00     0.081 C 
BRANCH  28  29
HETATM   29  C3  UNL     1      19.745 -15.300  25.210  1.00  0.00    -0.056 A 
HETATM   30  C4  UNL     1      20.044 -14.134  25.888  1.00  0.00     0.007 A 
HETATM   31  C5  UNL     1      21.341 -13.666  26.013  1.00  0.00     0.001 A 
HETATM   32  C6  UNL     1      22.378 -14.366  25.454  1.00  0.00     0.000 A 
HETATM   33  C7  UNL     1      22.117 -15.533  24.770  1.00  0.00     0.001 A 
HETATM   34  C8  UNL     1      20.809 -15.983  24.657  1.00  0.00     0.007 A 
ENDBRANCH  28  29
ENDBRANCH  23  28
ENDBRANCH   1  23
TORSDOF 9
ENDMDL
