MODEL 2
REMARK VINA RESULT: -7.754883110      2.967      4.926
REMARK  8 active torsions:
REMARK  status: ('A' for Active; 'I' for Inactive)
REMARK    1  A    between atoms: C2_2  and  O2_4 
REMARK    2  A    between atoms: O2_4  and  C3_5 
REMARK    3  A    between atoms: C9_11  and  O3_12 
REMARK    4  A    between atoms: C15_19  and  O4_20 
REMARK    5  A    between atoms: C24_30  and  C25_31 
REMARK    6  A    between atoms: C24_30  and  C31_37 
REMARK    7  A    between atoms: C25_31  and  C26_32 
REMARK    8  A    between atoms: C26_32  and  C27_33 
ROOT
HETATM    1  C3  UNL     1       3.906  13.718   9.468  1.00  0.00     0.065 C 
HETATM    2  C4  UNL     1       2.781  14.629   9.903  1.00  0.00     0.076 C 
HETATM    3  C5  UNL     1       2.360  13.979  11.169  1.00  0.00    -0.023 C 
HETATM    4  C6  UNL     1       1.071  13.235  10.879  1.00  0.00     0.017 C 
HETATM    5  C7  UNL     1       3.393  12.872  11.462  1.00  0.00     0.033 C 
HETATM    6  C8  UNL     1       3.084  12.088  12.616  1.00  0.00     0.042 C 
HETATM    7  C9  UNL     1       3.077  13.123  13.813  1.00  0.00     0.124 C 
HETATM    8  C10 UNL     1       1.907  14.019  13.507  1.00  0.00     0.032 C 
HETATM    9  C11 UNL     1       1.228  14.653  14.656  1.00  0.00    -0.033 C 
HETATM   10  C12 UNL     1      -0.272  14.309  14.715  1.00  0.00     0.016 C 
HETATM   11  C13 UNL     1       1.768  14.101  15.967  1.00  0.00     0.012 C 
HETATM   12  C14 UNL     1       1.084  14.672  17.172  1.00  0.00     0.033 C 
HETATM   13  C15 UNL     1       0.637  16.073  17.089  1.00  0.00     0.122 C 
HETATM   14  C16 UNL     1       0.217  16.586  15.754  1.00  0.00     0.015 C 
HETATM   15  C17 UNL     1       0.322  18.111  15.801  1.00  0.00     0.013 C 
HETATM   16  C18 UNL     1       1.290  16.142  14.743  1.00  0.00     0.000 C 
HETATM   17  C19 UNL     1       1.165  16.813  13.434  1.00  0.00     0.007 C 
HETATM   18  C20 UNL     1       1.144  15.905  12.225  1.00  0.00     0.011 C 
HETATM   19  C21 UNL     1       2.265  14.898  12.361  1.00  0.00    -0.029 C 
HETATM   20  C22 UNL     1       3.496  15.708  12.491  1.00  0.00     0.016 C 
HETATM   21  C23 UNL     1       3.588  12.403  10.085  1.00  0.00    -0.010 C 
HETATM   22  C24 UNL     1       3.493  11.217   9.547  1.00  0.00     0.028 C 
ENDROOT
BRANCH   1  23
HETATM   23  O2  UNL     1       4.448  13.864   8.270  1.00  0.00    -0.283 OA
BRANCH  23  24
HETATM   24  C2  UNL     1       5.746  14.230   7.935  1.00  0.00     0.259 C 
HETATM   25  C1  UNL     1       6.557  15.241   8.612  1.00  0.00     0.126 C 
HETATM   26  O1  UNL     1       6.196  13.606   6.970  1.00  0.00    -0.265 OA
ENDBRANCH  23  24
ENDBRANCH   1  23
BRANCH  22  27
HETATM   27  C25 UNL     1       3.164  10.034  10.393  1.00  0.00     0.050 C 
BRANCH  27  28
HETATM   28  C26 UNL     1       4.224   9.680  11.391  1.00  0.00     0.032 C 
BRANCH  28  29
HETATM   29  C27 UNL     1       4.585   8.283  11.541  1.00  0.00    -0.024 C 
HETATM   30  C28 UNL     1       4.717   7.678  12.736  1.00  0.00    -0.091 C 
HETATM   31  C29 UNL     1       5.087   6.251  12.802  1.00  0.00     0.042 C 
HETATM   32  C30 UNL     1       4.490   8.444  13.975  1.00  0.00     0.042 C 
ENDBRANCH  28  29
ENDBRANCH  27  28
ENDBRANCH  22  27
BRANCH  22  33
HETATM   33  C31 UNL     1       3.606  10.972   8.125  1.00  0.00     0.205 C 
HETATM   34  O5  UNL     1       2.652  11.086   7.347  1.00  0.00    -0.644 OA
HETATM   35  O6  UNL     1       4.826  10.579   7.545  1.00  0.00    -0.644 OA
ENDBRANCH  22  33
BRANCH   7  36
HETATM   36  O3  UNL     1       4.288  13.743  13.922  1.00  0.00    -0.395 OA
ATOM     37  H3  UNL     1       4.900  13.201  14.406  1.00  0.00     0.210 HD
ENDBRANCH   7  36
BRANCH  13  38
HETATM   38  O4  UNL     1       1.642  16.909  17.615  1.00  0.00    -0.395 OA
ATOM     39  H4  UNL     1       2.476  16.455  17.571  1.00  0.00     0.210 HD
ENDBRANCH  13  38
TORSDOF 8
ENDMDL
