MODEL 1
REMARK VINA RESULT: -8.144285236      0.000      0.000
REMARK  8 active torsions:
REMARK  status: ('A' for Active; 'I' for Inactive)
REMARK    1  A    between atoms: C2_2  and  O2_4 
REMARK    2  A    between atoms: O2_4  and  C3_5 
REMARK    3  A    between atoms: C9_11  and  O3_12 
REMARK    4  A    between atoms: C15_19  and  O4_20 
REMARK    5  A    between atoms: C24_30  and  C25_31 
REMARK    6  A    between atoms: C24_30  and  C31_37 
REMARK    7  A    between atoms: C25_31  and  C26_32 
REMARK    8  A    between atoms: C26_32  and  C27_33 
ROOT
HETATM    1  C3  UNL     1       1.653  15.688  13.492  1.00  0.00     0.065 C 
HETATM    2  C4  UNL     1       0.159  15.522  13.657  1.00  0.00     0.076 C 
HETATM    3  C5  UNL     1       0.103  14.454  14.686  1.00  0.00    -0.023 C 
HETATM    4  C6  UNL     1      -0.266  13.169  13.970  1.00  0.00     0.017 C 
HETATM    5  C7  UNL     1       1.549  14.231  15.172  1.00  0.00     0.033 C 
HETATM    6  C8  UNL     1       1.681  13.165  16.114  1.00  0.00     0.042 C 
HETATM    7  C9  UNL     1       0.782  13.602  17.341  1.00  0.00     0.124 C 
HETATM    8  C10 UNL     1      -0.616  13.589  16.785  1.00  0.00     0.032 C 
HETATM    9  C11 UNL     1      -1.715  13.321  17.736  1.00  0.00    -0.033 C 
HETATM   10  C12 UNL     1      -2.562  12.102  17.327  1.00  0.00     0.016 C 
HETATM   11  C13 UNL     1      -1.158  12.923  19.096  1.00  0.00     0.012 C 
HETATM   12  C14 UNL     1      -2.226  12.591  20.093  1.00  0.00     0.033 C 
HETATM   13  C15 UNL     1      -3.488  13.346  20.004  1.00  0.00     0.122 C 
HETATM   14  C16 UNL     1      -3.928  13.798  18.653  1.00  0.00     0.015 C 
HETATM   15  C17 UNL     1      -4.899  14.961  18.858  1.00  0.00     0.013 C 
HETATM   16  C18 UNL     1      -2.699  14.420  17.964  1.00  0.00     0.000 C 
HETATM   17  C19 UNL     1      -3.040  15.167  16.737  1.00  0.00     0.007 C 
HETATM   18  C20 UNL     1      -2.245  14.807  15.502  1.00  0.00     0.011 C 
HETATM   19  C21 UNL     1      -0.779  14.753  15.872  1.00  0.00    -0.029 C 
HETATM   20  C22 UNL     1      -0.472  16.091  16.423  1.00  0.00     0.016 C 
HETATM   21  C23 UNL     1       2.224  14.370  13.876  1.00  0.00    -0.010 C 
HETATM   22  C24 UNL     1       3.050  13.587  13.235  1.00  0.00     0.028 C 
ENDROOT
BRANCH   1  23
HETATM   23  O2  UNL     1       2.129  16.450  12.521  1.00  0.00    -0.283 OA
BRANCH  23  24
HETATM   24  C2  UNL     1       2.393  17.814  12.527  1.00  0.00     0.259 C 
HETATM   25  C1  UNL     1       2.137  18.735  13.634  1.00  0.00     0.126 C 
HETATM   26  O1  UNL     1       2.887  18.221  11.472  1.00  0.00    -0.265 OA
ENDBRANCH  23  24
ENDBRANCH   1  23
BRANCH  22  27
HETATM   27  C25 UNL     1       3.488  12.300  13.845  1.00  0.00     0.050 C 
BRANCH  27  28
HETATM   28  C26 UNL     1       2.746  11.099  13.341  1.00  0.00     0.032 C 
BRANCH  28  29
HETATM   29  C27 UNL     1       3.438   9.823  13.324  1.00  0.00    -0.024 C 
HETATM   30  C28 UNL     1       3.951   9.276  12.207  1.00  0.00    -0.091 C 
HETATM   31  C29 UNL     1       4.641   7.973  12.274  1.00  0.00     0.042 C 
HETATM   32  C30 UNL     1       3.821   9.982  10.918  1.00  0.00     0.042 C 
ENDBRANCH  28  29
ENDBRANCH  27  28
ENDBRANCH  22  27
BRANCH  22  33
HETATM   33  C31 UNL     1       3.521  13.850  11.892  1.00  0.00     0.205 C 
HETATM   34  O5  UNL     1       4.545  14.500  11.655  1.00  0.00    -0.644 OA
HETATM   35  O6  UNL     1       2.822  13.375  10.765  1.00  0.00    -0.644 OA
ENDBRANCH  22  33
BRANCH   7  36
HETATM   36  O3  UNL     1       1.208  14.796  17.850  1.00  0.00    -0.395 OA
ATOM     37  H3  UNL     1       0.474  15.301  18.178  1.00  0.00     0.210 HD
ENDBRANCH   7  36
BRANCH  13  38
HETATM   38  O4  UNL     1      -3.422  14.457  20.868  1.00  0.00    -0.395 OA
ATOM     39  H4  UNL     1      -4.241  14.936  20.820  1.00  0.00     0.210 HD
ENDBRANCH  13  38
TORSDOF 8
ENDMDL
