MODEL 3
REMARK VINA RESULT: -7.740749806      2.718      8.370
REMARK  8 active torsions:
REMARK  status: ('A' for Active; 'I' for Inactive)
REMARK    1  A    between atoms: C2_2  and  O2_4 
REMARK    2  A    between atoms: O2_4  and  C3_5 
REMARK    3  A    between atoms: C9_11  and  O3_12 
REMARK    4  A    between atoms: C15_19  and  O4_20 
REMARK    5  A    between atoms: C24_30  and  C25_31 
REMARK    6  A    between atoms: C24_30  and  C31_37 
REMARK    7  A    between atoms: C25_31  and  C26_32 
REMARK    8  A    between atoms: C26_32  and  C27_33 
ROOT
HETATM    1  C3  UNL     1       2.290  15.471  15.264  1.00  0.00     0.065 C 
HETATM    2  C4  UNL     1       2.121  14.048  14.781  1.00  0.00     0.076 C 
HETATM    3  C5  UNL     1       1.885  14.265  13.332  1.00  0.00    -0.023 C 
HETATM    4  C6  UNL     1       0.400  14.068  13.091  1.00  0.00     0.017 C 
HETATM    5  C7  UNL     1       2.130  15.763  13.063  1.00  0.00     0.033 C 
HETATM    6  C8  UNL     1       1.860  16.158  11.717  1.00  0.00     0.042 C 
HETATM    7  C9  UNL     1       2.863  15.302  10.841  1.00  0.00     0.124 C 
HETATM    8  C10 UNL     1       2.392  13.886  11.036  1.00  0.00     0.032 C 
HETATM    9  C11 UNL     1       2.651  12.935   9.935  1.00  0.00    -0.033 C 
HETATM   10  C12 UNL     1       1.359  12.283   9.407  1.00  0.00     0.016 C 
HETATM   11  C13 UNL     1       3.201  13.664   8.718  1.00  0.00     0.012 C 
HETATM   12  C14 UNL     1       3.439  12.758   7.548  1.00  0.00     0.033 C 
HETATM   13  C15 UNL     1       3.871  11.380   7.843  1.00  0.00     0.122 C 
HETATM   14  C16 UNL     1       3.380  10.757   9.104  1.00  0.00     0.015 C 
HETATM   15  C17 UNL     1       4.340   9.618   9.451  1.00  0.00     0.013 C 
HETATM   16  C18 UNL     1       3.572  11.797  10.224  1.00  0.00     0.000 C 
HETATM   17  C19 UNL     1       3.399  11.229  11.576  1.00  0.00     0.007 C 
HETATM   18  C20 UNL     1       2.443  11.968  12.486  1.00  0.00     0.011 C 
HETATM   19  C21 UNL     1       2.754  13.447  12.411  1.00  0.00    -0.029 C 
HETATM   20  C22 UNL     1       4.177  13.561  12.802  1.00  0.00     0.016 C 
HETATM   21  C23 UNL     1       1.524  16.294  14.291  1.00  0.00    -0.010 C 
HETATM   22  C24 UNL     1       0.591  17.187  14.487  1.00  0.00     0.028 C 
ENDROOT
BRANCH   1  23
HETATM   23  O2  UNL     1       2.355  15.724  16.561  1.00  0.00    -0.283 OA
BRANCH  23  24
HETATM   24  C2  UNL     1       2.018  14.904  17.631  1.00  0.00     0.259 C 
HETATM   25  C1  UNL     1       0.845  14.035  17.713  1.00  0.00     0.126 C 
HETATM   26  O1  UNL     1       2.823  14.962  18.564  1.00  0.00    -0.265 OA
ENDBRANCH  23  24
ENDBRANCH   1  23
BRANCH  22  27
HETATM   27  C25 UNL     1      -0.027  17.892  13.329  1.00  0.00     0.050 C 
BRANCH  27  28
HETATM   28  C26 UNL     1      -1.509  17.710  13.220  1.00  0.00     0.032 C 
BRANCH  28  29
HETATM   29  C27 UNL     1      -2.026  16.941  12.103  1.00  0.00    -0.024 C 
HETATM   30  C28 UNL     1      -2.759  15.823  12.251  1.00  0.00    -0.091 C 
HETATM   31  C29 UNL     1      -3.248  15.099  11.061  1.00  0.00     0.042 C 
HETATM   32  C30 UNL     1      -3.072  15.326  13.604  1.00  0.00     0.042 C 
ENDBRANCH  28  29
ENDBRANCH  27  28
ENDBRANCH  22  27
BRANCH  22  33
HETATM   33  C31 UNL     1       0.036  17.490  15.789  1.00  0.00     0.205 C 
HETATM   34  O5  UNL     1       0.356  18.494  16.437  1.00  0.00    -0.644 OA
HETATM   35  O6  UNL     1      -0.907  16.642  16.398  1.00  0.00    -0.644 OA
ENDBRANCH  22  33
BRANCH   7  36
HETATM   36  O3  UNL     1       4.155  15.554  11.203  1.00  0.00    -0.395 OA
ATOM     37  H3  UNL     1       4.757  15.219  10.550  1.00  0.00     0.210 HD
ENDBRANCH   7  36
BRANCH  13  38
HETATM   38  O4  UNL     1       5.279  11.323   7.812  1.00  0.00    -0.395 OA
ATOM     39  H4  UNL     1       5.566  10.521   8.232  1.00  0.00     0.210 HD
ENDBRANCH  13  38
TORSDOF 8
ENDMDL
