MODEL 4
REMARK VINA RESULT: -4.971384386      2.322      4.345
REMARK  3 active torsions:
REMARK  status: ('A' for Active; 'I' for Inactive)
REMARK    1  A    between atoms: C1_2  and  C2_4 
REMARK    2  A    between atoms: C2_4  and  O3_5 
REMARK    3  A    between atoms: O3_5  and  P1_6 
ROOT
HETATM    1  O3  UNL     1       9.055  -2.176  18.155  1.00  0.00    -0.272 OA
ENDROOT
BRANCH   1   2
HETATM    2  C2  UNL     1       8.583  -2.970  17.141  1.00  0.00     0.295 C 
BRANCH   2   3
HETATM    3  C1  UNL     1       8.897  -2.469  15.791  1.00  0.00     0.198 C 
HETATM    4  O1  UNL     1       8.533  -3.045  14.739  1.00  0.00    -0.646 OA
HETATM    5  O2  UNL     1       9.630  -1.310  15.657  1.00  0.00    -0.646 OA
ENDBRANCH   2   3
ENDBRANCH   1   2
BRANCH   1   6
HETATM    6  P1  UNL     1       7.739  -1.566  19.023  1.00  0.00     0.422 P 
HETATM    7  O4  UNL     1       7.447  -2.432  20.232  1.00  0.00    -0.617 OA
HETATM    8  O5  UNL     1       6.340  -1.512  18.091  1.00  0.00    -0.617 OA
HETATM    9  O6  UNL     1       8.075  -0.014  19.641  1.00  0.00    -0.617 OA
ENDBRANCH   1   6
TORSDOF 3
ENDMDL
