MODEL 2
REMARK VINA RESULT: -5.051603166      2.794      4.565
REMARK  3 active torsions:
REMARK  status: ('A' for Active; 'I' for Inactive)
REMARK    1  A    between atoms: C1_2  and  C2_4 
REMARK    2  A    between atoms: C2_4  and  O3_5 
REMARK    3  A    between atoms: O3_5  and  P1_6 
ROOT
HETATM    1  O3  UNL     1       7.799  -1.896  16.511  1.00  0.00    -0.272 OA
ENDROOT
BRANCH   1   2
HETATM    2  C2  UNL     1       8.732  -2.414  15.649  1.00  0.00     0.295 C 
BRANCH   2   3
HETATM    3  C1  UNL     1       9.144  -1.485  14.582  1.00  0.00     0.198 C 
HETATM    4  O1  UNL     1      10.048  -0.628  14.723  1.00  0.00    -0.646 OA
HETATM    5  O2  UNL     1       8.514  -1.545  13.358  1.00  0.00    -0.646 OA
ENDBRANCH   2   3
ENDBRANCH   1   2
BRANCH   1   6
HETATM    6  P1  UNL     1       8.437  -1.919  18.077  1.00  0.00     0.422 P 
HETATM    7  O4  UNL     1       8.397  -3.321  18.651  1.00  0.00    -0.617 OA
HETATM    8  O5  UNL     1       7.578  -0.920  19.122  1.00  0.00    -0.617 OA
HETATM    9  O6  UNL     1      10.081  -1.471  18.078  1.00  0.00    -0.617 OA
ENDBRANCH   1   6
TORSDOF 3
ENDMDL
