MODEL 7
REMARK VINA RESULT: -4.936018750      2.338      4.314
REMARK  3 active torsions:
REMARK  status: ('A' for Active; 'I' for Inactive)
REMARK    1  A    between atoms: C1_2  and  C2_4 
REMARK    2  A    between atoms: C2_4  and  O3_5 
REMARK    3  A    between atoms: O3_5  and  P1_6 
ROOT
HETATM    1  O3  UNL     1       9.011  -2.139  18.238  1.00  0.00    -0.272 OA
ENDROOT
BRANCH   1   2
HETATM    2  C2  UNL     1       8.548  -2.886  17.185  1.00  0.00     0.295 C 
BRANCH   2   3
HETATM    3  C1  UNL     1       8.936  -2.364  15.863  1.00  0.00     0.198 C 
HETATM    4  O1  UNL     1       9.654  -1.350  15.705  1.00  0.00    -0.646 OA
HETATM    5  O2  UNL     1       8.496  -3.011  14.728  1.00  0.00    -0.646 OA
ENDBRANCH   2   3
ENDBRANCH   1   2
BRANCH   1   6
HETATM    6  P1  UNL     1       7.688  -1.579  19.128  1.00  0.00     0.422 P 
HETATM    7  O4  UNL     1       7.926  -0.161  19.607  1.00  0.00    -0.617 OA
HETATM    8  O5  UNL     1       7.393  -2.528  20.485  1.00  0.00    -0.617 OA
HETATM    9  O6  UNL     1       6.285  -1.506  18.164  1.00  0.00    -0.617 OA
ENDBRANCH   1   6
TORSDOF 3
ENDMDL
