MODEL 3
REMARK VINA RESULT: -4.983866742      2.302      4.342
REMARK  3 active torsions:
REMARK  status: ('A' for Active; 'I' for Inactive)
REMARK    1  A    between atoms: C1_2  and  C2_4 
REMARK    2  A    between atoms: C2_4  and  O3_5 
REMARK    3  A    between atoms: O3_5  and  P1_6 
ROOT
HETATM    1  O3  UNL     1       8.984  -2.220  18.254  1.00  0.00    -0.272 OA
ENDROOT
BRANCH   1   2
HETATM    2  C2  UNL     1       8.497  -2.913  17.175  1.00  0.00     0.295 C 
BRANCH   2   3
HETATM    3  C1  UNL     1       8.923  -2.373  15.872  1.00  0.00     0.198 C 
HETATM    4  O1  UNL     1       9.647  -1.357  15.750  1.00  0.00    -0.646 OA
HETATM    5  O2  UNL     1       8.514  -3.001  14.716  1.00  0.00    -0.646 OA
ENDBRANCH   2   3
ENDBRANCH   1   2
BRANCH   1   6
HETATM    6  P1  UNL     1       7.682  -1.545  19.096  1.00  0.00     0.422 P 
HETATM    7  O4  UNL     1       7.359  -2.365  20.329  1.00  0.00    -0.617 OA
HETATM    8  O5  UNL     1       6.290  -1.477  18.155  1.00  0.00    -0.617 OA
HETATM    9  O6  UNL     1       8.062   0.014  19.669  1.00  0.00    -0.617 OA
ENDBRANCH   1   6
TORSDOF 3
ENDMDL
