MODEL 14
REMARK VINA RESULT: -4.774905301      1.061      1.751
REMARK  3 active torsions:
REMARK  status: ('A' for Active; 'I' for Inactive)
REMARK    1  A    between atoms: C1_2  and  C2_4 
REMARK    2  A    between atoms: C2_4  and  O3_5 
REMARK    3  A    between atoms: O3_5  and  P1_6 
ROOT
HETATM    1  O3  UNL     1       9.123  -1.429  18.448  1.00  0.00    -0.272 OA
ENDROOT
BRANCH   1   2
HETATM    2  C2  UNL     1       8.057  -1.301  19.302  1.00  0.00     0.295 C 
BRANCH   2   3
HETATM    3  C1  UNL     1       8.136  -0.128  20.189  1.00  0.00     0.198 C 
HETATM    4  O1  UNL     1       8.619   0.973  19.835  1.00  0.00    -0.646 OA
HETATM    5  O2  UNL     1       7.660  -0.225  21.479  1.00  0.00    -0.646 OA
ENDBRANCH   2   3
ENDBRANCH   1   2
BRANCH   1   6
HETATM    6  P1  UNL     1       8.647  -2.366  17.124  1.00  0.00     0.422 P 
HETATM    7  O4  UNL     1       9.446  -3.652  17.064  1.00  0.00    -0.617 OA
HETATM    8  O5  UNL     1       8.877  -1.559  15.666  1.00  0.00    -0.617 OA
HETATM    9  O6  UNL     1       7.018  -2.845  17.263  1.00  0.00    -0.617 OA
ENDBRANCH   1   6
TORSDOF 3
ENDMDL
