MODEL 5
REMARK VINA RESULT: -4.941166990      2.309      4.329
REMARK  3 active torsions:
REMARK  status: ('A' for Active; 'I' for Inactive)
REMARK    1  A    between atoms: C1_2  and  C2_4 
REMARK    2  A    between atoms: C2_4  and  O3_5 
REMARK    3  A    between atoms: O3_5  and  P1_6 
ROOT
HETATM    1  O3  UNL     1       9.037  -2.160  18.238  1.00  0.00    -0.272 OA
ENDROOT
BRANCH   1   2
HETATM    2  C2  UNL     1       8.530  -2.881  17.187  1.00  0.00     0.295 C 
BRANCH   2   3
HETATM    3  C1  UNL     1       8.923  -2.369  15.862  1.00  0.00     0.198 C 
HETATM    4  O1  UNL     1       9.627  -1.345  15.699  1.00  0.00    -0.646 OA
HETATM    5  O2  UNL     1       8.503  -3.036  14.731  1.00  0.00    -0.646 OA
ENDBRANCH   2   3
ENDBRANCH   1   2
BRANCH   1   6
HETATM    6  P1  UNL     1       7.750  -1.538  19.139  1.00  0.00     0.422 P 
HETATM    7  O4  UNL     1       6.486  -1.489  18.304  1.00  0.00    -0.617 OA
HETATM    8  O5  UNL     1       8.057   0.024  19.682  1.00  0.00    -0.617 OA
HETATM    9  O6  UNL     1       7.384  -2.543  20.465  1.00  0.00    -0.617 OA
ENDBRANCH   1   6
TORSDOF 3
ENDMDL
