MODEL 11
REMARK VINA RESULT: -4.798319761      0.160      1.478
REMARK  3 active torsions:
REMARK  status: ('A' for Active; 'I' for Inactive)
REMARK    1  A    between atoms: C1_2  and  C2_4 
REMARK    2  A    between atoms: C2_4  and  O3_5 
REMARK    3  A    between atoms: O3_5  and  P1_6 
ROOT
HETATM    1  O3  UNL     1       7.333  -1.168  18.463  1.00  0.00    -0.272 OA
ENDROOT
BRANCH   1   2
HETATM    2  C2  UNL     1       7.442  -1.371  19.816  1.00  0.00     0.295 C 
BRANCH   2   3
HETATM    3  C1  UNL     1       7.894  -0.186  20.566  1.00  0.00     0.198 C 
HETATM    4  O1  UNL     1       7.744  -0.054  21.803  1.00  0.00    -0.646 OA
HETATM    5  O2  UNL     1       8.516   0.842  19.891  1.00  0.00    -0.646 OA
ENDBRANCH   2   3
ENDBRANCH   1   2
BRANCH   1   6
HETATM    6  P1  UNL     1       8.465  -2.144  17.676  1.00  0.00     0.422 P 
HETATM    7  O4  UNL     1       8.094  -2.325  16.218  1.00  0.00    -0.617 OA
HETATM    8  O5  UNL     1       8.566  -3.675  18.365  1.00  0.00    -0.617 OA
HETATM    9  O6  UNL     1      10.006  -1.417  17.670  1.00  0.00    -0.617 OA
ENDBRANCH   1   6
TORSDOF 3
ENDMDL
