MODEL 1
REMARK VINA RESULT: -5.092328691      0.000      0.000
REMARK  3 active torsions:
REMARK  status: ('A' for Active; 'I' for Inactive)
REMARK    1  A    between atoms: C1_2  and  C2_4 
REMARK    2  A    between atoms: C2_4  and  O3_5 
REMARK    3  A    between atoms: O3_5  and  P1_6 
ROOT
HETATM    1  O3  UNL     1       7.297  -1.180  18.550  1.00  0.00    -0.272 OA
ENDROOT
BRANCH   1   2
HETATM    2  C2  UNL     1       7.395  -1.352  19.908  1.00  0.00     0.295 C 
BRANCH   2   3
HETATM    3  C1  UNL     1       7.866  -0.159  20.631  1.00  0.00     0.198 C 
HETATM    4  O1  UNL     1       7.738  -0.006  21.869  1.00  0.00    -0.646 OA
HETATM    5  O2  UNL     1       8.483   0.854  19.929  1.00  0.00    -0.646 OA
ENDBRANCH   2   3
ENDBRANCH   1   2
BRANCH   1   6
HETATM    6  P1  UNL     1       8.481  -2.124  17.798  1.00  0.00     0.422 P 
HETATM    7  O4  UNL     1       8.472  -3.535  18.351  1.00  0.00    -0.617 OA
HETATM    8  O5  UNL     1      10.025  -1.500  18.030  1.00  0.00    -0.617 OA
HETATM    9  O6  UNL     1       8.172  -2.284  16.130  1.00  0.00    -0.617 OA
ENDBRANCH   1   6
TORSDOF 3
ENDMDL
