MODEL 14
REMARK VINA RESULT: -9.266611464      3.398      7.207
REMARK  14 active torsions:
REMARK  status: ('A' for Active; 'I' for Inactive)
REMARK       I    between atoms: C1_2  and  N1_3 
REMARK    1  A    between atoms: C1_2  and  C20_31 
REMARK    2  A    between atoms: N1_3  and  C2_5 
REMARK    3  A    between atoms: C2_5  and  C3_6 
REMARK    4  A    between atoms: C2_5  and  C10_13 
REMARK    5  A    between atoms: C3_6  and  C4_7 
REMARK    6  A    between atoms: C10_13  and  O2_14 
REMARK    7  A    between atoms: C10_13  and  N2_16 
REMARK    8  A    between atoms: N2_16  and  C11_18 
REMARK    9  A    between atoms: C11_18  and  C12_19 
REMARK   10  A    between atoms: C11_18  and  C19_28 
REMARK   11  A    between atoms: C12_19  and  C13_20 
REMARK   12  A    between atoms: C16_23  and  O3_24 
REMARK   13  A    between atoms: C20_31  and  C21_33 
REMARK   14  A    between atoms: C21_33  and  C22_34 
ROOT
HETATM    1  C2  UNL     1      36.877  41.250  -3.413  1.00  0.00     0.163 C 
ENDROOT
BRANCH   1   2
HETATM    2  N1  UNL     1      36.027  40.872  -4.577  1.00  0.00    -0.348 N 
HETATM    3  C1  UNL     1      35.914  41.626  -5.746  1.00  0.00     0.233 C 
HETATM    4  O1  UNL     1      36.537  42.693  -5.858  1.00  0.00    -0.272 OA
ATOM      5  H1  UNL     1      35.493  40.005  -4.516  1.00  0.00     0.163 HD
BRANCH   3   6
HETATM    6  C20 UNL     1      35.054  41.160  -6.859  1.00  0.00     0.154 C 
HETATM    7  S1  UNL     1      34.173  39.625  -6.393  1.00  0.00    -0.082 SA
BRANCH   6   8
HETATM    8  C21 UNL     1      34.005  42.219  -7.139  1.00  0.00     0.064 C 
BRANCH   8   9
HETATM    9  C22 UNL     1      33.653  42.222  -8.597  1.00  0.00    -0.057 A 
HETATM   10  C23 UNL     1      33.382  41.099  -9.316  1.00  0.00     0.007 A 
HETATM   11  C24 UNL     1      33.071  41.161 -10.676  1.00  0.00     0.001 A 
HETATM   12  C25 UNL     1      33.031  42.365 -11.329  1.00  0.00     0.000 A 
HETATM   13  C26 UNL     1      33.309  43.509 -10.590  1.00  0.00     0.001 A 
HETATM   14  C27 UNL     1      33.612  43.457  -9.263  1.00  0.00     0.007 A 
ENDBRANCH   8   9
ENDBRANCH   6   8
ENDBRANCH   3   6
ENDBRANCH   1   2
BRANCH   1  15
HETATM   15  C3  UNL     1      36.067  41.868  -2.377  1.00  0.00     0.072 C 
BRANCH  15  16
HETATM   16  C4  UNL     1      36.770  42.636  -1.344  1.00  0.00    -0.056 A 
HETATM   17  C5  UNL     1      37.026  44.011  -1.555  1.00  0.00     0.007 A 
HETATM   18  C6  UNL     1      37.608  44.807  -0.597  1.00  0.00     0.001 A 
HETATM   19  C7  UNL     1      37.976  44.300   0.632  1.00  0.00     0.000 A 
HETATM   20  C8  UNL     1      37.733  42.958   0.852  1.00  0.00     0.001 A 
HETATM   21  C9  UNL     1      37.150  42.166  -0.110  1.00  0.00     0.007 A 
ENDBRANCH  15  16
ENDBRANCH   1  15
BRANCH   1  22
HETATM   22  C10 UNL     1      37.785  40.148  -3.196  1.00  0.00     0.135 C 
BRANCH  22  23
HETATM   23  O2  UNL     1      39.064  40.535  -3.167  1.00  0.00    -0.348 OA
ATOM     24  H2  UNL     1      39.470  40.520  -4.026  1.00  0.00     0.219 HD
ENDBRANCH  22  23
BRANCH  22  25
HETATM   25  N2  UNL     1      37.638  38.783  -3.010  1.00  0.00    -0.358 N 
ATOM     26  H2  UNL     1      36.828  38.450  -2.488  1.00  0.00     0.162 HD
BRANCH  25  27
HETATM   27  C11 UNL     1      38.592  37.789  -3.528  1.00  0.00     0.188 C 
BRANCH  27  28
HETATM   28  C12 UNL     1      38.370  36.448  -2.899  1.00  0.00     0.074 C 
BRANCH  28  29
HETATM   29  C13 UNL     1      39.382  36.086  -1.909  1.00  0.00    -0.056 A 
HETATM   30  C14 UNL     1      40.727  36.265  -2.158  1.00  0.00     0.010 A 
HETATM   31  C15 UNL     1      41.656  35.911  -1.195  1.00  0.00     0.037 A 
HETATM   32  C16 UNL     1      41.308  35.379   0.020  1.00  0.00     0.065 A 
HETATM   33  C17 UNL     1      39.959  35.205   0.258  1.00  0.00     0.037 A 
HETATM   34  C18 UNL     1      39.005  35.553  -0.693  1.00  0.00     0.010 A 
BRANCH  32  35
HETATM   35  O3  UNL     1      42.214  35.021   0.997  1.00  0.00    -0.361 OA
ATOM     36  H3  UNL     1      41.976  34.614   1.822  1.00  0.00     0.217 HD
ENDBRANCH  32  35
ENDBRANCH  28  29
ENDBRANCH  27  28
BRANCH  27  37
HETATM   37  C19 UNL     1      38.525  37.816  -4.989  1.00  0.00     0.197 C 
HETATM   38  O4  UNL     1      39.531  37.549  -5.688  1.00  0.00    -0.646 OA
HETATM   39  O5  UNL     1      37.341  38.133  -5.626  1.00  0.00    -0.646 OA
ENDBRANCH  27  37
ENDBRANCH  25  27
ENDBRANCH  22  25
ENDBRANCH   1  22
TORSDOF 14
ENDMDL
