MODEL 1
REMARK VINA RESULT: -10.204637264      0.000      0.000
REMARK  14 active torsions:
REMARK  status: ('A' for Active; 'I' for Inactive)
REMARK       I    between atoms: C1_2  and  N1_3 
REMARK    1  A    between atoms: C1_2  and  C20_31 
REMARK    2  A    between atoms: N1_3  and  C2_5 
REMARK    3  A    between atoms: C2_5  and  C3_6 
REMARK    4  A    between atoms: C2_5  and  C10_13 
REMARK    5  A    between atoms: C3_6  and  C4_7 
REMARK    6  A    between atoms: C10_13  and  O2_14 
REMARK    7  A    between atoms: C10_13  and  N2_16 
REMARK    8  A    between atoms: N2_16  and  C11_18 
REMARK    9  A    between atoms: C11_18  and  C12_19 
REMARK   10  A    between atoms: C11_18  and  C19_28 
REMARK   11  A    between atoms: C12_19  and  C13_20 
REMARK   12  A    between atoms: C16_23  and  O3_24 
REMARK   13  A    between atoms: C20_31  and  C21_33 
REMARK   14  A    between atoms: C21_33  and  C22_34 
ROOT
HETATM    1  C2  UNL     1      34.780  41.607  -7.039  1.00  0.00     0.163 C 
ENDROOT
BRANCH   1   2
HETATM    2  N1  UNL     1      34.351  40.180  -7.039  1.00  0.00    -0.348 N 
HETATM    3  C1  UNL     1      34.687  39.258  -8.030  1.00  0.00     0.233 C 
HETATM    4  O1  UNL     1      35.379  39.612  -8.998  1.00  0.00    -0.272 OA
ATOM      5  H1  UNL     1      33.773  39.856  -6.263  1.00  0.00     0.163 HD
BRANCH   3   6
HETATM    6  C20 UNL     1      34.225  37.853  -7.936  1.00  0.00     0.154 C 
HETATM    7  S1  UNL     1      35.514  36.802  -7.174  1.00  0.00    -0.082 SA
BRANCH   6   8
HETATM    8  C21 UNL     1      33.005  37.801  -7.036  1.00  0.00     0.064 C 
BRANCH   8   9
HETATM    9  C22 UNL     1      31.760  37.684  -7.864  1.00  0.00    -0.057 A 
HETATM   10  C23 UNL     1      31.458  38.508  -8.905  1.00  0.00     0.007 A 
HETATM   11  C24 UNL     1      30.277  38.358  -9.634  1.00  0.00     0.001 A 
HETATM   12  C25 UNL     1      29.380  37.371  -9.317  1.00  0.00     0.000 A 
HETATM   13  C26 UNL     1      29.693  36.534  -8.253  1.00  0.00     0.001 A 
HETATM   14  C27 UNL     1      30.844  36.672  -7.537  1.00  0.00     0.007 A 
ENDBRANCH   8   9
ENDBRANCH   6   8
ENDBRANCH   3   6
ENDBRANCH   1   2
BRANCH   1  15
HETATM   15  C3  UNL     1      33.671  42.467  -7.412  1.00  0.00     0.072 C 
BRANCH  15  16
HETATM   16  C4  UNL     1      33.384  42.610  -8.843  1.00  0.00    -0.056 A 
HETATM   17  C5  UNL     1      32.555  41.658  -9.483  1.00  0.00     0.007 A 
HETATM   18  C6  UNL     1      32.181  41.776 -10.801  1.00  0.00     0.001 A 
HETATM   19  C7  UNL     1      32.599  42.839 -11.575  1.00  0.00     0.000 A 
HETATM   20  C8  UNL     1      33.409  43.776 -10.964  1.00  0.00     0.001 A 
HETATM   21  C9  UNL     1      33.780  43.654  -9.645  1.00  0.00     0.007 A 
ENDBRANCH  15  16
ENDBRANCH   1  15
BRANCH   1  22
HETATM   22  C10 UNL     1      35.598  41.786  -5.863  1.00  0.00     0.135 C 
BRANCH  22  23
HETATM   23  O2  UNL     1      36.649  42.583  -6.084  1.00  0.00    -0.348 OA
ATOM     24  H2  UNL     1      37.324  42.489  -5.423  1.00  0.00     0.219 HD
ENDBRANCH  22  23
BRANCH  22  25
HETATM   25  N2  UNL     1      35.547  41.326  -4.557  1.00  0.00    -0.358 N 
ATOM     26  H2  UNL     1      34.802  40.678  -4.301  1.00  0.00     0.162 HD
BRANCH  25  27
HETATM   27  C11 UNL     1      36.511  41.725  -3.520  1.00  0.00     0.188 C 
BRANCH  27  28
HETATM   28  C12 UNL     1      35.853  41.824  -2.178  1.00  0.00     0.074 C 
BRANCH  28  29
HETATM   29  C13 UNL     1      36.517  42.747  -1.262  1.00  0.00    -0.056 A 
HETATM   30  C14 UNL     1      37.036  42.317  -0.057  1.00  0.00     0.010 A 
HETATM   31  C15 UNL     1      37.659  43.222   0.783  1.00  0.00     0.037 A 
HETATM   32  C16 UNL     1      37.793  44.553   0.483  1.00  0.00     0.065 A 
HETATM   33  C17 UNL     1      37.270  44.972  -0.725  1.00  0.00     0.037 A 
HETATM   34  C18 UNL     1      36.639  44.082  -1.588  1.00  0.00     0.010 A 
BRANCH  32  35
HETATM   35  O3  UNL     1      38.411  45.474   1.302  1.00  0.00    -0.361 OA
ATOM     36  H3  UNL     1      38.320  46.415   1.211  1.00  0.00     0.217 HD
ENDBRANCH  32  35
ENDBRANCH  28  29
ENDBRANCH  27  28
BRANCH  27  37
HETATM   37  C19 UNL     1      37.655  40.815  -3.592  1.00  0.00     0.197 C 
HETATM   38  O4  UNL     1      38.757  41.120  -3.079  1.00  0.00    -0.646 OA
HETATM   39  O5  UNL     1      37.536  39.595  -4.229  1.00  0.00    -0.646 OA
ENDBRANCH  27  37
ENDBRANCH  25  27
ENDBRANCH  22  25
ENDBRANCH   1  22
TORSDOF 14
ENDMDL
