MODEL 2
REMARK VINA RESULT: -9.866406405      3.150      6.807
REMARK  14 active torsions:
REMARK  status: ('A' for Active; 'I' for Inactive)
REMARK       I    between atoms: C1_2  and  N1_3 
REMARK    1  A    between atoms: C1_2  and  C20_31 
REMARK    2  A    between atoms: N1_3  and  C2_5 
REMARK    3  A    between atoms: C2_5  and  C3_6 
REMARK    4  A    between atoms: C2_5  and  C10_13 
REMARK    5  A    between atoms: C3_6  and  C4_7 
REMARK    6  A    between atoms: C10_13  and  O2_14 
REMARK    7  A    between atoms: C10_13  and  N2_16 
REMARK    8  A    between atoms: N2_16  and  C11_18 
REMARK    9  A    between atoms: C11_18  and  C12_19 
REMARK   10  A    between atoms: C11_18  and  C19_28 
REMARK   11  A    between atoms: C12_19  and  C13_20 
REMARK   12  A    between atoms: C16_23  and  O3_24 
REMARK   13  A    between atoms: C20_31  and  C21_33 
REMARK   14  A    between atoms: C21_33  and  C22_34 
ROOT
HETATM    1  C2  UNL     1      36.327  41.911  -3.122  1.00  0.00     0.163 C 
ENDROOT
BRANCH   1   2
HETATM    2  N1  UNL     1      35.292  41.572  -4.139  1.00  0.00    -0.348 N 
HETATM    3  C1  UNL     1      35.414  41.836  -5.504  1.00  0.00     0.233 C 
HETATM    4  O1  UNL     1      36.432  42.398  -5.938  1.00  0.00    -0.272 OA
ATOM      5  H1  UNL     1      34.437  41.118  -3.817  1.00  0.00     0.163 HD
BRANCH   3   6
HETATM    6  C20 UNL     1      34.336  41.448  -6.443  1.00  0.00     0.154 C 
HETATM    7  S1  UNL     1      33.956  42.822  -7.590  1.00  0.00    -0.082 SA
BRANCH   6   8
HETATM    8  C21 UNL     1      34.818  40.278  -7.279  1.00  0.00     0.064 C 
BRANCH   8   9
HETATM    9  C22 UNL     1      33.651  39.444  -7.719  1.00  0.00    -0.057 A 
HETATM   10  C23 UNL     1      33.009  39.602  -8.909  1.00  0.00     0.007 A 
HETATM   11  C24 UNL     1      31.919  38.804  -9.261  1.00  0.00     0.001 A 
HETATM   12  C25 UNL     1      31.461  37.832  -8.410  1.00  0.00     0.000 A 
HETATM   13  C26 UNL     1      32.120  37.675  -7.196  1.00  0.00     0.001 A 
HETATM   14  C27 UNL     1      33.185  38.450  -6.846  1.00  0.00     0.007 A 
ENDBRANCH   8   9
ENDBRANCH   6   8
ENDBRANCH   3   6
ENDBRANCH   1   2
BRANCH   1  15
HETATM   15  C3  UNL     1      35.699  42.246  -1.856  1.00  0.00     0.072 C 
BRANCH  15  16
HETATM   16  C4  UNL     1      36.545  42.863  -0.830  1.00  0.00    -0.056 A 
HETATM   17  C5  UNL     1      36.989  42.084   0.264  1.00  0.00     0.007 A 
HETATM   18  C6  UNL     1      37.848  42.576   1.218  1.00  0.00     0.001 A 
HETATM   19  C7  UNL     1      38.326  43.869   1.157  1.00  0.00     0.000 A 
HETATM   20  C8  UNL     1      37.900  44.643   0.094  1.00  0.00     0.001 A 
HETATM   21  C9  UNL     1      37.040  44.145  -0.858  1.00  0.00     0.007 A 
ENDBRANCH  15  16
ENDBRANCH   1  15
BRANCH   1  22
HETATM   22  C10 UNL     1      37.386  40.943  -3.282  1.00  0.00     0.135 C 
BRANCH  22  23
HETATM   23  O2  UNL     1      38.529  41.497  -3.699  1.00  0.00    -0.348 OA
ATOM     24  H2  UNL     1      39.286  41.177  -3.221  1.00  0.00     0.219 HD
ENDBRANCH  22  23
BRANCH  22  25
HETATM   25  N2  UNL     1      37.495  39.574  -3.101  1.00  0.00    -0.358 N 
ATOM     26  H2  UNL     1      36.760  39.094  -2.582  1.00  0.00     0.162 HD
BRANCH  25  27
HETATM   27  C11 UNL     1      38.617  38.776  -3.620  1.00  0.00     0.188 C 
BRANCH  27  28
HETATM   28  C12 UNL     1      39.069  37.760  -2.616  1.00  0.00     0.074 C 
BRANCH  28  29
HETATM   29  C13 UNL     1      40.517  37.572  -2.579  1.00  0.00    -0.056 A 
HETATM   30  C14 UNL     1      41.080  36.437  -2.030  1.00  0.00     0.010 A 
HETATM   31  C15 UNL     1      42.457  36.294  -2.014  1.00  0.00     0.037 A 
HETATM   32  C16 UNL     1      43.313  37.237  -2.523  1.00  0.00     0.065 A 
HETATM   33  C17 UNL     1      42.737  38.367  -3.070  1.00  0.00     0.037 A 
HETATM   34  C18 UNL     1      41.357  38.535  -3.098  1.00  0.00     0.010 A 
BRANCH  32  35
HETATM   35  O3  UNL     1      44.687  37.117  -2.522  1.00  0.00    -0.361 OA
ATOM     36  H3  UNL     1      45.284  37.825  -2.314  1.00  0.00     0.217 HD
ENDBRANCH  32  35
ENDBRANCH  28  29
ENDBRANCH  27  28
BRANCH  27  37
HETATM   37  C19 UNL     1      38.225  38.238  -4.923  1.00  0.00     0.197 C 
HETATM   38  O4  UNL     1      37.068  38.413  -5.374  1.00  0.00    -0.646 OA
HETATM   39  O5  UNL     1      39.132  37.526  -5.685  1.00  0.00    -0.646 OA
ENDBRANCH  27  37
ENDBRANCH  25  27
ENDBRANCH  22  25
ENDBRANCH   1  22
TORSDOF 14
ENDMDL
