MODEL 3
REMARK VINA RESULT: -9.677692127      2.958      8.924
REMARK  14 active torsions:
REMARK  status: ('A' for Active; 'I' for Inactive)
REMARK       I    between atoms: C1_2  and  N1_3 
REMARK    1  A    between atoms: C1_2  and  C20_31 
REMARK    2  A    between atoms: N1_3  and  C2_5 
REMARK    3  A    between atoms: C2_5  and  C3_6 
REMARK    4  A    between atoms: C2_5  and  C10_13 
REMARK    5  A    between atoms: C3_6  and  C4_7 
REMARK    6  A    between atoms: C10_13  and  O2_14 
REMARK    7  A    between atoms: C10_13  and  N2_16 
REMARK    8  A    between atoms: N2_16  and  C11_18 
REMARK    9  A    between atoms: C11_18  and  C12_19 
REMARK   10  A    between atoms: C11_18  and  C19_28 
REMARK   11  A    between atoms: C12_19  and  C13_20 
REMARK   12  A    between atoms: C16_23  and  O3_24 
REMARK   13  A    between atoms: C20_31  and  C21_33 
REMARK   14  A    between atoms: C21_33  and  C22_34 
ROOT
HETATM    1  C2  UNL     1      36.195  42.269  -3.277  1.00  0.00     0.163 C 
ENDROOT
BRANCH   1   2
HETATM    2  N1  UNL     1      36.739  40.896  -3.086  1.00  0.00    -0.348 N 
HETATM    3  C1  UNL     1      38.066  40.535  -3.319  1.00  0.00     0.233 C 
HETATM    4  O1  UNL     1      38.877  41.384  -3.721  1.00  0.00    -0.272 OA
ATOM      5  H1  UNL     1      36.098  40.170  -2.764  1.00  0.00     0.163 HD
BRANCH   3   6
HETATM    6  C20 UNL     1      38.519  39.144  -3.085  1.00  0.00     0.154 C 
HETATM    7  S1  UNL     1      37.660  38.421  -1.641  1.00  0.00    -0.082 SA
BRANCH   6   8
HETATM    8  C21 UNL     1      38.157  38.306  -4.297  1.00  0.00     0.064 C 
BRANCH   8   9
HETATM    9  C22 UNL     1      39.391  37.678  -4.876  1.00  0.00    -0.057 A 
HETATM   10  C23 UNL     1      39.391  36.870  -5.970  1.00  0.00     0.007 A 
HETATM   11  C24 UNL     1      40.570  36.303  -6.458  1.00  0.00     0.001 A 
HETATM   12  C25 UNL     1      41.770  36.548  -5.842  1.00  0.00     0.000 A 
HETATM   13  C26 UNL     1      41.764  37.374  -4.725  1.00  0.00     0.001 A 
HETATM   14  C27 UNL     1      40.618  37.931  -4.243  1.00  0.00     0.007 A 
ENDBRANCH   8   9
ENDBRANCH   6   8
ENDBRANCH   3   6
ENDBRANCH   1   2
BRANCH   1  15
HETATM   15  C3  UNL     1      36.992  43.234  -2.539  1.00  0.00     0.072 C 
BRANCH  15  16
HETATM   16  C4  UNL     1      37.244  42.953  -1.122  1.00  0.00    -0.056 A 
HETATM   17  C5  UNL     1      38.335  43.579  -0.473  1.00  0.00     0.007 A 
HETATM   18  C6  UNL     1      38.580  43.423   0.870  1.00  0.00     0.001 A 
HETATM   19  C7  UNL     1      37.766  42.641   1.663  1.00  0.00     0.000 A 
HETATM   20  C8  UNL     1      36.697  42.023   1.044  1.00  0.00     0.001 A 
HETATM   21  C9  UNL     1      36.456  42.183  -0.301  1.00  0.00     0.007 A 
ENDBRANCH  15  16
ENDBRANCH   1  15
BRANCH   1  22
HETATM   22  C10 UNL     1      35.857  42.383  -4.676  1.00  0.00     0.135 C 
BRANCH  22  23
HETATM   23  O2  UNL     1      36.912  42.697  -5.435  1.00  0.00    -0.348 OA
ATOM     24  H2  UNL     1      36.719  42.652  -6.365  1.00  0.00     0.219 HD
ENDBRANCH  22  23
BRANCH  22  25
HETATM   25  N2  UNL     1      34.694  42.240  -5.416  1.00  0.00    -0.358 N 
ATOM     26  H2  UNL     1      33.813  42.534  -4.994  1.00  0.00     0.162 HD
BRANCH  25  27
HETATM   27  C11 UNL     1      34.665  41.685  -6.778  1.00  0.00     0.188 C 
BRANCH  27  28
HETATM   28  C12 UNL     1      34.040  40.324  -6.794  1.00  0.00     0.074 C 
BRANCH  28  29
HETATM   29  C13 UNL     1      34.702  39.382  -7.694  1.00  0.00    -0.056 A 
HETATM   30  C14 UNL     1      35.655  38.497  -7.234  1.00  0.00     0.010 A 
HETATM   31  C15 UNL     1      36.259  37.619  -8.118  1.00  0.00     0.037 A 
HETATM   32  C16 UNL     1      35.959  37.578  -9.455  1.00  0.00     0.065 A 
HETATM   33  C17 UNL     1      35.003  38.469  -9.903  1.00  0.00     0.037 A 
HETATM   34  C18 UNL     1      34.381  39.361  -9.036  1.00  0.00     0.010 A 
BRANCH  32  35
HETATM   35  O3  UNL     1      36.544  36.713 -10.354  1.00  0.00    -0.361 OA
ATOM     36  H3  UNL     1      36.424  36.759 -11.295  1.00  0.00     0.217 HD
ENDBRANCH  32  35
ENDBRANCH  28  29
ENDBRANCH  27  28
BRANCH  27  37
HETATM   37  C19 UNL     1      34.037  42.674  -7.655  1.00  0.00     0.197 C 
HETATM   38  O4  UNL     1      32.859  43.054  -7.462  1.00  0.00    -0.646 OA
HETATM   39  O5  UNL     1      34.741  43.211  -8.716  1.00  0.00    -0.646 OA
ENDBRANCH  27  37
ENDBRANCH  25  27
ENDBRANCH  22  25
ENDBRANCH   1  22
TORSDOF 14
ENDMDL
