MODEL 4
REMARK VINA RESULT: -9.630750337      3.347      6.846
REMARK  14 active torsions:
REMARK  status: ('A' for Active; 'I' for Inactive)
REMARK       I    between atoms: C1_2  and  N1_3 
REMARK    1  A    between atoms: C1_2  and  C20_31 
REMARK    2  A    between atoms: N1_3  and  C2_5 
REMARK    3  A    between atoms: C2_5  and  C3_6 
REMARK    4  A    between atoms: C2_5  and  C10_13 
REMARK    5  A    between atoms: C3_6  and  C4_7 
REMARK    6  A    between atoms: C10_13  and  O2_14 
REMARK    7  A    between atoms: C10_13  and  N2_16 
REMARK    8  A    between atoms: N2_16  and  C11_18 
REMARK    9  A    between atoms: C11_18  and  C12_19 
REMARK   10  A    between atoms: C11_18  and  C19_28 
REMARK   11  A    between atoms: C12_19  and  C13_20 
REMARK   12  A    between atoms: C16_23  and  O3_24 
REMARK   13  A    between atoms: C20_31  and  C21_33 
REMARK   14  A    between atoms: C21_33  and  C22_34 
ROOT
HETATM    1  C2  UNL     1      36.329  41.796  -3.204  1.00  0.00     0.163 C 
ENDROOT
BRANCH   1   2
HETATM    2  N1  UNL     1      35.283  41.480  -4.216  1.00  0.00    -0.348 N 
HETATM    3  C1  UNL     1      35.367  41.817  -5.567  1.00  0.00     0.233 C 
HETATM    4  O1  UNL     1      36.358  42.432  -5.992  1.00  0.00    -0.272 OA
ATOM      5  H1  UNL     1      34.449  40.983  -3.901  1.00  0.00     0.163 HD
BRANCH   3   6
HETATM    6  C20 UNL     1      34.281  41.445  -6.504  1.00  0.00     0.154 C 
HETATM    7  S1  UNL     1      33.915  42.827  -7.646  1.00  0.00    -0.082 SA
BRANCH   6   8
HETATM    8  C21 UNL     1      34.745  40.271  -7.344  1.00  0.00     0.064 C 
BRANCH   8   9
HETATM    9  C22 UNL     1      33.570  39.433  -7.752  1.00  0.00    -0.057 A 
HETATM   10  C23 UNL     1      32.881  39.602  -8.913  1.00  0.00     0.007 A 
HETATM   11  C24 UNL     1      31.785  38.798  -9.235  1.00  0.00     0.001 A 
HETATM   12  C25 UNL     1      31.369  37.810  -8.381  1.00  0.00     0.000 A 
HETATM   13  C26 UNL     1      32.076  37.641  -7.196  1.00  0.00     0.001 A 
HETATM   14  C27 UNL     1      33.147  38.421  -6.876  1.00  0.00     0.007 A 
ENDBRANCH   8   9
ENDBRANCH   6   8
ENDBRANCH   3   6
ENDBRANCH   1   2
BRANCH   1  15
HETATM   15  C3  UNL     1      35.719  42.046  -1.909  1.00  0.00     0.072 C 
BRANCH  15  16
HETATM   16  C4  UNL     1      36.529  42.749  -0.910  1.00  0.00    -0.056 A 
HETATM   17  C5  UNL     1      36.988  42.047   0.230  1.00  0.00     0.007 A 
HETATM   18  C6  UNL     1      37.816  42.622   1.164  1.00  0.00     0.001 A 
HETATM   19  C7  UNL     1      38.247  43.927   1.037  1.00  0.00     0.000 A 
HETATM   20  C8  UNL     1      37.806  44.625  -0.071  1.00  0.00     0.001 A 
HETATM   21  C9  UNL     1      36.978  44.044  -1.003  1.00  0.00     0.007 A 
ENDBRANCH  15  16
ENDBRANCH   1  15
BRANCH   1  22
HETATM   22  C10 UNL     1      37.413  40.872  -3.436  1.00  0.00     0.135 C 
BRANCH  22  23
HETATM   23  O2  UNL     1      38.608  41.400  -3.154  1.00  0.00    -0.348 OA
ATOM     24  H2  UNL     1      39.227  40.754  -2.834  1.00  0.00     0.219 HD
ENDBRANCH  22  23
BRANCH  22  25
HETATM   25  N2  UNL     1      37.503  39.562  -3.880  1.00  0.00    -0.358 N 
ATOM     26  H2  UNL     1      36.956  39.289  -4.697  1.00  0.00     0.162 HD
BRANCH  25  27
HETATM   27  C11 UNL     1      38.347  38.545  -3.234  1.00  0.00     0.188 C 
BRANCH  27  28
HETATM   28  C12 UNL     1      37.684  37.988  -2.012  1.00  0.00     0.074 C 
BRANCH  28  29
HETATM   29  C13 UNL     1      38.387  36.849  -1.426  1.00  0.00    -0.056 A 
HETATM   30  C14 UNL     1      39.609  37.003  -0.802  1.00  0.00     0.010 A 
HETATM   31  C15 UNL     1      40.244  35.900  -0.259  1.00  0.00     0.037 A 
HETATM   32  C16 UNL     1      39.718  34.634  -0.306  1.00  0.00     0.065 A 
HETATM   33  C17 UNL     1      38.495  34.494  -0.933  1.00  0.00     0.037 A 
HETATM   34  C18 UNL     1      37.836  35.586  -1.487  1.00  0.00     0.010 A 
BRANCH  32  35
HETATM   35  O3  UNL     1      40.330  33.521   0.230  1.00  0.00    -0.361 OA
ATOM     36  H3  UNL     1      39.886  32.698   0.401  1.00  0.00     0.217 HD
ENDBRANCH  32  35
ENDBRANCH  28  29
ENDBRANCH  27  28
BRANCH  27  37
HETATM   37  C19 UNL     1      38.724  37.559  -4.248  1.00  0.00     0.197 C 
HETATM   38  O4  UNL     1      39.928  37.338  -4.519  1.00  0.00    -0.646 OA
HETATM   39  O5  UNL     1      37.751  36.849  -4.925  1.00  0.00    -0.646 OA
ENDBRANCH  27  37
ENDBRANCH  25  27
ENDBRANCH  22  25
ENDBRANCH   1  22
TORSDOF 14
ENDMDL
