MODEL 6
REMARK VINA RESULT: -9.554203226      2.350      3.870
REMARK  14 active torsions:
REMARK  status: ('A' for Active; 'I' for Inactive)
REMARK       I    between atoms: C1_2  and  N1_3 
REMARK    1  A    between atoms: C1_2  and  C20_31 
REMARK    2  A    between atoms: N1_3  and  C2_5 
REMARK    3  A    between atoms: C2_5  and  C3_6 
REMARK    4  A    between atoms: C2_5  and  C10_13 
REMARK    5  A    between atoms: C3_6  and  C4_7 
REMARK    6  A    between atoms: C10_13  and  O2_14 
REMARK    7  A    between atoms: C10_13  and  N2_16 
REMARK    8  A    between atoms: N2_16  and  C11_18 
REMARK    9  A    between atoms: C11_18  and  C12_19 
REMARK   10  A    between atoms: C11_18  and  C19_28 
REMARK   11  A    between atoms: C12_19  and  C13_20 
REMARK   12  A    between atoms: C16_23  and  O3_24 
REMARK   13  A    between atoms: C20_31  and  C21_33 
REMARK   14  A    between atoms: C21_33  and  C22_34 
ROOT
HETATM    1  C2  UNL     1      35.026  41.114  -6.875  1.00  0.00     0.163 C 
ENDROOT
BRANCH   1   2
HETATM    2  N1  UNL     1      35.166  39.633  -6.793  1.00  0.00    -0.348 N 
HETATM    3  C1  UNL     1      35.578  38.822  -7.850  1.00  0.00     0.233 C 
HETATM    4  O1  UNL     1      35.845  39.327  -8.951  1.00  0.00    -0.272 OA
ATOM      5  H1  UNL     1      34.946  39.182  -5.904  1.00  0.00     0.163 HD
BRANCH   3   6
HETATM    6  C20 UNL     1      35.703  37.357  -7.668  1.00  0.00     0.154 C 
HETATM    7  S1  UNL     1      34.053  36.566  -7.659  1.00  0.00    -0.082 SA
BRANCH   6   8
HETATM    8  C21 UNL     1      36.475  36.785  -8.841  1.00  0.00     0.064 C 
BRANCH   8   9
HETATM    9  C22 UNL     1      37.706  36.080  -8.353  1.00  0.00    -0.057 A 
HETATM   10  C23 UNL     1      38.284  35.027  -8.992  1.00  0.00     0.007 A 
HETATM   11  C24 UNL     1      39.424  34.401  -8.484  1.00  0.00     0.001 A 
HETATM   12  C25 UNL     1      39.997  34.835  -7.317  1.00  0.00     0.000 A 
HETATM   13  C26 UNL     1      39.403  35.911  -6.668  1.00  0.00     0.001 A 
HETATM   14  C27 UNL     1      38.291  36.527  -7.157  1.00  0.00     0.007 A 
ENDBRANCH   8   9
ENDBRANCH   6   8
ENDBRANCH   3   6
ENDBRANCH   1   2
BRANCH   1  15
HETATM   15  C3  UNL     1      33.689  41.470  -7.320  1.00  0.00     0.072 C 
BRANCH  15  16
HETATM   16  C4  UNL     1      33.552  41.989  -8.684  1.00  0.00    -0.056 A 
HETATM   17  C5  UNL     1      33.092  41.130  -9.711  1.00  0.00     0.007 A 
HETATM   18  C6  UNL     1      32.865  41.571 -10.992  1.00  0.00     0.001 A 
HETATM   19  C7  UNL     1      33.074  42.887 -11.348  1.00  0.00     0.000 A 
HETATM   20  C8  UNL     1      33.524  43.738 -10.357  1.00  0.00     0.001 A 
HETATM   21  C9  UNL     1      33.750  43.291  -9.076  1.00  0.00     0.007 A 
ENDBRANCH  15  16
ENDBRANCH   1  15
BRANCH   1  22
HETATM   22  C10 UNL     1      35.670  41.650  -5.700  1.00  0.00     0.135 C 
BRANCH  22  23
HETATM   23  O2  UNL     1      36.638  42.523  -5.997  1.00  0.00    -0.348 OA
ATOM     24  H2  UNL     1      36.298  43.360  -6.290  1.00  0.00     0.219 HD
ENDBRANCH  22  23
BRANCH  22  25
HETATM   25  N2  UNL     1      35.516  41.473  -4.334  1.00  0.00    -0.358 N 
ATOM     26  H2  UNL     1      34.608  41.165  -3.985  1.00  0.00     0.162 HD
BRANCH  25  27
HETATM   27  C11 UNL     1      36.595  41.706  -3.361  1.00  0.00     0.188 C 
BRANCH  27  28
HETATM   28  C12 UNL     1      36.062  41.750  -1.962  1.00  0.00     0.074 C 
BRANCH  28  29
HETATM   29  C13 UNL     1      36.678  42.778  -1.128  1.00  0.00    -0.056 A 
HETATM   30  C14 UNL     1      36.742  44.094  -1.539  1.00  0.00     0.010 A 
HETATM   31  C15 UNL     1      37.333  45.040  -0.720  1.00  0.00     0.037 A 
HETATM   32  C16 UNL     1      37.874  44.739   0.504  1.00  0.00     0.065 A 
HETATM   33  C17 UNL     1      37.804  43.418   0.903  1.00  0.00     0.037 A 
HETATM   34  C18 UNL     1      37.215  42.448   0.100  1.00  0.00     0.010 A 
BRANCH  32  35
HETATM   35  O3  UNL     1      38.466  45.663   1.338  1.00  0.00    -0.361 OA
ATOM     36  H3  UNL     1      39.404  45.747   1.461  1.00  0.00     0.217 HD
ENDBRANCH  32  35
ENDBRANCH  28  29
ENDBRANCH  27  28
BRANCH  27  37
HETATM   37  C19 UNL     1      37.643  40.714  -3.603  1.00  0.00     0.197 C 
HETATM   38  O4  UNL     1      38.759  40.801  -3.038  1.00  0.00    -0.646 OA
HETATM   39  O5  UNL     1      37.416  39.655  -4.460  1.00  0.00    -0.646 OA
ENDBRANCH  27  37
ENDBRANCH  25  27
ENDBRANCH  22  25
ENDBRANCH   1  22
TORSDOF 14
ENDMDL
