MODEL 3
REMARK VINA RESULT: -8.606178560      0.643      1.058
REMARK  11 active torsions:
REMARK  status: ('A' for Active; 'I' for Inactive)
REMARK    1  A    between atoms: C2_2  and  C3_3 
REMARK    2  A    between atoms: C3_3  and  C4_4 
REMARK    3  A    between atoms: C4_4  and  C5_5 
REMARK    4  A    between atoms: C5_5  and  C6_6 
REMARK    5  A    between atoms: C6_6  and  C7_8 
REMARK       I    between atoms: C7_8  and  N1_10 
REMARK    6  A    between atoms: N1_10  and  C8_12 
REMARK    7  A    between atoms: C8_12  and  C9_13 
REMARK    8  A    between atoms: C8_12  and  C16_20 
REMARK    9  A    between atoms: C9_13  and  C10_14 
REMARK       I    between atoms: C16_20  and  N2_22 
REMARK   10  A    between atoms: N2_22  and  C17_24 
REMARK   11  A    between atoms: C17_24  and  C19_26 
ROOT
HETATM    1  C8  UNL     1      36.306  41.873  -3.223  1.00  0.00     0.181 C 
ENDROOT
BRANCH   1   2
HETATM    2  N1  UNL     1      35.262  41.666  -4.129  1.00  0.00    -0.343 N 
HETATM    3  C7  UNL     1      35.416  41.947  -5.513  1.00  0.00     0.259 C 
HETATM    4  O1  UNL     1      36.461  42.464  -5.977  1.00  0.00    -0.267 OA
ATOM      5  H1  UNL     1      34.371  41.305  -3.789  1.00  0.00     0.163 HD
BRANCH   3   6
HETATM    6  C6  UNL     1      34.325  41.613  -6.498  1.00  0.00     0.076 C 
HETATM    7  S1  UNL     1      33.890  42.719  -7.758  1.00  0.00    -0.079 SA
BRANCH   6   8
HETATM    8  C5  UNL     1      34.460  40.137  -6.831  1.00  0.00     0.056 C 
BRANCH   8   9
HETATM    9  C4  UNL     1      34.315  39.723  -8.248  1.00  0.00     0.006 C 
BRANCH   9  10
HETATM   10  C3  UNL     1      33.004  39.061  -8.607  1.00  0.00     0.000 C 
BRANCH  10  11
HETATM   11  C2  UNL     1      32.223  39.777  -9.666  1.00  0.00    -0.005 C 
HETATM   12  C1  UNL     1      33.009  40.455 -10.724  1.00  0.00     0.005 C 
ENDBRANCH  10  11
ENDBRANCH   9  10
ENDBRANCH   8   9
ENDBRANCH   6   8
ENDBRANCH   3   6
ENDBRANCH   1   2
BRANCH   1  13
HETATM   13  C9  UNL     1      35.683  41.921  -1.811  1.00  0.00     0.073 C 
BRANCH  13  14
HETATM   14  C10 UNL     1      36.548  42.567  -0.826  1.00  0.00    -0.056 A 
HETATM   15  C11 UNL     1      36.896  43.928  -1.093  1.00  0.00     0.007 A 
HETATM   16  C12 UNL     1      37.685  44.630  -0.261  1.00  0.00     0.001 A 
HETATM   17  C13 UNL     1      38.202  44.071   0.910  1.00  0.00     0.000 A 
HETATM   18  C14 UNL     1      37.865  42.775   1.162  1.00  0.00     0.001 A 
HETATM   19  C15 UNL     1      37.040  42.016   0.303  1.00  0.00     0.007 A 
ENDBRANCH  13  14
ENDBRANCH   1  13
BRANCH   1  20
HETATM   20  C16 UNL     1      37.485  41.050  -3.192  1.00  0.00     0.241 C 
HETATM   21  O2  UNL     1      38.643  41.460  -3.225  1.00  0.00    -0.271 OA
HETATM   22  N2  UNL     1      37.390  39.596  -3.123  1.00  0.00    -0.345 N 
ATOM     23  H2  UNL     1      36.456  39.192  -3.048  1.00  0.00     0.163 HD
BRANCH  22  24
HETATM   24  C17 UNL     1      38.487  38.693  -3.151  1.00  0.00     0.181 C 
HETATM   25  C18 UNL     1      38.529  37.585  -2.148  1.00  0.00     0.043 C 
BRANCH  24  26
HETATM   26  C19 UNL     1      38.621  38.136  -4.497  1.00  0.00     0.196 C 
HETATM   27  O3  UNL     1      37.542  38.036  -5.178  1.00  0.00    -0.646 OA
HETATM   28  O4  UNL     1      39.793  37.725  -5.039  1.00  0.00    -0.646 OA
ENDBRANCH  24  26
ENDBRANCH  22  24
ENDBRANCH   1  20
TORSDOF 11
ENDMDL
