MODEL 8
REMARK VINA RESULT: -7.371804785      2.840      6.201
REMARK  11 active torsions:
REMARK  status: ('A' for Active; 'I' for Inactive)
REMARK    1  A    between atoms: C2_2  and  C3_3 
REMARK    2  A    between atoms: C3_3  and  C4_4 
REMARK    3  A    between atoms: C4_4  and  C5_5 
REMARK    4  A    between atoms: C5_5  and  C6_6 
REMARK    5  A    between atoms: C6_6  and  C7_8 
REMARK       I    between atoms: C7_8  and  N1_10 
REMARK    6  A    between atoms: N1_10  and  C8_12 
REMARK    7  A    between atoms: C8_12  and  C9_13 
REMARK    8  A    between atoms: C8_12  and  C16_20 
REMARK    9  A    between atoms: C9_13  and  C10_14 
REMARK       I    between atoms: C16_20  and  N2_22 
REMARK   10  A    between atoms: N2_22  and  C17_24 
REMARK   11  A    between atoms: C17_24  and  C19_26 
ROOT
HETATM    1  C8  UNL     1      36.292  41.580  -3.288  1.00  0.00     0.181 C 
ENDROOT
BRANCH   1   2
HETATM    2  N1  UNL     1      37.143  40.651  -2.684  1.00  0.00    -0.343 N 
HETATM    3  C7  UNL     1      37.659  39.541  -3.404  1.00  0.00     0.259 C 
HETATM    4  O1  UNL     1      37.318  39.296  -4.587  1.00  0.00    -0.267 OA
ATOM      5  H1  UNL     1      37.399  40.772  -1.704  1.00  0.00     0.163 HD
BRANCH   3   6
HETATM    6  C6  UNL     1      38.665  38.609  -2.778  1.00  0.00     0.076 C 
HETATM    7  S1  UNL     1      38.186  37.068  -2.151  1.00  0.00    -0.079 SA
BRANCH   6   8
HETATM    8  C5  UNL     1      39.936  38.703  -3.605  1.00  0.00     0.056 C 
BRANCH   8   9
HETATM    9  C4  UNL     1      41.123  37.940  -3.151  1.00  0.00     0.006 C 
BRANCH   9  10
HETATM   10  C3  UNL     1      42.433  38.311  -3.809  1.00  0.00     0.000 C 
BRANCH  10  11
HETATM   11  C2  UNL     1      43.432  38.936  -2.884  1.00  0.00    -0.005 C 
HETATM   12  C1  UNL     1      44.725  39.343  -3.483  1.00  0.00     0.005 C 
ENDBRANCH  10  11
ENDBRANCH   9  10
ENDBRANCH   8   9
ENDBRANCH   6   8
ENDBRANCH   3   6
ENDBRANCH   1   2
BRANCH   1  13
HETATM   13  C9  UNL     1      36.517  42.934  -2.581  1.00  0.00     0.073 C 
BRANCH  13  14
HETATM   14  C10 UNL     1      36.908  42.790  -1.180  1.00  0.00    -0.056 A 
HETATM   15  C11 UNL     1      38.067  43.522  -0.773  1.00  0.00     0.007 A 
HETATM   16  C12 UNL     1      38.525  43.471   0.490  1.00  0.00     0.001 A 
HETATM   17  C13 UNL     1      37.891  42.706   1.472  1.00  0.00     0.000 A 
HETATM   18  C14 UNL     1      36.785  42.013   1.080  1.00  0.00     0.001 A 
HETATM   19  C15 UNL     1      36.286  42.049  -0.240  1.00  0.00     0.007 A 
ENDBRANCH  13  14
ENDBRANCH   1  13
BRANCH   1  20
HETATM   20  C16 UNL     1      36.252  41.790  -4.710  1.00  0.00     0.241 C 
HETATM   21  O2  UNL     1      36.980  42.555  -5.340  1.00  0.00    -0.271 OA
HETATM   22  N2  UNL     1      35.291  41.084  -5.552  1.00  0.00    -0.345 N 
ATOM     23  H2  UNL     1      34.686  40.401  -5.097  1.00  0.00     0.163 HD
BRANCH  22  24
HETATM   24  C17 UNL     1      35.127  41.266  -6.952  1.00  0.00     0.181 C 
HETATM   25  C18 UNL     1      34.793  40.077  -7.795  1.00  0.00     0.043 C 
BRANCH  24  26
HETATM   26  C19 UNL     1      34.145  42.323  -7.190  1.00  0.00     0.196 C 
HETATM   27  O3  UNL     1      33.224  42.060  -8.040  1.00  0.00    -0.646 OA
HETATM   28  O4  UNL     1      34.165  43.534  -6.582  1.00  0.00    -0.646 OA
ENDBRANCH  24  26
ENDBRANCH  22  24
ENDBRANCH   1  20
TORSDOF 11
ENDMDL
