MODEL 5
REMARK VINA RESULT: -8.537718280      0.634      1.234
REMARK  11 active torsions:
REMARK  status: ('A' for Active; 'I' for Inactive)
REMARK    1  A    between atoms: C2_2  and  C3_3 
REMARK    2  A    between atoms: C3_3  and  C4_4 
REMARK    3  A    between atoms: C4_4  and  C5_5 
REMARK    4  A    between atoms: C5_5  and  C6_6 
REMARK    5  A    between atoms: C6_6  and  C7_8 
REMARK       I    between atoms: C7_8  and  N1_10 
REMARK    6  A    between atoms: N1_10  and  C8_12 
REMARK    7  A    between atoms: C8_12  and  C9_13 
REMARK    8  A    between atoms: C8_12  and  C16_20 
REMARK    9  A    between atoms: C9_13  and  C10_14 
REMARK       I    between atoms: C16_20  and  N2_22 
REMARK   10  A    between atoms: N2_22  and  C17_24 
REMARK   11  A    between atoms: C17_24  and  C19_26 
ROOT
HETATM    1  C8  UNL     1      36.275  41.900  -3.242  1.00  0.00     0.181 C 
ENDROOT
BRANCH   1   2
HETATM    2  N1  UNL     1      35.260  41.643  -4.168  1.00  0.00    -0.343 N 
HETATM    3  C7  UNL     1      35.431  41.923  -5.550  1.00  0.00     0.259 C 
HETATM    4  O1  UNL     1      36.462  42.483  -5.996  1.00  0.00    -0.267 OA
ATOM      5  H1  UNL     1      34.379  41.246  -3.845  1.00  0.00     0.163 HD
BRANCH   3   6
HETATM    6  C6  UNL     1      34.377  41.537  -6.556  1.00  0.00     0.076 C 
HETATM    7  S1  UNL     1      33.795  42.677  -7.722  1.00  0.00    -0.079 SA
BRANCH   6   8
HETATM    8  C5  UNL     1      34.687  40.119  -7.007  1.00  0.00     0.056 C 
BRANCH   8   9
HETATM    9  C4  UNL     1      33.560  39.165  -7.136  1.00  0.00     0.006 C 
BRANCH   9  10
HETATM   10  C3  UNL     1      33.103  38.877  -8.549  1.00  0.00     0.000 C 
BRANCH  10  11
HETATM   11  C2  UNL     1      34.108  39.225  -9.604  1.00  0.00    -0.005 C 
HETATM   12  C1  UNL     1      34.935  38.110 -10.123  1.00  0.00     0.005 C 
ENDBRANCH  10  11
ENDBRANCH   9  10
ENDBRANCH   8   9
ENDBRANCH   6   8
ENDBRANCH   3   6
ENDBRANCH   1   2
BRANCH   1  13
HETATM   13  C9  UNL     1      35.613  41.977  -1.849  1.00  0.00     0.073 C 
BRANCH  13  14
HETATM   14  C10 UNL     1      36.488  42.556  -0.831  1.00  0.00    -0.056 A 
HETATM   15  C11 UNL     1      36.882  43.915  -1.042  1.00  0.00     0.007 A 
HETATM   16  C12 UNL     1      37.685  44.558  -0.175  1.00  0.00     0.001 A 
HETATM   17  C13 UNL     1      38.172  43.937   0.977  1.00  0.00     0.000 A 
HETATM   18  C14 UNL     1      37.791  42.643   1.175  1.00  0.00     0.001 A 
HETATM   19  C15 UNL     1      36.951  41.945   0.279  1.00  0.00     0.007 A 
ENDBRANCH  13  14
ENDBRANCH   1  13
BRANCH   1  20
HETATM   20  C16 UNL     1      37.470  41.105  -3.154  1.00  0.00     0.241 C 
HETATM   21  O2  UNL     1      38.620  41.534  -3.226  1.00  0.00    -0.271 OA
HETATM   22  N2  UNL     1      37.404  39.659  -2.974  1.00  0.00    -0.345 N 
ATOM     23  H2  UNL     1      36.478  39.244  -2.864  1.00  0.00     0.163 HD
BRANCH  22  24
HETATM   24  C17 UNL     1      38.518  38.777  -2.939  1.00  0.00     0.181 C 
HETATM   25  C18 UNL     1      38.555  37.710  -1.893  1.00  0.00     0.043 C 
BRANCH  24  26
HETATM   26  C19 UNL     1      38.698  38.173  -4.259  1.00  0.00     0.196 C 
HETATM   27  O3  UNL     1      39.907  38.031  -4.657  1.00  0.00    -0.646 OA
HETATM   28  O4  UNL     1      37.681  37.776  -5.061  1.00  0.00    -0.646 OA
ENDBRANCH  24  26
ENDBRANCH  22  24
ENDBRANCH   1  20
TORSDOF 11
ENDMDL
