MODEL 1
REMARK VINA RESULT: -8.724866199      0.000      0.000
REMARK  11 active torsions:
REMARK  status: ('A' for Active; 'I' for Inactive)
REMARK    1  A    between atoms: C2_2  and  C3_3 
REMARK    2  A    between atoms: C3_3  and  C4_4 
REMARK    3  A    between atoms: C4_4  and  C5_5 
REMARK    4  A    between atoms: C5_5  and  C6_6 
REMARK    5  A    between atoms: C6_6  and  C7_8 
REMARK       I    between atoms: C7_8  and  N1_10 
REMARK    6  A    between atoms: N1_10  and  C8_12 
REMARK    7  A    between atoms: C8_12  and  C9_13 
REMARK    8  A    between atoms: C8_12  and  C16_20 
REMARK    9  A    between atoms: C9_13  and  C10_14 
REMARK       I    between atoms: C16_20  and  N2_22 
REMARK   10  A    between atoms: N2_22  and  C17_24 
REMARK   11  A    between atoms: C17_24  and  C19_26 
ROOT
HETATM    1  C8  UNL     1      36.287  41.920  -3.240  1.00  0.00     0.181 C 
ENDROOT
BRANCH   1   2
HETATM    2  N1  UNL     1      35.248  41.697  -4.147  1.00  0.00    -0.343 N 
HETATM    3  C7  UNL     1      35.409  41.954  -5.535  1.00  0.00     0.259 C 
HETATM    4  O1  UNL     1      36.456  42.462  -6.003  1.00  0.00    -0.267 OA
ATOM      5  H1  UNL     1      34.355  41.343  -3.805  1.00  0.00     0.163 HD
BRANCH   3   6
HETATM    6  C6  UNL     1      34.323  41.604  -6.520  1.00  0.00     0.076 C 
HETATM    7  S1  UNL     1      33.921  42.670  -7.824  1.00  0.00    -0.079 SA
BRANCH   6   8
HETATM    8  C5  UNL     1      34.435  40.114  -6.797  1.00  0.00     0.056 C 
BRANCH   8   9
HETATM    9  C4  UNL     1      34.439  39.664  -8.210  1.00  0.00     0.006 C 
BRANCH   9  10
HETATM   10  C3  UNL     1      33.278  38.787  -8.623  1.00  0.00     0.000 C 
BRANCH  10  11
HETATM   11  C2  UNL     1      32.622  38.060  -7.489  1.00  0.00    -0.005 C 
HETATM   12  C1  UNL     1      31.377  37.323  -7.808  1.00  0.00     0.005 C 
ENDBRANCH  10  11
ENDBRANCH   9  10
ENDBRANCH   8   9
ENDBRANCH   6   8
ENDBRANCH   3   6
ENDBRANCH   1   2
BRANCH   1  13
HETATM   13  C9  UNL     1      35.659  41.979  -1.831  1.00  0.00     0.073 C 
BRANCH  13  14
HETATM   14  C10 UNL     1      36.521  42.632  -0.847  1.00  0.00    -0.056 A 
HETATM   15  C11 UNL     1      36.855  43.997  -1.113  1.00  0.00     0.007 A 
HETATM   16  C12 UNL     1      37.639  44.705  -0.282  1.00  0.00     0.001 A 
HETATM   17  C13 UNL     1      38.166  44.149   0.886  1.00  0.00     0.000 A 
HETATM   18  C14 UNL     1      37.843  42.849   1.137  1.00  0.00     0.001 A 
HETATM   19  C15 UNL     1      37.022  42.084   0.279  1.00  0.00     0.007 A 
ENDBRANCH  13  14
ENDBRANCH   1  13
BRANCH   1  20
HETATM   20  C16 UNL     1      37.471  41.104  -3.195  1.00  0.00     0.241 C 
HETATM   21  O2  UNL     1      38.627  41.519  -3.255  1.00  0.00    -0.271 OA
HETATM   22  N2  UNL     1      37.384  39.652  -3.080  1.00  0.00    -0.345 N 
ATOM     23  H2  UNL     1      36.453  39.247  -2.982  1.00  0.00     0.163 HD
BRANCH  22  24
HETATM   24  C17 UNL     1      38.486  38.754  -3.091  1.00  0.00     0.181 C 
HETATM   25  C18 UNL     1      38.532  37.664  -2.069  1.00  0.00     0.043 C 
BRANCH  24  26
HETATM   26  C19 UNL     1      38.624  38.176  -4.427  1.00  0.00     0.196 C 
HETATM   27  O3  UNL     1      37.547  38.064  -5.111  1.00  0.00    -0.646 OA
HETATM   28  O4  UNL     1      39.798  37.756  -4.959  1.00  0.00    -0.646 OA
ENDBRANCH  24  26
ENDBRANCH  22  24
ENDBRANCH   1  20
TORSDOF 11
ENDMDL
