MODEL 6
REMARK VINA RESULT: -7.792649634      1.310      1.720
REMARK  11 active torsions:
REMARK  status: ('A' for Active; 'I' for Inactive)
REMARK    1  A    between atoms: C2_2  and  C3_3 
REMARK    2  A    between atoms: C3_3  and  C4_4 
REMARK    3  A    between atoms: C4_4  and  C5_5 
REMARK    4  A    between atoms: C5_5  and  C6_6 
REMARK    5  A    between atoms: C6_6  and  C7_8 
REMARK       I    between atoms: C7_8  and  N1_10 
REMARK    6  A    between atoms: N1_10  and  C8_12 
REMARK    7  A    between atoms: C8_12  and  C9_13 
REMARK    8  A    between atoms: C8_12  and  C16_20 
REMARK    9  A    between atoms: C9_13  and  C10_14 
REMARK       I    between atoms: C16_20  and  N2_22 
REMARK   10  A    between atoms: N2_22  and  C17_24 
REMARK   11  A    between atoms: C17_24  and  C19_26 
ROOT
HETATM    1  C8  UNL     1      36.380  41.818  -3.269  1.00  0.00     0.181 C 
ENDROOT
BRANCH   1   2
HETATM    2  N1  UNL     1      35.310  41.633  -4.149  1.00  0.00    -0.343 N 
HETATM    3  C7  UNL     1      35.426  41.939  -5.531  1.00  0.00     0.259 C 
HETATM    4  O1  UNL     1      36.460  42.461  -6.014  1.00  0.00    -0.267 OA
ATOM      5  H1  UNL     1      34.427  41.269  -3.790  1.00  0.00     0.163 HD
BRANCH   3   6
HETATM    6  C6  UNL     1      34.307  41.629  -6.491  1.00  0.00     0.076 C 
HETATM    7  S1  UNL     1      33.876  42.737  -7.749  1.00  0.00    -0.079 SA
BRANCH   6   8
HETATM    8  C5  UNL     1      34.393  40.147  -6.815  1.00  0.00     0.056 C 
BRANCH   8   9
HETATM    9  C4  UNL     1      34.672  39.753  -8.217  1.00  0.00     0.006 C 
BRANCH   9  10
HETATM   10  C3  UNL     1      33.479  39.282  -9.016  1.00  0.00     0.000 C 
BRANCH  10  11
HETATM   11  C2  UNL     1      33.554  39.598 -10.479  1.00  0.00    -0.005 C 
HETATM   12  C1  UNL     1      32.857  40.826 -10.928  1.00  0.00     0.005 C 
ENDBRANCH  10  11
ENDBRANCH   9  10
ENDBRANCH   8   9
ENDBRANCH   6   8
ENDBRANCH   3   6
ENDBRANCH   1   2
BRANCH   1  13
HETATM   13  C9  UNL     1      35.786  41.976  -1.853  1.00  0.00     0.073 C 
BRANCH  13  14
HETATM   14  C10 UNL     1      36.598  42.824  -0.982  1.00  0.00    -0.056 A 
HETATM   15  C11 UNL     1      36.709  44.196  -1.368  1.00  0.00     0.007 A 
HETATM   16  C12 UNL     1      37.429  45.075  -0.648  1.00  0.00     0.001 A 
HETATM   17  C13 UNL     1      38.101  44.696   0.516  1.00  0.00     0.000 A 
HETATM   18  C14 UNL     1      37.990  43.388   0.881  1.00  0.00     0.001 A 
HETATM   19  C15 UNL     1      37.242  42.446   0.141  1.00  0.00     0.007 A 
ENDBRANCH  13  14
ENDBRANCH   1  13
BRANCH   1  20
HETATM   20  C16 UNL     1      37.506  40.925  -3.212  1.00  0.00     0.241 C 
HETATM   21  O2  UNL     1      38.679  41.262  -3.064  1.00  0.00    -0.271 OA
HETATM   22  N2  UNL     1      37.332  39.482  -3.340  1.00  0.00    -0.345 N 
ATOM     23  H2  UNL     1      36.378  39.132  -3.421  1.00  0.00     0.163 HD
BRANCH  22  24
HETATM   24  C17 UNL     1      38.380  38.521  -3.361  1.00  0.00     0.181 C 
HETATM   25  C18 UNL     1      39.740  38.954  -3.804  1.00  0.00     0.043 C 
BRANCH  24  26
HETATM   26  C19 UNL     1      38.476  37.881  -2.050  1.00  0.00     0.196 C 
HETATM   27  O3  UNL     1      37.436  37.954  -1.306  1.00  0.00    -0.646 OA
HETATM   28  O4  UNL     1      39.579  37.242  -1.592  1.00  0.00    -0.646 OA
ENDBRANCH  24  26
ENDBRANCH  22  24
ENDBRANCH   1  20
TORSDOF 11
ENDMDL
