MODEL 7
REMARK VINA RESULT: -7.502100689      3.037      6.544
REMARK  11 active torsions:
REMARK  status: ('A' for Active; 'I' for Inactive)
REMARK    1  A    between atoms: C2_2  and  C3_3 
REMARK    2  A    between atoms: C3_3  and  C4_4 
REMARK    3  A    between atoms: C4_4  and  C5_5 
REMARK    4  A    between atoms: C5_5  and  C6_6 
REMARK    5  A    between atoms: C6_6  and  C7_8 
REMARK       I    between atoms: C7_8  and  N1_10 
REMARK    6  A    between atoms: N1_10  and  C8_12 
REMARK    7  A    between atoms: C8_12  and  C9_13 
REMARK    8  A    between atoms: C8_12  and  C16_20 
REMARK    9  A    between atoms: C9_13  and  C10_14 
REMARK       I    between atoms: C16_20  and  N2_22 
REMARK   10  A    between atoms: N2_22  and  C17_24 
REMARK   11  A    between atoms: C17_24  and  C19_26 
ROOT
HETATM    1  C8  UNL     1      34.712  40.846  -7.082  1.00  0.00     0.181 C 
ENDROOT
BRANCH   1   2
HETATM    2  N1  UNL     1      34.829  39.456  -7.003  1.00  0.00    -0.343 N 
HETATM    3  C7  UNL     1      35.357  38.695  -8.080  1.00  0.00     0.259 C 
HETATM    4  O1  UNL     1      35.669  39.218  -9.177  1.00  0.00    -0.267 OA
ATOM      5  H1  UNL     1      34.529  38.978  -6.154  1.00  0.00     0.163 HD
BRANCH   3   6
HETATM    6  C6  UNL     1      35.585  37.211  -7.943  1.00  0.00     0.076 C 
HETATM    7  S1  UNL     1      37.026  36.593  -7.209  1.00  0.00    -0.079 SA
BRANCH   6   8
HETATM    8  C5  UNL     1      34.249  36.585  -7.580  1.00  0.00     0.056 C 
BRANCH   8   9
HETATM    9  C4  UNL     1      33.099  36.818  -8.485  1.00  0.00     0.006 C 
BRANCH   9  10
HETATM   10  C3  UNL     1      31.873  37.428  -7.844  1.00  0.00     0.000 C 
BRANCH  10  11
HETATM   11  C2  UNL     1      30.906  38.030  -8.817  1.00  0.00    -0.005 C 
HETATM   12  C1  UNL     1      29.623  37.311  -9.007  1.00  0.00     0.005 C 
ENDBRANCH  10  11
ENDBRANCH   9  10
ENDBRANCH   8   9
ENDBRANCH   6   8
ENDBRANCH   3   6
ENDBRANCH   1   2
BRANCH   1  13
HETATM   13  C9  UNL     1      33.275  41.158  -7.555  1.00  0.00     0.073 C 
BRANCH  13  14
HETATM   14  C10 UNL     1      33.225  41.699  -8.912  1.00  0.00    -0.056 A 
HETATM   15  C11 UNL     1      33.441  43.107  -9.036  1.00  0.00     0.007 A 
HETATM   16  C12 UNL     1      33.420  43.720 -10.232  1.00  0.00     0.001 A 
HETATM   17  C13 UNL     1      33.189  43.016 -11.416  1.00  0.00     0.000 A 
HETATM   18  C14 UNL     1      32.987  41.674 -11.293  1.00  0.00     0.001 A 
HETATM   19  C15 UNL     1      33.003  41.007 -10.049  1.00  0.00     0.007 A 
ENDBRANCH  13  14
ENDBRANCH   1  13
BRANCH   1  20
HETATM   20  C16 UNL     1      35.050  41.720  -5.991  1.00  0.00     0.241 C 
HETATM   21  O2  UNL     1      34.886  42.938  -5.974  1.00  0.00    -0.271 OA
HETATM   22  N2  UNL     1      35.651  41.202  -4.767  1.00  0.00    -0.345 N 
ATOM     23  H2  UNL     1      35.775  40.192  -4.699  1.00  0.00     0.163 HD
BRANCH  22  24
HETATM   24  C17 UNL     1      36.080  41.984  -3.660  1.00  0.00     0.181 C 
HETATM   25  C18 UNL     1      35.649  41.580  -2.287  1.00  0.00     0.043 C 
BRANCH  24  26
HETATM   26  C19 UNL     1      37.536  42.115  -3.695  1.00  0.00     0.196 C 
HETATM   27  O3  UNL     1      38.011  42.939  -4.552  1.00  0.00    -0.646 OA
HETATM   28  O4  UNL     1      38.384  41.421  -2.897  1.00  0.00    -0.646 OA
ENDBRANCH  24  26
ENDBRANCH  22  24
ENDBRANCH   1  20
TORSDOF 11
ENDMDL
