MODEL 2
REMARK VINA RESULT: -8.675827003      0.430      1.106
REMARK  11 active torsions:
REMARK  status: ('A' for Active; 'I' for Inactive)
REMARK    1  A    between atoms: C2_2  and  C3_3 
REMARK    2  A    between atoms: C3_3  and  C4_4 
REMARK    3  A    between atoms: C4_4  and  C5_5 
REMARK    4  A    between atoms: C5_5  and  C6_6 
REMARK    5  A    between atoms: C6_6  and  C7_8 
REMARK       I    between atoms: C7_8  and  N1_10 
REMARK    6  A    between atoms: N1_10  and  C8_12 
REMARK    7  A    between atoms: C8_12  and  C9_13 
REMARK    8  A    between atoms: C8_12  and  C16_20 
REMARK    9  A    between atoms: C9_13  and  C10_14 
REMARK       I    between atoms: C16_20  and  N2_22 
REMARK   10  A    between atoms: N2_22  and  C17_24 
REMARK   11  A    between atoms: C17_24  and  C19_26 
ROOT
HETATM    1  C8  UNL     1      36.319  41.826  -3.358  1.00  0.00     0.181 C 
ENDROOT
BRANCH   1   2
HETATM    2  N1  UNL     1      35.274  41.554  -4.246  1.00  0.00    -0.343 N 
HETATM    3  C7  UNL     1      35.389  41.838  -5.633  1.00  0.00     0.259 C 
HETATM    4  O1  UNL     1      36.394  42.414  -6.115  1.00  0.00    -0.267 OA
ATOM      5  H1  UNL     1      34.412  41.144  -3.890  1.00  0.00     0.163 HD
BRANCH   3   6
HETATM    6  C6  UNL     1      34.304  41.437  -6.599  1.00  0.00     0.076 C 
HETATM    7  S1  UNL     1      33.854  42.468  -7.915  1.00  0.00    -0.079 SA
BRANCH   6   8
HETATM    8  C5  UNL     1      34.460  39.947  -6.853  1.00  0.00     0.056 C 
BRANCH   8   9
HETATM    9  C4  UNL     1      33.411  39.259  -7.643  1.00  0.00     0.006 C 
BRANCH   9  10
HETATM   10  C3  UNL     1      32.765  38.065  -6.978  1.00  0.00     0.000 C 
BRANCH  10  11
HETATM   11  C2  UNL     1      31.654  37.446  -7.769  1.00  0.00    -0.005 C 
HETATM   12  C1  UNL     1      31.138  38.234  -8.914  1.00  0.00     0.005 C 
ENDBRANCH  10  11
ENDBRANCH   9  10
ENDBRANCH   8   9
ENDBRANCH   6   8
ENDBRANCH   3   6
ENDBRANCH   1   2
BRANCH   1  13
HETATM   13  C9  UNL     1      35.705  41.923  -1.944  1.00  0.00     0.073 C 
BRANCH  13  14
HETATM   14  C10 UNL     1      36.522  42.703  -1.017  1.00  0.00    -0.056 A 
HETATM   15  C11 UNL     1      36.968  42.018   0.156  1.00  0.00     0.007 A 
HETATM   16  C12 UNL     1      37.727  42.630   1.083  1.00  0.00     0.001 A 
HETATM   17  C13 UNL     1      38.123  43.962   0.948  1.00  0.00     0.000 A 
HETATM   18  C14 UNL     1      37.698  44.610  -0.174  1.00  0.00     0.001 A 
HETATM   19  C15 UNL     1      36.900  43.990  -1.160  1.00  0.00     0.007 A 
ENDBRANCH  13  14
ENDBRANCH   1  13
BRANCH   1  20
HETATM   20  C16 UNL     1      37.518  41.034  -3.298  1.00  0.00     0.241 C 
HETATM   21  O2  UNL     1      38.660  41.473  -3.181  1.00  0.00    -0.271 OA
HETATM   22  N2  UNL     1      37.466  39.578  -3.387  1.00  0.00    -0.345 N 
ATOM     23  H2  UNL     1      36.544  39.147  -3.442  1.00  0.00     0.163 HD
BRANCH  22  24
HETATM   24  C17 UNL     1      38.591  38.710  -3.403  1.00  0.00     0.181 C 
HETATM   25  C18 UNL     1      38.743  37.714  -2.298  1.00  0.00     0.043 C 
BRANCH  24  26
HETATM   26  C19 UNL     1      38.653  38.021  -4.691  1.00  0.00     0.196 C 
HETATM   27  O3  UNL     1      37.529  37.733  -5.234  1.00  0.00    -0.646 OA
HETATM   28  O4  UNL     1      39.804  37.675  -5.317  1.00  0.00    -0.646 OA
ENDBRANCH  24  26
ENDBRANCH  22  24
ENDBRANCH   1  20
TORSDOF 11
ENDMDL
