MODEL 9
REMARK VINA RESULT: -7.259697824      3.379      6.966
REMARK  11 active torsions:
REMARK  status: ('A' for Active; 'I' for Inactive)
REMARK    1  A    between atoms: C2_2  and  C3_3 
REMARK    2  A    between atoms: C3_3  and  C4_4 
REMARK    3  A    between atoms: C4_4  and  C5_5 
REMARK    4  A    between atoms: C5_5  and  C6_6 
REMARK    5  A    between atoms: C6_6  and  C7_8 
REMARK       I    between atoms: C7_8  and  N1_10 
REMARK    6  A    between atoms: N1_10  and  C8_12 
REMARK    7  A    between atoms: C8_12  and  C9_13 
REMARK    8  A    between atoms: C8_12  and  C16_20 
REMARK    9  A    between atoms: C9_13  and  C10_14 
REMARK       I    between atoms: C16_20  and  N2_22 
REMARK   10  A    between atoms: N2_22  and  C17_24 
REMARK   11  A    between atoms: C17_24  and  C19_26 
ROOT
HETATM    1  C8  UNL     1      34.588  40.801  -6.745  1.00  0.00     0.181 C 
ENDROOT
BRANCH   1   2
HETATM    2  N1  UNL     1      34.440  41.139  -8.093  1.00  0.00    -0.343 N 
HETATM    3  C7  UNL     1      33.582  42.195  -8.501  1.00  0.00     0.259 C 
HETATM    4  O1  UNL     1      32.860  42.821  -7.688  1.00  0.00    -0.267 OA
ATOM      5  H1  UNL     1      34.958  40.616  -8.798  1.00  0.00     0.163 HD
BRANCH   3   6
HETATM    6  C6  UNL     1      33.515  42.627  -9.943  1.00  0.00     0.076 C 
HETATM    7  S1  UNL     1      32.963  41.543 -11.176  1.00  0.00    -0.079 SA
BRANCH   6   8
HETATM    8  C5  UNL     1      33.025  44.065  -9.957  1.00  0.00     0.056 C 
BRANCH   8   9
HETATM    9  C4  UNL     1      32.435  44.590 -11.212  1.00  0.00     0.006 C 
BRANCH   9  10
HETATM   10  C3  UNL     1      33.404  45.249 -12.167  1.00  0.00     0.000 C 
BRANCH  10  11
HETATM   11  C2  UNL     1      33.013  45.146 -13.609  1.00  0.00    -0.005 C 
HETATM   12  C1  UNL     1      32.459  43.845 -14.053  1.00  0.00     0.005 C 
ENDBRANCH  10  11
ENDBRANCH   9  10
ENDBRANCH   8   9
ENDBRANCH   6   8
ENDBRANCH   3   6
ENDBRANCH   1   2
BRANCH   1  13
HETATM   13  C9  UNL     1      35.012  39.318  -6.689  1.00  0.00     0.073 C 
BRANCH  13  14
HETATM   14  C10 UNL     1      34.107  38.436  -7.424  1.00  0.00    -0.056 A 
HETATM   15  C11 UNL     1      32.812  38.245  -6.849  1.00  0.00     0.007 A 
HETATM   16  C12 UNL     1      31.891  37.457  -7.432  1.00  0.00     0.001 A 
HETATM   17  C13 UNL     1      32.147  36.789  -8.631  1.00  0.00     0.000 A 
HETATM   18  C14 UNL     1      33.382  36.977  -9.178  1.00  0.00     0.001 A 
HETATM   19  C15 UNL     1      34.366  37.798  -8.584  1.00  0.00     0.007 A 
ENDBRANCH  13  14
ENDBRANCH   1  13
BRANCH   1  20
HETATM   20  C16 UNL     1      35.405  41.560  -5.836  1.00  0.00     0.241 C 
HETATM   21  O2  UNL     1      36.206  42.437  -6.157  1.00  0.00    -0.271 OA
HETATM   22  N2  UNL     1      35.350  41.329  -4.397  1.00  0.00    -0.345 N 
ATOM     23  H2  UNL     1      34.673  40.644  -4.060  1.00  0.00     0.163 HD
BRANCH  22  24
HETATM   24  C17 UNL     1      36.158  41.976  -3.423  1.00  0.00     0.181 C 
HETATM   25  C18 UNL     1      35.597  42.187  -2.053  1.00  0.00     0.043 C 
BRANCH  24  26
HETATM   26  C19 UNL     1      37.442  41.285  -3.323  1.00  0.00     0.196 C 
HETATM   27  O3  UNL     1      37.451  40.202  -2.639  1.00  0.00    -0.646 OA
HETATM   28  O4  UNL     1      38.591  41.723  -3.892  1.00  0.00    -0.646 OA
ENDBRANCH  24  26
ENDBRANCH  22  24
ENDBRANCH   1  20
TORSDOF 11
ENDMDL
