MODEL 12
REMARK VINA RESULT: -7.526442021      5.496      7.735
REMARK  7 active torsions:
REMARK  status: ('A' for Active; 'I' for Inactive)
REMARK       I    between atoms: C1_2  and  N1_3 
REMARK    1  A    between atoms: C1_2  and  C15_22 
REMARK    2  A    between atoms: N1_3  and  C2_5 
REMARK    3  A    between atoms: C2_5  and  C3_6 
REMARK       I    between atoms: C3_6  and  N2_8 
REMARK    4  A    between atoms: C4_9  and  C5_10 
REMARK    5  A    between atoms: C8_15  and  C9_16 
REMARK    6  A    between atoms: C15_22  and  C16_24 
REMARK    7  A    between atoms: C16_24  and  C17_25 
ROOT
HETATM    1  C3  UNL     1      38.301  38.099  -4.998  1.00  0.00     0.238 C 
HETATM    2  O2  UNL     1      37.398  38.221  -5.861  1.00  0.00    -0.271 OA
HETATM    3  N2  UNL     1      39.463  37.351  -5.274  1.00  0.00    -0.327 N 
HETATM    4  C4  UNL     1      39.746  36.690  -6.530  1.00  0.00     0.189 C 
HETATM    5  C6  UNL     1      41.221  36.292  -6.462  1.00  0.00     0.039 C 
HETATM    6  C7  UNL     1      41.716  37.236  -5.393  1.00  0.00     0.033 C 
HETATM    7  C8  UNL     1      40.599  37.099  -4.374  1.00  0.00     0.121 C 
ENDROOT
BRANCH   1   8
HETATM    8  C2  UNL     1      38.073  38.779  -3.702  1.00  0.00     0.225 C 
BRANCH   8   9
HETATM    9  N1  UNL     1      37.235  39.930  -3.754  1.00  0.00    -0.351 N 
HETATM   10  C1  UNL     1      37.679  41.287  -3.654  1.00  0.00     0.233 C 
HETATM   11  O1  UNL     1      38.911  41.445  -3.499  1.00  0.00    -0.272 OA
ATOM     12  H1  UNL     1      36.234  39.774  -3.873  1.00  0.00     0.163 HD
BRANCH  10  13
HETATM   13  C15 UNL     1      36.785  42.455  -3.727  1.00  0.00     0.154 C 
HETATM   14  S1  UNL     1      35.607  42.279  -5.133  1.00  0.00    -0.082 SA
BRANCH  13  15
HETATM   15  C16 UNL     1      35.946  42.667  -2.528  1.00  0.00     0.064 C 
BRANCH  15  16
HETATM   16  C17 UNL     1      36.608  42.783  -1.241  1.00  0.00    -0.057 A 
HETATM   17  C18 UNL     1      37.492  43.828  -0.966  1.00  0.00     0.007 A 
HETATM   18  C19 UNL     1      38.091  43.908   0.267  1.00  0.00     0.001 A 
HETATM   19  C20 UNL     1      37.811  42.952   1.219  1.00  0.00     0.000 A 
HETATM   20  C21 UNL     1      36.941  41.906   0.975  1.00  0.00     0.001 A 
HETATM   21  C22 UNL     1      36.344  41.836  -0.271  1.00  0.00     0.007 A 
ENDBRANCH  15  16
ENDBRANCH  13  15
ENDBRANCH  10  13
ENDBRANCH   8   9
ENDBRANCH   1   8
BRANCH   4  22
HETATM   22  C5  UNL     1      38.851  35.584  -6.845  1.00  0.00     0.197 C 
HETATM   23  O3  UNL     1      39.025  34.456  -6.336  1.00  0.00    -0.646 OA
HETATM   24  O4  UNL     1      37.793  35.766  -7.713  1.00  0.00    -0.646 OA
ENDBRANCH   4  22
BRANCH   7  25
HETATM   25  C9  UNL     1      40.576  35.777  -3.750  1.00  0.00    -0.035 A 
HETATM   26  C10 UNL     1      39.462  35.272  -3.142  1.00  0.00     0.009 A 
HETATM   27  C11 UNL     1      39.423  34.010  -2.535  1.00  0.00     0.001 A 
HETATM   28  C12 UNL     1      40.533  33.228  -2.537  1.00  0.00     0.000 A 
HETATM   29  C13 UNL     1      41.680  33.694  -3.138  1.00  0.00     0.001 A 
HETATM   30  C14 UNL     1      41.698  34.939  -3.730  1.00  0.00     0.009 A 
ENDBRANCH   7  25
TORSDOF 7
ENDMDL
