MODEL 4
REMARK VINA RESULT: -7.968900481      1.846      2.555
REMARK  7 active torsions:
REMARK  status: ('A' for Active; 'I' for Inactive)
REMARK       I    between atoms: C1_2  and  N1_3 
REMARK    1  A    between atoms: C1_2  and  C15_22 
REMARK    2  A    between atoms: N1_3  and  C2_5 
REMARK    3  A    between atoms: C2_5  and  C3_6 
REMARK       I    between atoms: C3_6  and  N2_8 
REMARK    4  A    between atoms: C4_9  and  C5_10 
REMARK    5  A    between atoms: C8_15  and  C9_16 
REMARK    6  A    between atoms: C15_22  and  C16_24 
REMARK    7  A    between atoms: C16_24  and  C17_25 
ROOT
HETATM    1  C3  UNL     1      33.376  39.020  -7.206  1.00  0.00     0.238 C 
HETATM    2  O2  UNL     1      33.192  38.233  -6.246  1.00  0.00    -0.271 OA
HETATM    3  N2  UNL     1      32.531  38.989  -8.334  1.00  0.00    -0.327 N 
HETATM    4  C4  UNL     1      31.395  38.105  -8.495  1.00  0.00     0.189 C 
HETATM    5  C6  UNL     1      30.622  38.647  -9.698  1.00  0.00     0.039 C 
HETATM    6  C7  UNL     1      31.134  40.067  -9.744  1.00  0.00     0.033 C 
HETATM    7  C8  UNL     1      32.619  39.824  -9.541  1.00  0.00     0.121 C 
ENDROOT
BRANCH   1   8
HETATM    8  C2  UNL     1      34.511  39.964  -7.080  1.00  0.00     0.225 C 
BRANCH   8   9
HETATM    9  N1  UNL     1      35.015  40.140  -5.759  1.00  0.00    -0.351 N 
HETATM   10  C1  UNL     1      35.861  41.212  -5.330  1.00  0.00     0.233 C 
HETATM   11  O1  UNL     1      36.174  42.044  -6.210  1.00  0.00    -0.272 OA
ATOM     12  H1  UNL     1      34.751  39.445  -5.061  1.00  0.00     0.163 HD
BRANCH  10  13
HETATM   13  C15 UNL     1      36.352  41.372  -3.950  1.00  0.00     0.154 C 
HETATM   14  S1  UNL     1      38.144  40.954  -3.852  1.00  0.00    -0.082 SA
BRANCH  13  15
HETATM   15  C16 UNL     1      36.232  42.742  -3.406  1.00  0.00     0.064 C 
BRANCH  15  16
HETATM   16  C17 UNL     1      36.622  42.966  -2.026  1.00  0.00    -0.057 A 
HETATM   17  C18 UNL     1      36.299  42.054  -1.019  1.00  0.00     0.007 A 
HETATM   18  C19 UNL     1      36.695  42.297   0.274  1.00  0.00     0.001 A 
HETATM   19  C20 UNL     1      37.406  43.441   0.560  1.00  0.00     0.000 A 
HETATM   20  C21 UNL     1      37.740  44.361  -0.416  1.00  0.00     0.001 A 
HETATM   21  C22 UNL     1      37.335  44.106  -1.714  1.00  0.00     0.007 A 
ENDBRANCH  15  16
ENDBRANCH  13  15
ENDBRANCH  10  13
ENDBRANCH   8   9
ENDBRANCH   1   8
BRANCH   4  22
HETATM   22  C5  UNL     1      31.738  36.694  -8.602  1.00  0.00     0.197 C 
HETATM   23  O3  UNL     1      32.090  36.203  -9.696  1.00  0.00    -0.646 OA
HETATM   24  O4  UNL     1      31.681  35.874  -7.492  1.00  0.00    -0.646 OA
ENDBRANCH   4  22
BRANCH   7  25
HETATM   25  C9  UNL     1      33.232  39.149 -10.683  1.00  0.00    -0.035 A 
HETATM   26  C10 UNL     1      32.743  39.263 -11.953  1.00  0.00     0.009 A 
HETATM   27  C11 UNL     1      33.315  38.619 -13.057  1.00  0.00     0.001 A 
HETATM   28  C12 UNL     1      34.410  37.835 -12.886  1.00  0.00     0.000 A 
HETATM   29  C13 UNL     1      34.939  37.689 -11.624  1.00  0.00     0.001 A 
HETATM   30  C14 UNL     1      34.362  38.332 -10.550  1.00  0.00     0.009 A 
ENDBRANCH   7  25
TORSDOF 7
ENDMDL
