MODEL 1
REMARK VINA RESULT: -8.707157703      0.000      0.000
REMARK  7 active torsions:
REMARK  status: ('A' for Active; 'I' for Inactive)
REMARK       I    between atoms: C1_2  and  N1_3 
REMARK    1  A    between atoms: C1_2  and  C15_22 
REMARK    2  A    between atoms: N1_3  and  C2_5 
REMARK    3  A    between atoms: C2_5  and  C3_6 
REMARK       I    between atoms: C3_6  and  N2_8 
REMARK    4  A    between atoms: C4_9  and  C5_10 
REMARK    5  A    between atoms: C8_15  and  C9_16 
REMARK    6  A    between atoms: C15_22  and  C16_24 
REMARK    7  A    between atoms: C16_24  and  C17_25 
ROOT
HETATM    1  C3  UNL     1      34.809  39.739  -7.668  1.00  0.00     0.238 C 
HETATM    2  O2  UNL     1      35.931  39.181  -7.593  1.00  0.00    -0.271 OA
HETATM    3  N2  UNL     1      33.798  39.213  -8.496  1.00  0.00    -0.327 N 
HETATM    4  C4  UNL     1      33.922  38.013  -9.297  1.00  0.00     0.189 C 
HETATM    5  C6  UNL     1      32.502  37.678  -9.756  1.00  0.00     0.039 C 
HETATM    6  C7  UNL     1      31.690  38.433  -8.732  1.00  0.00     0.033 C 
HETATM    7  C8  UNL     1      32.445  39.750  -8.708  1.00  0.00     0.121 C 
ENDROOT
BRANCH   1   8
HETATM    8  C2  UNL     1      34.622  40.958  -6.847  1.00  0.00     0.225 C 
BRANCH   8   9
HETATM    9  N1  UNL     1      35.082  40.866  -5.502  1.00  0.00    -0.351 N 
HETATM   10  C1  UNL     1      36.097  41.685  -4.914  1.00  0.00     0.233 C 
HETATM   11  O1  UNL     1      36.613  42.538  -5.670  1.00  0.00    -0.272 OA
ATOM     12  H1  UNL     1      34.651  40.157  -4.908  1.00  0.00     0.163 HD
BRANCH  10  13
HETATM   13  C15 UNL     1      36.539  41.573  -3.513  1.00  0.00     0.154 C 
HETATM   14  S1  UNL     1      38.213  40.808  -3.424  1.00  0.00    -0.082 SA
BRANCH  13  15
HETATM   15  C16 UNL     1      36.650  42.860  -2.794  1.00  0.00     0.064 C 
BRANCH  15  16
HETATM   16  C17 UNL     1      36.971  42.828  -1.379  1.00  0.00    -0.057 A 
HETATM   17  C18 UNL     1      36.374  41.907  -0.516  1.00  0.00     0.007 A 
HETATM   18  C19 UNL     1      36.713  41.902   0.816  1.00  0.00     0.001 A 
HETATM   19  C20 UNL     1      37.638  42.809   1.282  1.00  0.00     0.000 A 
HETATM   20  C21 UNL     1      38.245  43.732   0.451  1.00  0.00     0.001 A 
HETATM   21  C22 UNL     1      37.896  43.728  -0.887  1.00  0.00     0.007 A 
ENDBRANCH  15  16
ENDBRANCH  13  15
ENDBRANCH  10  13
ENDBRANCH   8   9
ENDBRANCH   1   8
BRANCH   4  22
HETATM   22  C5  UNL     1      34.886  38.110 -10.385  1.00  0.00     0.197 C 
HETATM   23  O3  UNL     1      34.524  38.456 -11.530  1.00  0.00    -0.646 OA
HETATM   24  O4  UNL     1      36.218  37.822 -10.167  1.00  0.00    -0.646 OA
ENDBRANCH   4  22
BRANCH   7  25
HETATM   25  C9  UNL     1      32.296  40.498  -9.956  1.00  0.00    -0.035 A 
HETATM   26  C10 UNL     1      33.196  41.444 -10.356  1.00  0.00     0.009 A 
HETATM   27  C11 UNL     1      33.067  42.173 -11.545  1.00  0.00     0.001 A 
HETATM   28  C12 UNL     1      32.004  41.949 -12.359  1.00  0.00     0.000 A 
HETATM   29  C13 UNL     1      31.070  41.005 -11.997  1.00  0.00     0.001 A 
HETATM   30  C14 UNL     1      31.215  40.297 -10.824  1.00  0.00     0.009 A 
ENDBRANCH   7  25
TORSDOF 7
ENDMDL
