MODEL 3
REMARK VINA RESULT: -8.031381680      5.946      8.522
REMARK  7 active torsions:
REMARK  status: ('A' for Active; 'I' for Inactive)
REMARK       I    between atoms: C1_2  and  N1_3 
REMARK    1  A    between atoms: C1_2  and  C15_22 
REMARK    2  A    between atoms: N1_3  and  C2_5 
REMARK    3  A    between atoms: C2_5  and  C3_6 
REMARK       I    between atoms: C3_6  and  N2_8 
REMARK    4  A    between atoms: C4_9  and  C5_10 
REMARK    5  A    between atoms: C8_15  and  C9_16 
REMARK    6  A    between atoms: C15_22  and  C16_24 
REMARK    7  A    between atoms: C16_24  and  C17_25 
ROOT
HETATM    1  C3  UNL     1      38.553  38.199  -4.006  1.00  0.00     0.238 C 
HETATM    2  O2  UNL     1      37.803  37.865  -4.955  1.00  0.00    -0.271 OA
HETATM    3  N2  UNL     1      39.933  37.918  -4.048  1.00  0.00    -0.327 N 
HETATM    4  C4  UNL     1      40.614  37.265  -5.146  1.00  0.00     0.189 C 
HETATM    5  C6  UNL     1      42.107  37.466  -4.881  1.00  0.00     0.039 C 
HETATM    6  C7  UNL     1      42.068  38.649  -3.944  1.00  0.00     0.033 C 
HETATM    7  C8  UNL     1      40.940  38.225  -3.021  1.00  0.00     0.121 C 
ENDROOT
BRANCH   1   8
HETATM    8  C2  UNL     1      37.909  38.894  -2.867  1.00  0.00     0.225 C 
BRANCH   8   9
HETATM    9  N1  UNL     1      37.202  40.086  -3.199  1.00  0.00    -0.351 N 
HETATM   10  C1  UNL     1      37.777  41.392  -3.301  1.00  0.00     0.233 C 
HETATM   11  O1  UNL     1      39.004  41.466  -3.066  1.00  0.00    -0.272 OA
ATOM     12  H1  UNL     1      36.201  40.000  -3.378  1.00  0.00     0.163 HD
BRANCH  10  13
HETATM   13  C15 UNL     1      37.017  42.601  -3.661  1.00  0.00     0.154 C 
HETATM   14  S1  UNL     1      35.786  42.221  -4.978  1.00  0.00    -0.082 SA
BRANCH  13  15
HETATM   15  C16 UNL     1      36.243  43.198  -2.551  1.00  0.00     0.064 C 
BRANCH  15  16
HETATM   16  C17 UNL     1      36.747  43.033  -1.200  1.00  0.00    -0.057 A 
HETATM   17  C18 UNL     1      36.244  42.047  -0.349  1.00  0.00     0.007 A 
HETATM   18  C19 UNL     1      36.755  41.917   0.920  1.00  0.00     0.001 A 
HETATM   19  C20 UNL     1      37.758  42.764   1.336  1.00  0.00     0.000 A 
HETATM   20  C21 UNL     1      38.274  43.750   0.515  1.00  0.00     0.001 A 
HETATM   21  C22 UNL     1      37.752  43.871  -0.759  1.00  0.00     0.007 A 
ENDBRANCH  15  16
ENDBRANCH  13  15
ENDBRANCH  10  13
ENDBRANCH   8   9
ENDBRANCH   1   8
BRANCH   4  22
HETATM   22  C5  UNL     1      40.234  35.874  -5.352  1.00  0.00     0.197 C 
HETATM   23  O3  UNL     1      40.659  34.977  -4.593  1.00  0.00    -0.646 OA
HETATM   24  O4  UNL     1      39.394  35.524  -6.390  1.00  0.00    -0.646 OA
ENDBRANCH   4  22
BRANCH   7  25
HETATM   25  C9  UNL     1      41.304  37.078  -2.190  1.00  0.00    -0.035 A 
HETATM   26  C10 UNL     1      40.374  36.313  -1.546  1.00  0.00     0.009 A 
HETATM   27  C11 UNL     1      40.704  35.214  -0.743  1.00  0.00     0.001 A 
HETATM   28  C12 UNL     1      42.007  34.870  -0.578  1.00  0.00     0.000 A 
HETATM   29  C13 UNL     1      42.981  35.612  -1.206  1.00  0.00     0.001 A 
HETATM   30  C14 UNL     1      42.636  36.688  -1.993  1.00  0.00     0.009 A 
ENDBRANCH   7  25
TORSDOF 7
ENDMDL
