MODEL 13
REMARK VINA RESULT: -7.451511589      5.763      8.262
REMARK  7 active torsions:
REMARK  status: ('A' for Active; 'I' for Inactive)
REMARK       I    between atoms: C1_2  and  N1_3 
REMARK    1  A    between atoms: C1_2  and  C15_22 
REMARK    2  A    between atoms: N1_3  and  C2_5 
REMARK    3  A    between atoms: C2_5  and  C3_6 
REMARK       I    between atoms: C3_6  and  N2_8 
REMARK    4  A    between atoms: C4_9  and  C5_10 
REMARK    5  A    between atoms: C8_15  and  C9_16 
REMARK    6  A    between atoms: C15_22  and  C16_24 
REMARK    7  A    between atoms: C16_24  and  C17_25 
ROOT
HETATM    1  C3  UNL     1      38.513  37.861  -4.122  1.00  0.00     0.238 C 
HETATM    2  O2  UNL     1      37.620  38.014  -4.991  1.00  0.00    -0.271 OA
HETATM    3  N2  UNL     1      39.273  36.676  -4.072  1.00  0.00    -0.327 N 
HETATM    4  C4  UNL     1      39.136  35.563  -4.988  1.00  0.00     0.189 C 
HETATM    5  C6  UNL     1      40.356  34.675  -4.741  1.00  0.00     0.039 C 
HETATM    6  C7  UNL     1      41.292  35.661  -4.084  1.00  0.00     0.033 C 
HETATM    7  C8  UNL     1      40.337  36.335  -3.115  1.00  0.00     0.121 C 
ENDROOT
BRANCH   1   8
HETATM    8  C2  UNL     1      38.712  38.983  -3.175  1.00  0.00     0.225 C 
BRANCH   8   9
HETATM    9  N1  UNL     1      37.696  39.982  -3.187  1.00  0.00    -0.351 N 
HETATM   10  C1  UNL     1      37.843  41.310  -3.699  1.00  0.00     0.233 C 
HETATM   11  O1  UNL     1      38.971  41.593  -4.160  1.00  0.00    -0.272 OA
ATOM     12  H1  UNL     1      36.788  39.729  -2.798  1.00  0.00     0.163 HD
BRANCH  10  13
HETATM   13  C15 UNL     1      36.765  42.314  -3.709  1.00  0.00     0.154 C 
HETATM   14  S1  UNL     1      35.593  41.989  -5.093  1.00  0.00    -0.082 SA
BRANCH  13  15
HETATM   15  C16 UNL     1      35.936  42.343  -2.484  1.00  0.00     0.064 C 
BRANCH  15  16
HETATM   16  C17 UNL     1      36.596  42.607  -1.218  1.00  0.00    -0.057 A 
HETATM   17  C18 UNL     1      37.415  43.724  -1.041  1.00  0.00     0.007 A 
HETATM   18  C19 UNL     1      38.014  43.944   0.176  1.00  0.00     0.001 A 
HETATM   19  C20 UNL     1      37.798  43.057   1.207  1.00  0.00     0.000 A 
HETATM   20  C21 UNL     1      36.993  41.943   1.060  1.00  0.00     0.001 A 
HETATM   21  C22 UNL     1      36.396  41.731  -0.170  1.00  0.00     0.007 A 
ENDBRANCH  15  16
ENDBRANCH  13  15
ENDBRANCH  10  13
ENDBRANCH   8   9
ENDBRANCH   1   8
BRANCH   4  22
HETATM   22  C5  UNL     1      37.865  34.858  -4.895  1.00  0.00     0.197 C 
HETATM   23  O3  UNL     1      37.684  33.980  -4.023  1.00  0.00    -0.646 OA
HETATM   24  O4  UNL     1      36.837  35.149  -5.769  1.00  0.00    -0.646 OA
ENDBRANCH   4  22
BRANCH   7  25
HETATM   25  C9  UNL     1      39.903  35.434  -2.048  1.00  0.00    -0.035 A 
HETATM   26  C10 UNL     1      38.751  35.634  -1.342  1.00  0.00     0.009 A 
HETATM   27  C11 UNL     1      38.323  34.786  -0.314  1.00  0.00     0.001 A 
HETATM   28  C12 UNL     1      39.071  33.703   0.020  1.00  0.00     0.000 A 
HETATM   29  C13 UNL     1      40.241  33.460  -0.663  1.00  0.00     0.001 A 
HETATM   30  C14 UNL     1      40.645  34.307  -1.672  1.00  0.00     0.009 A 
ENDBRANCH   7  25
TORSDOF 7
ENDMDL
