MODEL 6
REMARK VINA RESULT: -7.736534860      5.646      8.425
REMARK  7 active torsions:
REMARK  status: ('A' for Active; 'I' for Inactive)
REMARK       I    between atoms: C1_2  and  N1_3 
REMARK    1  A    between atoms: C1_2  and  C15_22 
REMARK    2  A    between atoms: N1_3  and  C2_5 
REMARK    3  A    between atoms: C2_5  and  C3_6 
REMARK       I    between atoms: C3_6  and  N2_8 
REMARK    4  A    between atoms: C4_9  and  C5_10 
REMARK    5  A    between atoms: C8_15  and  C9_16 
REMARK    6  A    between atoms: C15_22  and  C16_24 
REMARK    7  A    between atoms: C16_24  and  C17_25 
ROOT
HETATM    1  C3  UNL     1      38.701  38.112  -4.332  1.00  0.00     0.238 C 
HETATM    2  O2  UNL     1      37.651  37.936  -4.996  1.00  0.00    -0.271 OA
HETATM    3  N2  UNL     1      39.649  37.078  -4.198  1.00  0.00    -0.327 N 
HETATM    4  C4  UNL     1      39.536  35.766  -4.800  1.00  0.00     0.189 C 
HETATM    5  C6  UNL     1      40.914  35.122  -4.642  1.00  0.00     0.039 C 
HETATM    6  C7  UNL     1      41.773  36.346  -4.435  1.00  0.00     0.033 C 
HETATM    7  C8  UNL     1      40.914  37.115  -3.448  1.00  0.00     0.121 C 
ENDROOT
BRANCH   1   8
HETATM    8  C2  UNL     1      38.878  39.448  -3.717  1.00  0.00     0.225 C 
BRANCH   8   9
HETATM    9  N1  UNL     1      37.709  40.260  -3.671  1.00  0.00    -0.351 N 
HETATM   10  C1  UNL     1      37.653  41.653  -3.994  1.00  0.00     0.233 C 
HETATM   11  O1  UNL     1      38.737  42.177  -4.333  1.00  0.00    -0.272 OA
ATOM     12  H1  UNL     1      36.839  39.812  -3.384  1.00  0.00     0.163 HD
BRANCH  10  13
HETATM   13  C15 UNL     1      36.421  42.461  -3.950  1.00  0.00     0.154 C 
HETATM   14  S1  UNL     1      35.270  41.955  -5.297  1.00  0.00    -0.082 SA
BRANCH  13  15
HETATM   15  C16 UNL     1      35.646  42.339  -2.696  1.00  0.00     0.064 C 
BRANCH  15  16
HETATM   16  C17 UNL     1      36.325  42.617  -1.443  1.00  0.00    -0.057 A 
HETATM   17  C18 UNL     1      36.322  41.698  -0.392  1.00  0.00     0.007 A 
HETATM   18  C19 UNL     1      36.984  41.995   0.774  1.00  0.00     0.001 A 
HETATM   19  C20 UNL     1      37.644  43.198   0.891  1.00  0.00     0.000 A 
HETATM   20  C21 UNL     1      37.664  44.126  -0.134  1.00  0.00     0.001 A 
HETATM   21  C22 UNL     1      36.993  43.817  -1.303  1.00  0.00     0.007 A 
ENDBRANCH  15  16
ENDBRANCH  13  15
ENDBRANCH  10  13
ENDBRANCH   8   9
ENDBRANCH   1   8
BRANCH   4  22
HETATM   22  C5  UNL     1      38.444  34.955  -4.279  1.00  0.00     0.197 C 
HETATM   23  O3  UNL     1      38.606  34.236  -3.269  1.00  0.00    -0.646 OA
HETATM   24  O4  UNL     1      37.208  34.967  -4.894  1.00  0.00    -0.646 OA
ENDBRANCH   4  22
BRANCH   7  25
HETATM   25  C9  UNL     1      40.845  36.458  -2.143  1.00  0.00    -0.035 A 
HETATM   26  C10 UNL     1      39.792  36.628  -1.291  1.00  0.00     0.009 A 
HETATM   27  C11 UNL     1      39.712  36.011  -0.036  1.00  0.00     0.001 A 
HETATM   28  C12 UNL     1      40.718  35.200   0.380  1.00  0.00     0.000 A 
HETATM   29  C13 UNL     1      41.801  34.999  -0.444  1.00  0.00     0.001 A 
HETATM   30  C14 UNL     1      41.861  35.614  -1.676  1.00  0.00     0.009 A 
ENDBRANCH   7  25
TORSDOF 7
ENDMDL
