MODEL 2
REMARK VINA RESULT: -8.647929298      1.552      2.391
REMARK  7 active torsions:
REMARK  status: ('A' for Active; 'I' for Inactive)
REMARK       I    between atoms: C1_2  and  N1_3 
REMARK    1  A    between atoms: C1_2  and  C15_22 
REMARK    2  A    between atoms: N1_3  and  C2_5 
REMARK    3  A    between atoms: C2_5  and  C3_6 
REMARK       I    between atoms: C3_6  and  N2_8 
REMARK    4  A    between atoms: C4_9  and  C5_10 
REMARK    5  A    between atoms: C8_15  and  C9_16 
REMARK    6  A    between atoms: C15_22  and  C16_24 
REMARK    7  A    between atoms: C16_24  and  C17_25 
ROOT
HETATM    1  C3  UNL     1      34.860  39.573  -7.727  1.00  0.00     0.238 C 
HETATM    2  O2  UNL     1      35.935  39.825  -8.322  1.00  0.00    -0.271 OA
HETATM    3  N2  UNL     1      34.204  38.341  -7.917  1.00  0.00    -0.327 N 
HETATM    4  C4  UNL     1      34.684  37.267  -8.762  1.00  0.00     0.189 C 
HETATM    5  C6  UNL     1      33.828  36.051  -8.406  1.00  0.00     0.039 C 
HETATM    6  C7  UNL     1      33.321  36.454  -7.042  1.00  0.00     0.033 C 
HETATM    7  C8  UNL     1      32.938  37.898  -7.313  1.00  0.00     0.121 C 
ENDROOT
BRANCH   1   8
HETATM    8  C2  UNL     1      34.338  40.630  -6.828  1.00  0.00     0.225 C 
BRANCH   8   9
HETATM    9  N1  UNL     1      34.869  40.626  -5.506  1.00  0.00    -0.351 N 
HETATM   10  C1  UNL     1      35.914  41.479  -5.029  1.00  0.00     0.233 C 
HETATM   11  O1  UNL     1      36.388  42.279  -5.866  1.00  0.00    -0.272 OA
ATOM     12  H1  UNL     1      34.470  39.960  -4.845  1.00  0.00     0.163 HD
BRANCH  10  13
HETATM   13  C15 UNL     1      36.429  41.459  -3.649  1.00  0.00     0.154 C 
HETATM   14  S1  UNL     1      38.162  40.834  -3.616  1.00  0.00    -0.082 SA
BRANCH  13  15
HETATM   15  C16 UNL     1      36.468  42.779  -2.984  1.00  0.00     0.064 C 
BRANCH  15  16
HETATM   16  C17 UNL     1      36.862  42.830  -1.587  1.00  0.00    -0.057 A 
HETATM   17  C18 UNL     1      37.778  43.775  -1.121  1.00  0.00     0.007 A 
HETATM   18  C19 UNL     1      38.117  43.796   0.210  1.00  0.00     0.001 A 
HETATM   19  C20 UNL     1      37.548  42.882   1.068  1.00  0.00     0.000 A 
HETATM   20  C21 UNL     1      36.638  41.936   0.635  1.00  0.00     0.001 A 
HETATM   21  C22 UNL     1      36.305  41.923  -0.708  1.00  0.00     0.007 A 
ENDBRANCH  15  16
ENDBRANCH  13  15
ENDBRANCH  10  13
ENDBRANCH   8   9
ENDBRANCH   1   8
BRANCH   4  22
HETATM   22  C5  UNL     1      34.702  37.580 -10.185  1.00  0.00     0.197 C 
HETATM   23  O3  UNL     1      35.767  37.899 -10.755  1.00  0.00    -0.646 OA
HETATM   24  O4  UNL     1      33.539  37.530 -10.927  1.00  0.00    -0.646 OA
ENDBRANCH   4  22
BRANCH   7  25
HETATM   25  C9  UNL     1      31.787  38.008  -8.207  1.00  0.00    -0.035 A 
HETATM   26  C10 UNL     1      31.622  39.057  -9.066  1.00  0.00     0.009 A 
HETATM   27  C11 UNL     1      30.524  39.181  -9.926  1.00  0.00     0.001 A 
HETATM   28  C12 UNL     1      29.559  38.227  -9.926  1.00  0.00     0.000 A 
HETATM   29  C13 UNL     1      29.680  37.150  -9.077  1.00  0.00     0.001 A 
HETATM   30  C14 UNL     1      30.769  37.046  -8.239  1.00  0.00     0.009 A 
ENDBRANCH   7  25
TORSDOF 7
ENDMDL
