MODEL 12
REMARK VINA RESULT: -9.073447179      2.826      4.607
REMARK  8 active torsions:
REMARK  status: ('A' for Active; 'I' for Inactive)
REMARK    1  A    between atoms: N4_10  and  C5_11 
REMARK    2  A    between atoms: C6_13  and  C7_14 
REMARK    3  A    between atoms: C7_14  and  O2_15 
REMARK    4  A    between atoms: O2_15  and  P1_16 
REMARK    5  A    between atoms: P1_16  and  O5_19 
REMARK    6  A    between atoms: O5_19  and  P2_20 
REMARK    7  A    between atoms: C8_24  and  O9_25 
REMARK    8  A    between atoms: C9_27  and  O10_28 
ROOT
HETATM    1  C5  UNL     1      42.506  27.536  17.639  1.00  0.00     0.262 C 
HETATM    2  O1  UNL     1      41.267  26.942  17.737  1.00  0.00    -0.353 OA
HETATM    3  C6  UNL     1      41.514  25.606  17.920  1.00  0.00     0.180 C 
HETATM    4  C8  UNL     1      42.589  25.609  18.988  1.00  0.00     0.182 C 
HETATM    5  C9  UNL     1      43.449  26.771  18.541  1.00  0.00     0.198 C 
ENDROOT
BRANCH   1   6
HETATM    6  N4  UNL     1      42.403  28.882  18.134  1.00  0.00    -0.297 N 
HETATM    7  C2  UNL     1      41.309  29.667  17.955  1.00  0.00     0.146 A 
HETATM    8  N2  UNL     1      40.124  29.466  17.336  1.00  0.00    -0.314 N 
HETATM    9  C3  UNL     1      41.598  30.857  18.564  1.00  0.00     0.146 A 
HETATM   10  C1  UNL     1      39.184  30.422  17.294  1.00  0.00     0.196 A 
ATOM     11  H2  UNL     1      39.942  28.567  16.891  1.00  0.00     0.170 HD
HETATM   12  N1  UNL     1      37.932  30.238  16.653  1.00  0.00    -0.063 NA
HETATM   13  N5  UNL     1      39.472  31.607  17.903  1.00  0.00    -0.295 N 
HETATM   14  C10 UNL     1      40.632  31.837  18.522  1.00  0.00     0.278 A 
ATOM     15  H5  UNL     1      38.772  32.349  17.884  1.00  0.00     0.171 HD
HETATM   16  O11 UNL     1      40.863  32.958  19.078  1.00  0.00    -0.265 OA
HETATM   17  N3  UNL     1      42.823  30.775  19.087  1.00  0.00    -0.345 N 
HETATM   18  C4  UNL     1      43.329  29.563  18.828  1.00  0.00     0.188 A 
ATOM     19  H3  UNL     1      43.298  31.516  19.601  1.00  0.00     0.167 HD
ENDBRANCH   1   6
BRANCH   5  20
HETATM   20  O10 UNL     1      44.526  26.226  17.817  1.00  0.00    -0.388 OA
ATOM     21  H10 UNL     1      44.277  25.422  17.377  1.00  0.00     0.210 HD
ENDBRANCH   5  20
BRANCH   3  22
HETATM   22  C7  UNL     1      40.315  24.874  18.530  1.00  0.00     0.216 C 
BRANCH  22  23
HETATM   23  O2  UNL     1      39.381  24.769  17.516  1.00  0.00    -0.287 OA
BRANCH  23  24
HETATM   24  P1  UNL     1      37.931  25.536  17.857  1.00  0.00     0.418 P 
HETATM   25  O3  UNL     1      38.238  27.036  17.907  1.00  0.00    -0.624 OA
HETATM   26  O4  UNL     1      37.270  25.047  19.335  1.00  0.00    -0.624 OA
BRANCH  24  27
HETATM   27  O5  UNL     1      36.832  25.171  16.643  1.00  0.00    -0.173 OA
BRANCH  27  28
HETATM   28  P2  UNL     1      35.320  25.821  16.881  1.00  0.00     0.431 P 
HETATM   29  O6  UNL     1      34.501  24.801  17.678  1.00  0.00    -0.616 OA
HETATM   30  O7  UNL     1      34.519  25.972  15.382  1.00  0.00    -0.616 OA
HETATM   31  O8  UNL     1      35.304  27.249  17.739  1.00  0.00    -0.616 OA
ENDBRANCH  27  28
ENDBRANCH  24  27
ENDBRANCH  23  24
ENDBRANCH  22  23
ENDBRANCH   3  22
BRANCH   4  32
HETATM   32  O9  UNL     1      43.300  24.416  19.005  1.00  0.00    -0.390 OA
ATOM     33  H9  UNL     1      43.878  24.341  18.256  1.00  0.00     0.210 HD
ENDBRANCH   4  32
TORSDOF 8
ENDMDL
