MODEL 7
REMARK VINA RESULT: -9.185959190      2.546      4.434
REMARK  8 active torsions:
REMARK  status: ('A' for Active; 'I' for Inactive)
REMARK    1  A    between atoms: N4_10  and  C5_11 
REMARK    2  A    between atoms: C6_13  and  C7_14 
REMARK    3  A    between atoms: C7_14  and  O2_15 
REMARK    4  A    between atoms: O2_15  and  P1_16 
REMARK    5  A    between atoms: P1_16  and  O5_19 
REMARK    6  A    between atoms: O5_19  and  P2_20 
REMARK    7  A    between atoms: C8_24  and  O9_25 
REMARK    8  A    between atoms: C9_27  and  O10_28 
ROOT
HETATM    1  C5  UNL     1      42.492  27.556  17.577  1.00  0.00     0.262 C 
HETATM    2  O1  UNL     1      41.293  26.879  17.617  1.00  0.00    -0.353 OA
HETATM    3  C6  UNL     1      41.624  25.555  17.749  1.00  0.00     0.180 C 
HETATM    4  C8  UNL     1      42.671  25.581  18.843  1.00  0.00     0.182 C 
HETATM    5  C9  UNL     1      43.462  26.814  18.469  1.00  0.00     0.198 C 
ENDROOT
BRANCH   1   6
HETATM    6  N4  UNL     1      42.289  28.869  18.126  1.00  0.00    -0.297 N 
HETATM    7  C2  UNL     1      41.141  29.578  17.972  1.00  0.00     0.146 A 
HETATM    8  N2  UNL     1      39.976  29.317  17.339  1.00  0.00    -0.314 N 
HETATM    9  C3  UNL     1      41.339  30.760  18.633  1.00  0.00     0.146 A 
HETATM   10  C1  UNL     1      38.968  30.202  17.331  1.00  0.00     0.196 A 
ATOM     11  H2  UNL     1      39.861  28.426  16.856  1.00  0.00     0.170 HD
HETATM   12  N1  UNL     1      37.735  29.955  16.675  1.00  0.00    -0.063 NA
HETATM   13  N5  UNL     1      39.167  31.380  17.989  1.00  0.00    -0.295 N 
HETATM   14  C10 UNL     1      40.305  31.668  18.625  1.00  0.00     0.278 A 
ATOM     15  H5  UNL     1      38.414  32.069  17.997  1.00  0.00     0.171 HD
HETATM   16  O11 UNL     1      40.451  32.779  19.228  1.00  0.00    -0.265 OA
HETATM   17  N3  UNL     1      42.566  30.746  19.159  1.00  0.00    -0.345 N 
HETATM   18  C4  UNL     1      43.160  29.587  18.853  1.00  0.00     0.188 A 
ATOM     19  H3  UNL     1      42.984  31.499  19.706  1.00  0.00     0.167 HD
ENDBRANCH   1   6
BRANCH   5  20
HETATM   20  O10 UNL     1      44.589  26.374  17.751  1.00  0.00    -0.388 OA
ATOM     21  H10 UNL     1      45.378  26.424  18.277  1.00  0.00     0.210 HD
ENDBRANCH   5  20
BRANCH   3  22
HETATM   22  C7  UNL     1      40.462  24.720  18.295  1.00  0.00     0.216 C 
BRANCH  22  23
HETATM   23  O2  UNL     1      39.530  24.657  17.277  1.00  0.00    -0.287 OA
BRANCH  23  24
HETATM   24  P1  UNL     1      38.419  23.415  17.458  1.00  0.00     0.418 P 
HETATM   25  O3  UNL     1      38.487  22.989  18.928  1.00  0.00    -0.624 OA
HETATM   26  O4  UNL     1      38.764  22.087  16.471  1.00  0.00    -0.624 OA
BRANCH  24  27
HETATM   27  O5  UNL     1      36.898  23.992  17.052  1.00  0.00    -0.173 OA
BRANCH  27  28
HETATM   28  P2  UNL     1      36.678  25.609  17.372  1.00  0.00     0.431 P 
HETATM   29  O6  UNL     1      35.170  25.873  17.395  1.00  0.00    -0.616 OA
HETATM   30  O7  UNL     1      37.281  26.536  16.073  1.00  0.00    -0.616 OA
HETATM   31  O8  UNL     1      37.294  26.117  18.835  1.00  0.00    -0.616 OA
ENDBRANCH  27  28
ENDBRANCH  24  27
ENDBRANCH  23  24
ENDBRANCH  22  23
ENDBRANCH   3  22
BRANCH   4  32
HETATM   32  O9  UNL     1      43.459  24.437  18.827  1.00  0.00    -0.390 OA
ATOM     33  H9  UNL     1      44.122  24.457  19.506  1.00  0.00     0.210 HD
ENDBRANCH   4  32
TORSDOF 8
ENDMDL
