MODEL 15
REMARK VINA RESULT: -8.926881380      3.066      5.222
REMARK  8 active torsions:
REMARK  status: ('A' for Active; 'I' for Inactive)
REMARK    1  A    between atoms: N4_10  and  C5_11 
REMARK    2  A    between atoms: C6_13  and  C7_14 
REMARK    3  A    between atoms: C7_14  and  O2_15 
REMARK    4  A    between atoms: O2_15  and  P1_16 
REMARK    5  A    between atoms: P1_16  and  O5_19 
REMARK    6  A    between atoms: O5_19  and  P2_20 
REMARK    7  A    between atoms: C8_24  and  O9_25 
REMARK    8  A    between atoms: C9_27  and  O10_28 
ROOT
HETATM    1  C5  UNL     1      40.033  30.444  17.961  1.00  0.00     0.262 C 
HETATM    2  O1  UNL     1      39.367  29.270  17.683  1.00  0.00    -0.353 OA
HETATM    3  C6  UNL     1      38.490  29.575  16.676  1.00  0.00     0.180 C 
HETATM    4  C8  UNL     1      39.352  30.361  15.709  1.00  0.00     0.182 C 
HETATM    5  C9  UNL     1      40.172  31.204  16.660  1.00  0.00     0.198 C 
ENDROOT
BRANCH   1   6
HETATM    6  N4  UNL     1      41.350  30.116  18.434  1.00  0.00    -0.297 N 
HETATM    7  C2  UNL     1      41.974  28.939  18.166  1.00  0.00     0.146 A 
HETATM    8  N2  UNL     1      41.608  27.843  17.466  1.00  0.00    -0.314 N 
HETATM    9  C3  UNL     1      43.192  29.012  18.784  1.00  0.00     0.146 A 
HETATM   10  C1  UNL     1      42.421  26.783  17.346  1.00  0.00     0.196 A 
ATOM     11  H2  UNL     1      40.692  27.822  17.018  1.00  0.00     0.170 HD
HETATM   12  N1  UNL     1      42.063  25.620  16.617  1.00  0.00    -0.063 NA
HETATM   13  N5  UNL     1      43.635  26.857  17.962  1.00  0.00    -0.295 N 
HETATM   14  C10 UNL     1      44.027  27.925  18.661  1.00  0.00     0.278 A 
ATOM     15  H5  UNL     1      44.271  26.062  17.885  1.00  0.00     0.171 HD
HETATM   16  O11 UNL     1      45.169  27.954  19.221  1.00  0.00    -0.265 OA
HETATM   17  N3  UNL     1      43.283  30.195  19.395  1.00  0.00    -0.345 N 
HETATM   18  C4  UNL     1      42.155  30.884  19.187  1.00  0.00     0.188 A 
ATOM     19  H3  UNL     1      44.084  30.522  19.936  1.00  0.00     0.167 HD
ENDBRANCH   1   6
BRANCH   5  20
HETATM   20  O10 UNL     1      39.548  32.464  16.730  1.00  0.00    -0.388 OA
ATOM     21  H10 UNL     1      39.800  33.018  16.001  1.00  0.00     0.210 HD
ENDBRANCH   5  20
BRANCH   3  22
HETATM   22  C7  UNL     1      38.028  28.330  15.913  1.00  0.00     0.216 C 
BRANCH  22  23
HETATM   23  O2  UNL     1      38.623  27.255  16.548  1.00  0.00    -0.287 OA
BRANCH  23  24
HETATM   24  P1  UNL     1      37.536  26.079  17.039  1.00  0.00     0.418 P 
HETATM   25  O3  UNL     1      37.140  26.431  18.477  1.00  0.00    -0.624 OA
HETATM   26  O4  UNL     1      38.201  24.525  17.003  1.00  0.00    -0.624 OA
BRANCH  24  27
HETATM   27  O5  UNL     1      36.211  26.108  16.010  1.00  0.00    -0.173 OA
BRANCH  27  28
HETATM   28  P2  UNL     1      34.750  25.919  16.781  1.00  0.00     0.431 P 
HETATM   29  O6  UNL     1      33.672  25.800  15.700  1.00  0.00    -0.616 OA
HETATM   30  O7  UNL     1      34.370  27.339  17.645  1.00  0.00    -0.616 OA
HETATM   31  O8  UNL     1      34.642  24.561  17.741  1.00  0.00    -0.616 OA
ENDBRANCH  27  28
ENDBRANCH  24  27
ENDBRANCH  23  24
ENDBRANCH  22  23
ENDBRANCH   3  22
BRANCH   4  32
HETATM   32  O9  UNL     1      38.585  31.143  14.855  1.00  0.00    -0.390 OA
ATOM     33  H9  UNL     1      38.832  31.018  13.947  1.00  0.00     0.210 HD
ENDBRANCH   4  32
TORSDOF 8
ENDMDL
