MODEL 1
REMARK VINA RESULT: -10.088231940      0.000      0.000
REMARK  8 active torsions:
REMARK  status: ('A' for Active; 'I' for Inactive)
REMARK    1  A    between atoms: N4_10  and  C5_11 
REMARK    2  A    between atoms: C6_13  and  C7_14 
REMARK    3  A    between atoms: C7_14  and  O2_15 
REMARK    4  A    between atoms: O2_15  and  P1_16 
REMARK    5  A    between atoms: P1_16  and  O5_19 
REMARK    6  A    between atoms: O5_19  and  P2_20 
REMARK    7  A    between atoms: C8_24  and  O9_25 
REMARK    8  A    between atoms: C9_27  and  O10_28 
ROOT
HETATM    1  C5  UNL     1      41.169  25.810  16.779  1.00  0.00     0.262 C 
HETATM    2  O1  UNL     1      40.137  25.919  17.686  1.00  0.00    -0.353 OA
HETATM    3  C6  UNL     1      39.181  25.033  17.262  1.00  0.00     0.180 C 
HETATM    4  C8  UNL     1      39.988  23.784  16.974  1.00  0.00     0.182 C 
HETATM    5  C9  UNL     1      41.221  24.369  16.322  1.00  0.00     0.198 C 
ENDROOT
BRANCH   1   6
HETATM    6  N4  UNL     1      42.401  26.113  17.456  1.00  0.00    -0.297 N 
HETATM    7  C2  UNL     1      42.711  27.344  17.938  1.00  0.00     0.146 A 
HETATM    8  N2  UNL     1      42.053  28.524  17.937  1.00  0.00    -0.314 N 
HETATM    9  C3  UNL     1      43.950  27.223  18.505  1.00  0.00     0.146 A 
HETATM   10  C1  UNL     1      42.585  29.625  18.490  1.00  0.00     0.196 A 
ATOM     11  H2  UNL     1      41.131  28.580  17.505  1.00  0.00     0.170 HD
HETATM   12  N1  UNL     1      41.918  30.876  18.504  1.00  0.00    -0.063 NA
HETATM   13  N5  UNL     1      43.820  29.503  19.055  1.00  0.00    -0.295 N 
HETATM   14  C10 UNL     1      44.495  28.351  19.073  1.00  0.00     0.278 A 
ATOM     15  H5  UNL     1      44.246  30.326  19.483  1.00  0.00     0.171 HD
HETATM   16  O11 UNL     1      45.647  28.279  19.612  1.00  0.00    -0.265 OA
HETATM   17  N3  UNL     1      44.356  25.960  18.362  1.00  0.00    -0.345 N 
HETATM   18  C4  UNL     1      43.410  25.266  17.717  1.00  0.00     0.188 A 
ATOM     19  H3  UNL     1      45.245  25.583  18.691  1.00  0.00     0.167 HD
ENDBRANCH   1   6
BRANCH   5  20
HETATM   20  O10 UNL     1      41.035  24.263  14.931  1.00  0.00    -0.388 OA
ATOM     21  H10 UNL     1      41.811  24.535  14.455  1.00  0.00     0.210 HD
ENDBRANCH   5  20
BRANCH   3  22
HETATM   22  C7  UNL     1      38.204  24.657  18.379  1.00  0.00     0.216 C 
BRANCH  22  23
HETATM   23  O2  UNL     1      37.022  24.316  17.749  1.00  0.00    -0.287 OA
BRANCH  23  24
HETATM   24  P1  UNL     1      36.610  22.701  17.923  1.00  0.00     0.418 P 
HETATM   25  O3  UNL     1      36.561  22.114  16.509  1.00  0.00    -0.624 OA
HETATM   26  O4  UNL     1      35.108  22.493  18.672  1.00  0.00    -0.624 OA
BRANCH  24  27
HETATM   27  O5  UNL     1      37.776  21.948  18.864  1.00  0.00    -0.173 OA
BRANCH  27  28
HETATM   28  P2  UNL     1      37.993  20.337  18.514  1.00  0.00     0.431 P 
HETATM   29  O6  UNL     1      38.784  19.717  19.669  1.00  0.00    -0.616 OA
HETATM   30  O7  UNL     1      38.994  20.178  17.143  1.00  0.00    -0.616 OA
HETATM   31  O8  UNL     1      36.581  19.465  18.355  1.00  0.00    -0.616 OA
ENDBRANCH  27  28
ENDBRANCH  24  27
ENDBRANCH  23  24
ENDBRANCH  22  23
ENDBRANCH   3  22
BRANCH   4  32
HETATM   32  O9  UNL     1      39.312  22.921  16.121  1.00  0.00    -0.390 OA
ATOM     33  H9  UNL     1      38.736  22.335  16.597  1.00  0.00     0.210 HD
ENDBRANCH   4  32
TORSDOF 8
ENDMDL
