MODEL 6
REMARK VINA RESULT: -3.865607681      8.330      9.561
REMARK  3 active torsions:
REMARK  status: ('A' for Active; 'I' for Inactive)
REMARK    1  A    between atoms: N1_1  and  C1_5 
REMARK    2  A    between atoms: C1_5  and  C2_6 
REMARK    3  A    between atoms: C2_6  and  C3_7 
ROOT
HETATM    1  C3  UNL     1      68.407  43.834  18.826  1.00  0.00     0.027 A 
HETATM    2  C4  UNL     1      67.391  43.864  17.899  1.00  0.00     0.114 A 
HETATM    3  N2  UNL     1      66.736  45.029  18.065  1.00  0.00    -0.360 N 
ATOM      4  H2  UNL     1      65.932  45.330  17.515  1.00  0.00     0.166 HD
HETATM    5  C5  UNL     1      67.297  45.738  19.062  1.00  0.00     0.180 A 
HETATM    6  N3  UNL     1      68.317  44.987  19.512  1.00  0.00    -0.355 N 
ATOM      7  H3  UNL     1      68.940  45.256  20.273  1.00  0.00     0.166 HD
ENDROOT
BRANCH   1   8
HETATM    8  C2  UNL     1      69.429  42.766  19.067  1.00  0.00     0.085 C 
BRANCH   8   9
HETATM    9  C1  UNL     1      68.629  41.506  19.415  1.00  0.00     0.235 C 
BRANCH   9  10
HETATM   10  N1  UNL     1      68.697  40.522  18.369  1.00  0.00    -0.079 N 
ATOM     11  H13 UNL     1      68.008  40.709  17.640  1.00  0.00     0.274 HD
ATOM     12  H12 UNL     1      69.548  40.626  17.817  1.00  0.00     0.274 HD
ATOM     13  H11 UNL     1      68.604  39.574  18.732  1.00  0.00     0.274 HD
ENDBRANCH   9  10
ENDBRANCH   8   9
ENDBRANCH   1   8
TORSDOF 3
ENDMDL
