MODEL 7
REMARK VINA RESULT: -3.785172522      8.522      9.212
REMARK  3 active torsions:
REMARK  status: ('A' for Active; 'I' for Inactive)
REMARK    1  A    between atoms: N1_1  and  C1_5 
REMARK    2  A    between atoms: C1_5  and  C2_6 
REMARK    3  A    between atoms: C2_6  and  C3_7 
ROOT
HETATM    1  C3  UNL     1      68.414  43.403  18.527  1.00  0.00     0.027 A 
HETATM    2  C4  UNL     1      69.585  42.947  19.086  1.00  0.00     0.114 A 
HETATM    3  N2  UNL     1      69.356  41.692  19.517  1.00  0.00    -0.360 N 
ATOM      4  H2  UNL     1      70.046  41.097  19.977  1.00  0.00     0.166 HD
HETATM    5  C5  UNL     1      68.085  41.336  19.255  1.00  0.00     0.180 A 
HETATM    6  N3  UNL     1      67.529  42.399  18.649  1.00  0.00    -0.355 N 
ATOM      7  H3  UNL     1      66.563  42.438  18.325  1.00  0.00     0.166 HD
ENDROOT
BRANCH   1   8
HETATM    8  C2  UNL     1      68.127  44.734  17.901  1.00  0.00     0.085 C 
BRANCH   8   9
HETATM    9  C1  UNL     1      66.603  44.888  17.950  1.00  0.00     0.235 C 
BRANCH   9  10
HETATM   10  N1  UNL     1      66.203  46.268  17.909  1.00  0.00    -0.079 N 
ATOM     11  H13 UNL     1      66.729  46.786  17.205  1.00  0.00     0.274 HD
ATOM     12  H12 UNL     1      65.267  46.371  17.518  1.00  0.00     0.274 HD
ATOM     13  H11 UNL     1      66.274  46.712  18.825  1.00  0.00     0.274 HD
ENDBRANCH   9  10
ENDBRANCH   8   9
ENDBRANCH   1   8
TORSDOF 3
ENDMDL
