MODEL 5
REMARK VINA RESULT: -4.168703082      0.912      1.303
REMARK  3 active torsions:
REMARK  status: ('A' for Active; 'I' for Inactive)
REMARK    1  A    between atoms: N1_1  and  C1_5 
REMARK    2  A    between atoms: C1_5  and  C2_6 
REMARK    3  A    between atoms: C2_6  and  C3_7 
ROOT
HETATM    1  C3  UNL     1      73.504  44.148  25.731  1.00  0.00     0.027 A 
HETATM    2  C4  UNL     1      74.830  43.800  25.846  1.00  0.00     0.114 A 
HETATM    3  N2  UNL     1      75.071  42.848  24.925  1.00  0.00    -0.360 N 
ATOM      4  H2  UNL     1      75.974  42.396  24.775  1.00  0.00     0.166 HD
HETATM    5  C5  UNL     1      73.950  42.578  24.231  1.00  0.00     0.180 A 
HETATM    6  N3  UNL     1      73.006  43.386  24.742  1.00  0.00    -0.355 N 
ATOM      7  H3  UNL     1      72.038  43.417  24.421  1.00  0.00     0.166 HD
ENDROOT
BRANCH   1   8
HETATM    8  C2  UNL     1      72.725  45.158  26.517  1.00  0.00     0.085 C 
BRANCH   8   9
HETATM    9  C1  UNL     1      72.797  46.454  25.701  1.00  0.00     0.235 C 
BRANCH   9  10
HETATM   10  N1  UNL     1      72.781  47.619  26.543  1.00  0.00    -0.079 N 
ATOM     11  H13 UNL     1      71.876  48.087  26.510  1.00  0.00     0.274 HD
ATOM     12  H12 UNL     1      72.794  47.363  27.530  1.00  0.00     0.274 HD
ATOM     13  H11 UNL     1      73.539  48.262  26.316  1.00  0.00     0.274 HD
ENDBRANCH   9  10
ENDBRANCH   8   9
ENDBRANCH   1   8
TORSDOF 3
ENDMDL
