MODEL 4
REMARK VINA RESULT: -4.290207378      8.576      9.748
REMARK  3 active torsions:
REMARK  status: ('A' for Active; 'I' for Inactive)
REMARK    1  A    between atoms: N1_1  and  C1_5 
REMARK    2  A    between atoms: C1_5  and  C2_6 
REMARK    3  A    between atoms: C2_6  and  C3_7 
ROOT
HETATM    1  C3  UNL     1      68.380  43.734  18.749  1.00  0.00     0.027 A 
HETATM    2  C4  UNL     1      68.302  44.995  19.292  1.00  0.00     0.114 A 
HETATM    3  N2  UNL     1      67.213  45.587  18.763  1.00  0.00    -0.360 N 
ATOM      4  H2  UNL     1      66.900  46.534  18.981  1.00  0.00     0.166 HD
HETATM    5  C5  UNL     1      66.600  44.751  17.906  1.00  0.00     0.180 A 
HETATM    6  N3  UNL     1      67.331  43.624  17.914  1.00  0.00    -0.355 N 
ATOM      7  H3  UNL     1      67.119  42.794  17.361  1.00  0.00     0.166 HD
ENDROOT
BRANCH   1   8
HETATM    8  C2  UNL     1      69.398  42.664  18.998  1.00  0.00     0.085 C 
BRANCH   8   9
HETATM    9  C1  UNL     1      68.594  41.412  19.366  1.00  0.00     0.235 C 
BRANCH   9  10
HETATM   10  N1  UNL     1      68.663  40.410  18.338  1.00  0.00    -0.079 N 
ATOM     11  H13 UNL     1      68.448  40.804  17.422  1.00  0.00     0.274 HD
ATOM     12  H12 UNL     1      69.625  40.119  18.167  1.00  0.00     0.274 HD
ATOM     13  H11 UNL     1      68.065  39.610  18.546  1.00  0.00     0.274 HD
ENDBRANCH   9  10
ENDBRANCH   8   9
ENDBRANCH   1   8
TORSDOF 3
ENDMDL
