MODEL 1
REMARK VINA RESULT: -5.416617350      0.000      0.000
REMARK  3 active torsions:
REMARK  status: ('A' for Active; 'I' for Inactive)
REMARK    1  A    between atoms: N1_1  and  C1_5 
REMARK    2  A    between atoms: C1_5  and  C2_6 
REMARK    3  A    between atoms: C2_6  and  C3_7 
ROOT
HETATM    1  C3  UNL     1      73.652  44.021  25.678  1.00  0.00     0.027 A 
HETATM    2  C4  UNL     1      73.239  43.075  24.770  1.00  0.00     0.114 A 
HETATM    3  N2  UNL     1      74.336  42.405  24.368  1.00  0.00    -0.360 N 
ATOM      4  H2  UNL     1      74.339  41.640  23.693  1.00  0.00     0.166 HD
HETATM    5  C5  UNL     1      75.429  42.890  24.987  1.00  0.00     0.180 A 
HETATM    6  N3  UNL     1      74.984  43.878  25.783  1.00  0.00    -0.355 N 
ATOM      7  H3  UNL     1      75.580  44.444  26.387  1.00  0.00     0.166 HD
ENDROOT
BRANCH   1   8
HETATM    8  C2  UNL     1      72.832  45.028  26.426  1.00  0.00     0.085 C 
BRANCH   8   9
HETATM    9  C1  UNL     1      72.782  46.266  25.523  1.00  0.00     0.235 C 
BRANCH   9  10
HETATM   10  N1  UNL     1      72.802  47.485  26.284  1.00  0.00    -0.079 N 
ATOM     11  H13 UNL     1      71.862  47.762  26.564  1.00  0.00     0.274 HD
ATOM     12  H12 UNL     1      73.210  47.339  27.207  1.00  0.00     0.274 HD
ATOM     13  H11 UNL     1      73.277  48.237  25.784  1.00  0.00     0.274 HD
ENDBRANCH   9  10
ENDBRANCH   8   9
ENDBRANCH   1   8
TORSDOF 3
ENDMDL
