MODEL 4
REMARK VINA RESULT: -10.648964675      1.917      9.168
REMARK  15 active torsions:
REMARK  status: ('A' for Active; 'I' for Inactive)
REMARK    1  A    between atoms: C1_2  and  C2_4 
REMARK    2  A    between atoms: N2_8  and  C6_9 
REMARK    3  A    between atoms: C7_11  and  C8_12 
REMARK    4  A    between atoms: C8_12  and  O3_13 
REMARK    5  A    between atoms: O3_13  and  P1_14 
REMARK    6  A    between atoms: P1_14  and  O6_17 
REMARK    7  A    between atoms: O6_17  and  P2_18 
REMARK    8  A    between atoms: P2_18  and  O9_21 
REMARK    9  A    between atoms: O9_21  and  C9_22 
REMARK   10  A    between atoms: C9_22  and  C10_23 
REMARK   11  A    between atoms: C11_25  and  N3_26 
REMARK   12  A    between atoms: C17_39  and  O11_40 
REMARK   13  A    between atoms: C18_42  and  O12_43 
REMARK   14  A    between atoms: C19_45  and  O13_46 
REMARK   15  A    between atoms: C20_48  and  O14_49 
ROOT
HETATM    1  P2  UNL     1       4.167 -23.473  15.460  1.00  0.00     0.417 P 
HETATM    2  O7  UNL     1       5.052 -24.331  16.313  1.00  0.00    -0.624 OA
HETATM    3  O8  UNL     1       5.173 -22.954  14.125  1.00  0.00    -0.624 OA
ENDROOT
BRANCH   1   4
HETATM    4  O6  UNL     1       2.856 -24.224  14.895  1.00  0.00    -0.180 OA
BRANCH   4   5
HETATM    5  P1  UNL     1       1.923 -23.434  13.782  1.00  0.00     0.417 P 
HETATM    6  O4  UNL     1       2.417 -23.505  12.400  1.00  0.00    -0.624 OA
HETATM    7  O5  UNL     1       2.037 -21.687  14.174  1.00  0.00    -0.624 OA
BRANCH   5   8
HETATM    8  O3  UNL     1       0.336 -23.779  13.991  1.00  0.00    -0.287 OA
BRANCH   8   9
HETATM    9  C8  UNL     1       0.061 -24.512  15.166  1.00  0.00     0.216 C 
BRANCH   9  10
HETATM   10  C7  UNL     1      -0.587 -23.396  16.042  1.00  0.00     0.180 C 
HETATM   11  O2  UNL     1      -1.867 -23.774  16.366  1.00  0.00    -0.353 OA
HETATM   12  C6  UNL     1      -2.115 -23.591  17.706  1.00  0.00     0.259 C 
HETATM   13  C20 UNL     1      -1.047 -22.582  18.141  1.00  0.00     0.198 C 
HETATM   14  C19 UNL     1       0.144 -23.102  17.282  1.00  0.00     0.182 C 
BRANCH  12  15
HETATM   15  N2  UNL     1      -1.747 -24.876  18.338  1.00  0.00    -0.336 N 
HETATM   16  C5  UNL     1      -1.594 -25.991  17.622  1.00  0.00     0.093 A 
HETATM   17  C4  UNL     1      -1.363 -27.205  18.269  1.00  0.00     0.018 A 
HETATM   18  C3  UNL     1      -1.297 -27.245  19.632  1.00  0.00     0.019 A 
HETATM   19  C2  UNL     1      -1.460 -26.081  20.335  1.00  0.00     0.044 A 
HETATM   20  C21 UNL     1      -1.687 -24.892  19.675  1.00  0.00     0.110 A 
BRANCH  19  21
HETATM   21  C1  UNL     1      -1.446 -26.080  21.785  1.00  0.00     0.266 C 
HETATM   22  N1  UNL     1      -2.369 -25.286  22.503  1.00  0.00    -0.057 NA
HETATM   23  O1  UNL     1      -0.620 -26.772  22.472  1.00  0.00    -0.271 OA
ENDBRANCH  19  21
ENDBRANCH  12  15
BRANCH  13  24
HETATM   24  O14 UNL     1      -1.349 -21.323  17.626  1.00  0.00    -0.388 OA
ATOM     25  H14 UNL     1      -1.056 -20.650  18.229  1.00  0.00     0.210 HD
ENDBRANCH  13  24
BRANCH  14  26
HETATM   26  O13 UNL     1       1.128 -22.111  17.171  1.00  0.00    -0.390 OA
ATOM     27  H13 UNL     1       1.605 -22.107  16.350  1.00  0.00     0.210 HD
ENDBRANCH  14  26
ENDBRANCH   9  10
ENDBRANCH   8   9
ENDBRANCH   5   8
ENDBRANCH   4   5
ENDBRANCH   1   4
BRANCH   1  28
HETATM   28  O9  UNL     1       3.955 -22.000  16.341  1.00  0.00    -0.287 OA
BRANCH  28  29
HETATM   29  C9  UNL     1       5.019 -21.183  15.833  1.00  0.00     0.216 C 
BRANCH  29  30
HETATM   30  C10 UNL     1       4.765 -19.785  16.206  1.00  0.00     0.180 C 
HETATM   31  O10 UNL     1       4.206 -19.104  15.089  1.00  0.00    -0.353 OA
HETATM   32  C11 UNL     1       3.984 -17.843  15.681  1.00  0.00     0.262 C 
HETATM   33  C17 UNL     1       3.007 -18.345  16.780  1.00  0.00     0.198 C 
HETATM   34  C18 UNL     1       3.842 -19.541  17.322  1.00  0.00     0.182 C 
BRANCH  32  35
HETATM   35  N3  UNL     1       3.375 -16.983  14.743  1.00  0.00    -0.297 N 
HETATM   36  C12 UNL     1       3.912 -15.886  14.108  1.00  0.00     0.188 A 
HETATM   37  N4  UNL     1       3.019 -15.339  13.282  1.00  0.00    -0.346 N 
HETATM   38  C13 UNL     1       1.888 -16.099  13.374  1.00  0.00     0.119 A 
ATOM     39  H4  UNL     1       3.155 -14.515  12.697  1.00  0.00     0.167 HD
HETATM   40  C14 UNL     1       0.675 -15.983  12.759  1.00  0.00     0.148 A 
HETATM   41  C16 UNL     1       2.131 -17.111  14.290  1.00  0.00     0.142 A 
HETATM   42  N5  UNL     1       0.437 -14.966  11.791  1.00  0.00    -0.080 NA
HETATM   43  N6  UNL     1      -0.306 -16.851  13.049  1.00  0.00    -0.339 N 
HETATM   44  C15 UNL     1      -0.103 -17.829  13.936  1.00  0.00     0.183 A 
ATOM     45  H6  UNL     1      -1.213 -16.764  12.589  1.00  0.00     0.167 HD
HETATM   46  N7  UNL     1       1.117 -17.947  14.544  1.00  0.00    -0.336 N 
ATOM     47  H7  UNL     1       1.259 -18.700  15.217  1.00  0.00     0.168 HD
ENDBRANCH  32  35
BRANCH  33  48
HETATM   48  O11 UNL     1       2.687 -17.414  17.706  1.00  0.00    -0.388 OA
ATOM     49  H11 UNL     1       1.865 -16.966  17.542  1.00  0.00     0.210 HD
ENDBRANCH  33  48
BRANCH  34  50
HETATM   50  O12 UNL     1       4.568 -19.007  18.431  1.00  0.00    -0.390 OA
ATOM     51  H12 UNL     1       3.993 -18.949  19.186  1.00  0.00     0.210 HD
ENDBRANCH  34  50
ENDBRANCH  29  30
ENDBRANCH  28  29
ENDBRANCH   1  28
TORSDOF 15
ENDMDL
