MODEL 9
REMARK VINA RESULT: -10.422306143      2.139      3.130
REMARK  15 active torsions:
REMARK  status: ('A' for Active; 'I' for Inactive)
REMARK    1  A    between atoms: C1_2  and  C2_4 
REMARK    2  A    between atoms: N2_8  and  C6_9 
REMARK    3  A    between atoms: C7_11  and  C8_12 
REMARK    4  A    between atoms: C8_12  and  O3_13 
REMARK    5  A    between atoms: O3_13  and  P1_14 
REMARK    6  A    between atoms: P1_14  and  O6_17 
REMARK    7  A    between atoms: O6_17  and  P2_18 
REMARK    8  A    between atoms: P2_18  and  O9_21 
REMARK    9  A    between atoms: O9_21  and  C9_22 
REMARK   10  A    between atoms: C9_22  and  C10_23 
REMARK   11  A    between atoms: C11_25  and  N3_26 
REMARK   12  A    between atoms: C17_39  and  O11_40 
REMARK   13  A    between atoms: C18_42  and  O12_43 
REMARK   14  A    between atoms: C19_45  and  O13_46 
REMARK   15  A    between atoms: C20_48  and  O14_49 
ROOT
HETATM    1  P2  UNL     1       1.983 -23.222  13.773  1.00  0.00     0.417 P 
HETATM    2  O7  UNL     1       2.274 -23.615  12.356  1.00  0.00    -0.624 OA
HETATM    3  O8  UNL     1       2.606 -24.531  14.753  1.00  0.00    -0.624 OA
ENDROOT
BRANCH   1   4
HETATM    4  O6  UNL     1       2.658 -21.830  14.229  1.00  0.00    -0.180 OA
BRANCH   4   5
HETATM    5  P1  UNL     1       4.283 -21.814  14.535  1.00  0.00     0.417 P 
HETATM    6  O4  UNL     1       5.046 -22.880  13.875  1.00  0.00    -0.624 OA
HETATM    7  O5  UNL     1       4.472 -22.187  16.280  1.00  0.00    -0.624 OA
BRANCH   5   8
HETATM    8  O3  UNL     1       4.896 -20.302  14.391  1.00  0.00    -0.287 OA
BRANCH   8   9
HETATM    9  C8  UNL     1       5.403 -19.774  15.598  1.00  0.00     0.216 C 
BRANCH   9  10
HETATM   10  C7  UNL     1       4.508 -18.505  15.743  1.00  0.00     0.180 C 
HETATM   11  O2  UNL     1       5.291 -17.455  16.154  1.00  0.00    -0.353 OA
HETATM   12  C6  UNL     1       5.046 -16.329  15.403  1.00  0.00     0.259 C 
HETATM   13  C20 UNL     1       3.665 -16.591  14.792  1.00  0.00     0.198 C 
HETATM   14  C19 UNL     1       3.808 -18.117  14.512  1.00  0.00     0.182 C 
BRANCH  12  15
HETATM   15  N2  UNL     1       6.009 -16.403  14.285  1.00  0.00    -0.336 N 
HETATM   16  C5  UNL     1       7.223 -16.936  14.438  1.00  0.00     0.093 A 
HETATM   17  C4  UNL     1       8.143 -16.879  13.392  1.00  0.00     0.018 A 
HETATM   18  C3  UNL     1       7.798 -16.275  12.217  1.00  0.00     0.019 A 
HETATM   19  C2  UNL     1       6.544 -15.736  12.096  1.00  0.00     0.044 A 
HETATM   20  C21 UNL     1       5.650 -15.805  13.142  1.00  0.00     0.110 A 
BRANCH  19  21
HETATM   21  C1  UNL     1       6.147 -15.043  10.885  1.00  0.00     0.266 C 
HETATM   22  N1  UNL     1       6.932 -15.151   9.716  1.00  0.00    -0.057 NA
HETATM   23  O1  UNL     1       5.099 -14.315  10.815  1.00  0.00    -0.271 OA
ENDBRANCH  19  21
ENDBRANCH  12  15
BRANCH  13  24
HETATM   24  O14 UNL     1       2.686 -16.489  15.779  1.00  0.00    -0.388 OA
ATOM     25  H14 UNL     1       2.902 -17.062  16.506  1.00  0.00     0.210 HD
ENDBRANCH  13  24
BRANCH  14  26
HETATM   26  O13 UNL     1       2.545 -18.696  14.338  1.00  0.00    -0.390 OA
ATOM     27  H13 UNL     1       2.538 -19.512  13.853  1.00  0.00     0.210 HD
ENDBRANCH  14  26
ENDBRANCH   9  10
ENDBRANCH   8   9
ENDBRANCH   5   8
ENDBRANCH   4   5
ENDBRANCH   1   4
BRANCH   1  28
HETATM   28  O9  UNL     1       0.275 -23.410  13.970  1.00  0.00    -0.287 OA
BRANCH  28  29
HETATM   29  C9  UNL     1      -0.026 -22.437  14.979  1.00  0.00     0.216 C 
BRANCH  29  30
HETATM   30  C10 UNL     1      -0.283 -23.131  16.247  1.00  0.00     0.180 C 
HETATM   31  O10 UNL     1      -1.315 -22.445  16.948  1.00  0.00    -0.353 OA
HETATM   32  C11 UNL     1      -1.440 -23.301  18.061  1.00  0.00     0.262 C 
HETATM   33  C17 UNL     1      -1.838 -24.567  17.254  1.00  0.00     0.198 C 
HETATM   34  C18 UNL     1      -0.717 -24.532  16.175  1.00  0.00     0.182 C 
BRANCH  32  35
HETATM   35  N3  UNL     1      -2.469 -22.830  18.904  1.00  0.00    -0.297 N 
HETATM   36  C12 UNL     1      -3.328 -21.773  18.703  1.00  0.00     0.188 A 
HETATM   37  N4  UNL     1      -4.170 -21.652  19.731  1.00  0.00    -0.346 N 
HETATM   38  C13 UNL     1      -3.860 -22.652  20.607  1.00  0.00     0.119 A 
ATOM     39  H4  UNL     1      -4.901 -20.950  19.840  1.00  0.00     0.167 HD
HETATM   40  C14 UNL     1      -4.395 -22.982  21.818  1.00  0.00     0.148 A 
HETATM   41  C16 UNL     1      -2.799 -23.368  20.075  1.00  0.00     0.142 A 
HETATM   42  N5  UNL     1      -5.508 -22.270  22.349  1.00  0.00    -0.080 NA
HETATM   43  N6  UNL     1      -3.883 -24.008  22.517  1.00  0.00    -0.339 N 
HETATM   44  C15 UNL     1      -2.853 -24.708  22.033  1.00  0.00     0.183 A 
ATOM     45  H6  UNL     1      -4.283 -24.255  23.423  1.00  0.00     0.167 HD
HETATM   46  N7  UNL     1      -2.326 -24.379  20.814  1.00  0.00    -0.336 N 
ATOM     47  H7  UNL     1      -1.542 -24.924  20.456  1.00  0.00     0.168 HD
ENDBRANCH  32  35
BRANCH  33  48
HETATM   48  O11 UNL     1      -1.881 -25.702  17.986  1.00  0.00    -0.388 OA
ATOM     49  H11 UNL     1      -1.129 -25.831  18.553  1.00  0.00     0.210 HD
ENDBRANCH  33  48
BRANCH  34  50
HETATM   50  O12 UNL     1       0.314 -25.376  16.692  1.00  0.00    -0.390 OA
ATOM     51  H12 UNL     1       0.924 -25.591  15.997  1.00  0.00     0.210 HD
ENDBRANCH  34  50
ENDBRANCH  29  30
ENDBRANCH  28  29
ENDBRANCH   1  28
TORSDOF 15
ENDMDL
