MODEL 16
REMARK VINA RESULT: -10.055859903      3.219      4.858
REMARK  15 active torsions:
REMARK  status: ('A' for Active; 'I' for Inactive)
REMARK    1  A    between atoms: C1_2  and  C2_4 
REMARK    2  A    between atoms: N2_8  and  C6_9 
REMARK    3  A    between atoms: C7_11  and  C8_12 
REMARK    4  A    between atoms: C8_12  and  O3_13 
REMARK    5  A    between atoms: O3_13  and  P1_14 
REMARK    6  A    between atoms: P1_14  and  O6_17 
REMARK    7  A    between atoms: O6_17  and  P2_18 
REMARK    8  A    between atoms: P2_18  and  O9_21 
REMARK    9  A    between atoms: O9_21  and  C9_22 
REMARK   10  A    between atoms: C9_22  and  C10_23 
REMARK   11  A    between atoms: C11_25  and  N3_26 
REMARK   12  A    between atoms: C17_39  and  O11_40 
REMARK   13  A    between atoms: C18_42  and  O12_43 
REMARK   14  A    between atoms: C19_45  and  O13_46 
REMARK   15  A    between atoms: C20_48  and  O14_49 
ROOT
HETATM    1  P2  UNL     1       2.000 -24.071  13.348  1.00  0.00     0.417 P 
HETATM    2  O7  UNL     1       2.350 -22.818  12.603  1.00  0.00    -0.624 OA
HETATM    3  O8  UNL     1       2.413 -25.383  12.267  1.00  0.00    -0.624 OA
ENDROOT
BRANCH   1   4
HETATM    4  O6  UNL     1       2.780 -24.251  14.748  1.00  0.00    -0.180 OA
BRANCH   4   5
HETATM    5  P1  UNL     1       4.137 -23.344  15.008  1.00  0.00     0.417 P 
HETATM    6  O4  UNL     1       5.091 -23.325  13.890  1.00  0.00    -0.624 OA
HETATM    7  O5  UNL     1       5.050 -24.162  16.318  1.00  0.00    -0.624 OA
BRANCH   5   8
HETATM    8  O3  UNL     1       3.759 -21.885  15.648  1.00  0.00    -0.287 OA
BRANCH   8   9
HETATM    9  C8  UNL     1       4.388 -20.797  15.003  1.00  0.00     0.216 C 
BRANCH   9  10
HETATM   10  C7  UNL     1       3.939 -19.627  15.931  1.00  0.00     0.180 C 
HETATM   11  O2  UNL     1       4.668 -18.507  15.616  1.00  0.00    -0.353 OA
HETATM   12  C6  UNL     1       3.855 -17.405  15.490  1.00  0.00     0.259 C 
HETATM   13  C20 UNL     1       2.584 -17.799  16.250  1.00  0.00     0.198 C 
HETATM   14  C19 UNL     1       2.510 -19.300  15.840  1.00  0.00     0.182 C 
BRANCH  12  15
HETATM   15  N2  UNL     1       3.482 -17.370  14.060  1.00  0.00    -0.336 N 
HETATM   16  C5  UNL     1       2.238 -17.089  13.666  1.00  0.00     0.093 A 
HETATM   17  C4  UNL     1       1.901 -17.183  12.316  1.00  0.00     0.018 A 
HETATM   18  C3  UNL     1       2.843 -17.566  11.406  1.00  0.00     0.019 A 
HETATM   19  C2  UNL     1       4.109 -17.849  11.847  1.00  0.00     0.044 A 
HETATM   20  C21 UNL     1       4.421 -17.748  13.185  1.00  0.00     0.110 A 
BRANCH  19  21
HETATM   21  C1  UNL     1       5.132 -18.305  10.926  1.00  0.00     0.266 C 
HETATM   22  N1  UNL     1       5.783 -17.382  10.075  1.00  0.00    -0.057 NA
HETATM   23  O1  UNL     1       5.488 -19.529  10.834  1.00  0.00    -0.271 OA
ENDBRANCH  19  21
ENDBRANCH  12  15
BRANCH  13  24
HETATM   24  O14 UNL     1       2.838 -17.806  17.621  1.00  0.00    -0.388 OA
ATOM     25  H14 UNL     1       2.967 -16.916  17.928  1.00  0.00     0.210 HD
ENDBRANCH  13  24
BRANCH  14  26
HETATM   26  O13 UNL     1       1.682 -20.002  16.724  1.00  0.00    -0.390 OA
ATOM     27  H13 UNL     1       1.645 -20.941  16.583  1.00  0.00     0.210 HD
ENDBRANCH  14  26
ENDBRANCH   9  10
ENDBRANCH   8   9
ENDBRANCH   5   8
ENDBRANCH   4   5
ENDBRANCH   1   4
BRANCH   1  28
HETATM   28  O9  UNL     1       0.272 -24.144  13.355  1.00  0.00    -0.287 OA
BRANCH  28  29
HETATM   29  C9  UNL     1      -0.031 -24.094  14.756  1.00  0.00     0.216 C 
BRANCH  29  30
HETATM   30  C10 UNL     1      -0.770 -22.857  15.039  1.00  0.00     0.180 C 
HETATM   31  O10 UNL     1      -1.576 -22.532  13.912  1.00  0.00    -0.353 OA
HETATM   32  C11 UNL     1      -2.229 -21.390  14.421  1.00  0.00     0.262 C 
HETATM   33  C17 UNL     1      -2.916 -22.110  15.614  1.00  0.00     0.198 C 
HETATM   34  C18 UNL     1      -1.683 -22.864  16.190  1.00  0.00     0.182 C 
BRANCH  32  35
HETATM   35  N3  UNL     1      -3.141 -20.902  13.462  1.00  0.00    -0.297 N 
HETATM   36  C12 UNL     1      -4.006 -21.611  12.661  1.00  0.00     0.188 A 
HETATM   37  N4  UNL     1      -4.713 -20.785  11.888  1.00  0.00    -0.346 N 
HETATM   38  C13 UNL     1      -4.308 -19.519  12.201  1.00  0.00     0.119 A 
ATOM     39  H4  UNL     1      -5.418 -21.048  11.200  1.00  0.00     0.167 HD
HETATM   40  C14 UNL     1      -4.693 -18.306  11.708  1.00  0.00     0.148 A 
HETATM   41  C16 UNL     1      -3.328 -19.617  13.177  1.00  0.00     0.142 A 
HETATM   42  N5  UNL     1      -5.724 -18.202  10.732  1.00  0.00    -0.080 NA
HETATM   43  N6  UNL     1      -4.109 -17.185  12.163  1.00  0.00    -0.339 N 
HETATM   44  C15 UNL     1      -3.154 -17.251  13.095  1.00  0.00     0.183 A 
ATOM     45  H6  UNL     1      -4.396 -16.278  11.794  1.00  0.00     0.167 HD
HETATM   46  N7  UNL     1      -2.778 -18.469  13.592  1.00  0.00    -0.336 N 
ATOM     47  H7  UNL     1      -2.049 -18.504  14.305  1.00  0.00     0.168 HD
ENDBRANCH  32  35
BRANCH  33  48
HETATM   48  O11 UNL     1      -3.527 -21.278  16.486  1.00  0.00    -0.388 OA
ATOM     49  H11 UNL     1      -2.953 -20.919  17.152  1.00  0.00     0.210 HD
ENDBRANCH  33  48
BRANCH  34  50
HETATM   50  O12 UNL     1      -1.171 -22.001  17.208  1.00  0.00    -0.390 OA
ATOM     51  H12 UNL     1      -0.610 -21.345  16.812  1.00  0.00     0.210 HD
ENDBRANCH  34  50
ENDBRANCH  29  30
ENDBRANCH  28  29
ENDBRANCH   1  28
TORSDOF 15
ENDMDL
