MODEL 4
REMARK VINA RESULT: -8.035830343      3.699      7.700
REMARK  14 active torsions:
REMARK  status: ('A' for Active; 'I' for Inactive)
REMARK    1  A    between atoms: N1_1  and  C1_5 
REMARK    2  A    between atoms: C1_5  and  C2_6 
REMARK    3  A    between atoms: C1_5  and  C17_35 
REMARK    4  A    between atoms: C2_6  and  C3_7 
REMARK    5  A    between atoms: C3_7  and  C4_8 
REMARK       I    between atoms: C4_8  and  N2_10 
REMARK    6  A    between atoms: N2_10  and  C5_12 
REMARK    7  A    between atoms: C5_12  and  C6_13 
REMARK    8  A    between atoms: C5_12  and  C14_27 
REMARK    9  A    between atoms: C6_13  and  S1_14 
REMARK   10  A    between atoms: S1_14  and  C7_15 
REMARK       I    between atoms: C7_15  and  N3_17 
REMARK   11  A    between atoms: N3_17  and  O3_18 
REMARK   12  A    between atoms: N3_17  and  C8_20 
REMARK       I    between atoms: C14_27  and  N4_29 
REMARK   13  A    between atoms: N4_29  and  C15_31 
REMARK   14  A    between atoms: C15_31  and  C16_32 
ROOT
HETATM    1  C5  UNL     1       1.845  -9.949  10.790  1.00  0.00     0.186 C 
ENDROOT
BRANCH   1   2
HETATM    2  N2  UNL     1       1.013 -11.164  10.766  1.00  0.00    -0.347 N 
HETATM    3  C4  UNL     1      -0.089 -11.278  11.646  1.00  0.00     0.218 C 
HETATM    4  O1  UNL     1      -0.291 -10.287  12.433  1.00  0.00    -0.274 OA
ATOM      5  H2  UNL     1       1.230 -11.921  10.117  1.00  0.00     0.163 HD
BRANCH   3   6
HETATM    6  C3  UNL     1      -0.979 -12.454  11.687  1.00  0.00     0.105 C 
BRANCH   6   7
HETATM    7  C2  UNL     1      -0.197 -13.723  12.014  1.00  0.00     0.053 C 
BRANCH   7   8
HETATM    8  C1  UNL     1       0.335 -13.532  13.420  1.00  0.00     0.283 C 
BRANCH   8   9
HETATM    9  N1  UNL     1       1.791 -13.567  13.370  1.00  0.00    -0.065 N 
ATOM     10  H13 UNL     1       2.221 -13.215  14.226  1.00  0.00     0.275 HD
ATOM     11  H12 UNL     1       2.162 -14.516  13.407  1.00  0.00     0.275 HD
ATOM     12  H11 UNL     1       2.097 -13.059  12.540  1.00  0.00     0.275 HD
ENDBRANCH   8   9
BRANCH   8  13
HETATM   13  C17 UNL     1      -0.204 -14.475  14.401  1.00  0.00     0.204 C 
HETATM   14  O7  UNL     1      -1.441 -14.633  14.492  1.00  0.00    -0.646 OA
HETATM   15  O8  UNL     1       0.649 -15.193  15.231  1.00  0.00    -0.646 OA
ENDBRANCH   8  13
ENDBRANCH   7   8
ENDBRANCH   6   7
ENDBRANCH   3   6
ENDBRANCH   1   2
BRANCH   1  16
HETATM   16  C6  UNL     1       3.276 -10.473  10.789  1.00  0.00     0.119 C 
BRANCH  16  17
HETATM   17  S1  UNL     1       3.398 -12.198  10.375  1.00  0.00    -0.064 SA
BRANCH  17  18
HETATM   18  C7  UNL     1       4.793 -12.988  11.087  1.00  0.00     0.310 C 
HETATM   19  O2  UNL     1       4.585 -13.838  11.999  1.00  0.00    -0.258 OA
HETATM   20  N3  UNL     1       6.115 -12.729  10.697  1.00  0.00    -0.182 N 
BRANCH  20  21
HETATM   21  O3  UNL     1       6.445 -11.756   9.817  1.00  0.00    -0.279 OA
ATOM     22  H3  UNL     1       6.453 -11.891   8.877  1.00  0.00     0.245 HD
ENDBRANCH  20  21
BRANCH  20  23
HETATM   23  C8  UNL     1       7.197 -13.504  11.268  1.00  0.00     0.067 A 
HETATM   24  C9  UNL     1       7.774 -14.543  10.589  1.00  0.00     0.033 A 
HETATM   25  C10 UNL     1       8.808 -15.259  11.174  1.00  0.00     0.020 A 
HETATM   26  C11 UNL     1       9.241 -14.909  12.437  1.00  0.00     0.006 A 
HETATM   27  I1  UNL     1      10.815 -15.954  13.396  1.00  0.00    -0.045 I 
HETATM   28  C12 UNL     1       8.649 -13.851  13.124  1.00  0.00     0.020 A 
HETATM   29  C13 UNL     1       7.622 -13.153  12.525  1.00  0.00     0.033 A 
ENDBRANCH  20  23
ENDBRANCH  17  18
ENDBRANCH  16  17
ENDBRANCH   1  16
BRANCH   1  30
HETATM   30  C14 UNL     1       1.572  -9.218   9.531  1.00  0.00     0.241 C 
HETATM   31  O4  UNL     1       1.017  -9.811   8.585  1.00  0.00    -0.271 OA
HETATM   32  N4  UNL     1       1.919  -7.867   9.364  1.00  0.00    -0.349 N 
ATOM     33  H4  UNL     1       2.372  -7.376  10.135  1.00  0.00     0.163 HD
BRANCH  32  34
HETATM   34  C15 UNL     1       1.654  -7.138   8.117  1.00  0.00     0.235 C 
BRANCH  34  35
HETATM   35  C16 UNL     1       1.190  -5.760   8.441  1.00  0.00     0.191 C 
HETATM   36  O5  UNL     1       0.965  -5.464   9.640  1.00  0.00    -0.647 OA
HETATM   37  O6  UNL     1       1.014  -4.836   7.429  1.00  0.00    -0.647 OA
ENDBRANCH  34  35
ENDBRANCH  32  34
ENDBRANCH   1  30
TORSDOF 14
ENDMDL
