MODEL 1
REMARK VINA RESULT: -8.202076912      0.000      0.000
REMARK  14 active torsions:
REMARK  status: ('A' for Active; 'I' for Inactive)
REMARK    1  A    between atoms: N1_1  and  C1_5 
REMARK    2  A    between atoms: C1_5  and  C2_6 
REMARK    3  A    between atoms: C1_5  and  C17_35 
REMARK    4  A    between atoms: C2_6  and  C3_7 
REMARK    5  A    between atoms: C3_7  and  C4_8 
REMARK       I    between atoms: C4_8  and  N2_10 
REMARK    6  A    between atoms: N2_10  and  C5_12 
REMARK    7  A    between atoms: C5_12  and  C6_13 
REMARK    8  A    between atoms: C5_12  and  C14_27 
REMARK    9  A    between atoms: C6_13  and  S1_14 
REMARK   10  A    between atoms: S1_14  and  C7_15 
REMARK       I    between atoms: C7_15  and  N3_17 
REMARK   11  A    between atoms: N3_17  and  O3_18 
REMARK   12  A    between atoms: N3_17  and  C8_20 
REMARK       I    between atoms: C14_27  and  N4_29 
REMARK   13  A    between atoms: N4_29  and  C15_31 
REMARK   14  A    between atoms: C15_31  and  C16_32 
ROOT
HETATM    1  C5  UNL     1       2.928 -12.001  11.115  1.00  0.00     0.186 C 
ENDROOT
BRANCH   1   2
HETATM    2  N2  UNL     1       2.029 -13.102  11.505  1.00  0.00    -0.347 N 
HETATM    3  C4  UNL     1       1.931 -14.252  10.687  1.00  0.00     0.218 C 
HETATM    4  O1  UNL     1       2.650 -14.256   9.626  1.00  0.00    -0.274 OA
ATOM      5  H2  UNL     1       1.479 -13.034  12.362  1.00  0.00     0.163 HD
BRANCH   3   6
HETATM    6  C3  UNL     1       1.063 -15.402  11.003  1.00  0.00     0.105 C 
BRANCH   6   7
HETATM    7  C2  UNL     1      -0.073 -14.992  11.937  1.00  0.00     0.053 C 
BRANCH   7   8
HETATM    8  C1  UNL     1       0.192 -15.704  13.248  1.00  0.00     0.283 C 
BRANCH   8   9
HETATM    9  N1  UNL     1      -0.338 -17.059  13.151  1.00  0.00    -0.065 N 
ATOM     10  H13 UNL     1      -0.671 -17.413  14.048  1.00  0.00     0.275 HD
ATOM     11  H12 UNL     1      -1.224 -17.098  12.648  1.00  0.00     0.275 HD
ATOM     12  H11 UNL     1       0.377 -17.655  12.734  1.00  0.00     0.275 HD
ENDBRANCH   8   9
BRANCH   8  13
HETATM   13  C17 UNL     1      -0.311 -15.000  14.428  1.00  0.00     0.204 C 
HETATM   14  O7  UNL     1       0.125 -13.860  14.700  1.00  0.00    -0.646 OA
HETATM   15  O8  UNL     1      -1.267 -15.589  15.247  1.00  0.00    -0.646 OA
ENDBRANCH   8  13
ENDBRANCH   7   8
ENDBRANCH   6   7
ENDBRANCH   3   6
ENDBRANCH   1   2
BRANCH   1  16
HETATM   16  C6  UNL     1       2.554 -10.859  12.052  1.00  0.00     0.119 C 
BRANCH  16  17
HETATM   17  S1  UNL     1       1.074 -10.001  11.566  1.00  0.00    -0.064 SA
BRANCH  17  18
HETATM   18  C7  UNL     1       1.120  -9.417   9.913  1.00  0.00     0.310 C 
HETATM   19  O2  UNL     1       0.871 -10.245   8.989  1.00  0.00    -0.258 OA
HETATM   20  N3  UNL     1       1.411  -8.090   9.565  1.00  0.00    -0.182 N 
BRANCH  20  21
HETATM   21  O3  UNL     1       1.804  -7.163  10.469  1.00  0.00    -0.279 OA
ATOM     22  H3  UNL     1       1.572  -6.244  10.400  1.00  0.00     0.245 HD
ENDBRANCH  20  21
BRANCH  20  23
HETATM   23  C8  UNL     1       1.324  -7.675   8.181  1.00  0.00     0.067 A 
HETATM   24  C9  UNL     1       2.026  -8.312   7.193  1.00  0.00     0.033 A 
HETATM   25  C10 UNL     1       1.914  -7.882   5.880  1.00  0.00     0.020 A 
HETATM   26  C11 UNL     1       1.092  -6.812   5.588  1.00  0.00     0.006 A 
HETATM   27  I1  UNL     1       0.867  -6.097   3.606  1.00  0.00    -0.045 I 
HETATM   28  C12 UNL     1       0.380  -6.166   6.598  1.00  0.00     0.020 A 
HETATM   29  C13 UNL     1       0.506  -6.610   7.897  1.00  0.00     0.033 A 
ENDBRANCH  20  23
ENDBRANCH  17  18
ENDBRANCH  16  17
ENDBRANCH   1  16
BRANCH   1  30
HETATM   30  C14 UNL     1       4.308 -12.457  11.397  1.00  0.00     0.241 C 
HETATM   31  O4  UNL     1       4.657 -12.668  12.575  1.00  0.00    -0.271 OA
HETATM   32  N4  UNL     1       5.249 -12.661  10.373  1.00  0.00    -0.349 N 
ATOM     33  H4  UNL     1       4.969 -12.492   9.406  1.00  0.00     0.163 HD
BRANCH  32  34
HETATM   34  C15 UNL     1       6.620 -13.109  10.646  1.00  0.00     0.235 C 
BRANCH  34  35
HETATM   35  C16 UNL     1       7.081 -13.990   9.536  1.00  0.00     0.191 C 
HETATM   36  O5  UNL     1       6.807 -13.667   8.354  1.00  0.00    -0.647 OA
HETATM   37  O6  UNL     1       7.798 -15.137   9.819  1.00  0.00    -0.647 OA
ENDBRANCH  34  35
ENDBRANCH  32  34
ENDBRANCH   1  30
TORSDOF 14
ENDMDL
