MODEL 3
REMARK VINA RESULT: -8.109743120      3.689      7.732
REMARK  14 active torsions:
REMARK  status: ('A' for Active; 'I' for Inactive)
REMARK    1  A    between atoms: N1_1  and  C1_5 
REMARK    2  A    between atoms: C1_5  and  C2_6 
REMARK    3  A    between atoms: C1_5  and  C17_35 
REMARK    4  A    between atoms: C2_6  and  C3_7 
REMARK    5  A    between atoms: C3_7  and  C4_8 
REMARK       I    between atoms: C4_8  and  N2_10 
REMARK    6  A    between atoms: N2_10  and  C5_12 
REMARK    7  A    between atoms: C5_12  and  C6_13 
REMARK    8  A    between atoms: C5_12  and  C14_27 
REMARK    9  A    between atoms: C6_13  and  S1_14 
REMARK   10  A    between atoms: S1_14  and  C7_15 
REMARK       I    between atoms: C7_15  and  N3_17 
REMARK   11  A    between atoms: N3_17  and  O3_18 
REMARK   12  A    between atoms: N3_17  and  C8_20 
REMARK       I    between atoms: C14_27  and  N4_29 
REMARK   13  A    between atoms: N4_29  and  C15_31 
REMARK   14  A    between atoms: C15_31  and  C16_32 
ROOT
HETATM    1  C5  UNL     1       1.815  -9.976  10.814  1.00  0.00     0.186 C 
ENDROOT
BRANCH   1   2
HETATM    2  N2  UNL     1       1.021 -11.218  10.837  1.00  0.00    -0.347 N 
HETATM    3  C4  UNL     1      -0.096 -11.321  11.699  1.00  0.00     0.218 C 
HETATM    4  O1  UNL     1      -0.345 -10.298  12.429  1.00  0.00    -0.274 OA
ATOM      5  H2  UNL     1       1.277 -12.000  10.233  1.00  0.00     0.163 HD
BRANCH   3   6
HETATM    6  C3  UNL     1      -0.949 -12.521  11.783  1.00  0.00     0.105 C 
BRANCH   6   7
HETATM    7  C2  UNL     1      -0.116 -13.769  12.063  1.00  0.00     0.053 C 
BRANCH   7   8
HETATM    8  C1  UNL     1       0.433 -13.595  13.465  1.00  0.00     0.283 C 
BRANCH   8   9
HETATM    9  N1  UNL     1       1.888 -13.660  13.401  1.00  0.00    -0.065 N 
ATOM     10  H13 UNL     1       2.275 -14.373  14.020  1.00  0.00     0.275 HD
ATOM     11  H12 UNL     1       2.225 -14.045  12.518  1.00  0.00     0.275 HD
ATOM     12  H11 UNL     1       2.261 -12.730  13.590  1.00  0.00     0.275 HD
ENDBRANCH   8   9
BRANCH   8  13
HETATM   13  C17 UNL     1      -0.116 -14.530  14.448  1.00  0.00     0.204 C 
HETATM   14  O7  UNL     1       0.655 -15.135  15.223  1.00  0.00    -0.646 OA
HETATM   15  O8  UNL     1      -1.487 -14.750  14.523  1.00  0.00    -0.646 OA
ENDBRANCH   8  13
ENDBRANCH   7   8
ENDBRANCH   6   7
ENDBRANCH   3   6
ENDBRANCH   1   2
BRANCH   1  16
HETATM   16  C6  UNL     1       3.260 -10.455  10.742  1.00  0.00     0.119 C 
BRANCH  16  17
HETATM   17  S1  UNL     1       3.414 -12.192  10.390  1.00  0.00    -0.064 SA
BRANCH  17  18
HETATM   18  C7  UNL     1       4.816 -12.932  11.140  1.00  0.00     0.310 C 
HETATM   19  O2  UNL     1       4.616 -13.743  12.089  1.00  0.00    -0.258 OA
HETATM   20  N3  UNL     1       6.136 -12.676  10.742  1.00  0.00    -0.182 N 
BRANCH  20  21
HETATM   21  O3  UNL     1       6.456 -11.738   9.820  1.00  0.00    -0.279 OA
ATOM     22  H3  UNL     1       7.352 -11.474   9.643  1.00  0.00     0.245 HD
ENDBRANCH  20  21
BRANCH  20  23
HETATM   23  C8  UNL     1       7.225 -13.411  11.349  1.00  0.00     0.067 A 
HETATM   24  C9  UNL     1       7.678 -13.117  12.608  1.00  0.00     0.033 A 
HETATM   25  C10 UNL     1       8.723 -13.846  13.152  1.00  0.00     0.020 A 
HETATM   26  C11 UNL     1       9.294 -14.863  12.413  1.00  0.00     0.006 A 
HETATM   27  I1  UNL     1      10.895 -16.022  13.177  1.00  0.00    -0.045 I 
HETATM   28  C12 UNL     1       8.830 -15.157  11.132  1.00  0.00     0.020 A 
HETATM   29  C13 UNL     1       7.789 -14.419  10.610  1.00  0.00     0.033 A 
ENDBRANCH  20  23
ENDBRANCH  17  18
ENDBRANCH  16  17
ENDBRANCH   1  16
BRANCH   1  30
HETATM   30  C14 UNL     1       1.455  -9.261   9.569  1.00  0.00     0.241 C 
HETATM   31  O4  UNL     1       0.982  -9.900   8.609  1.00  0.00    -0.271 OA
HETATM   32  N4  UNL     1       1.629  -7.874   9.430  1.00  0.00    -0.349 N 
ATOM     33  H4  UNL     1       2.014  -7.345  10.213  1.00  0.00     0.163 HD
BRANCH  32  34
HETATM   34  C15 UNL     1       1.277  -7.159   8.197  1.00  0.00     0.235 C 
BRANCH  34  35
HETATM   35  C16 UNL     1       1.137  -5.706   8.492  1.00  0.00     0.191 C 
HETATM   36  O5  UNL     1       0.915  -5.347   9.675  1.00  0.00    -0.647 OA
HETATM   37  O6  UNL     1       1.253  -4.780   7.471  1.00  0.00    -0.647 OA
ENDBRANCH  34  35
ENDBRANCH  32  34
ENDBRANCH   1  30
TORSDOF 14
ENDMDL
