MODEL 5
REMARK VINA RESULT: -7.928582897      3.938      7.871
REMARK  14 active torsions:
REMARK  status: ('A' for Active; 'I' for Inactive)
REMARK    1  A    between atoms: N1_1  and  C1_5 
REMARK    2  A    between atoms: C1_5  and  C2_6 
REMARK    3  A    between atoms: C1_5  and  C17_35 
REMARK    4  A    between atoms: C2_6  and  C3_7 
REMARK    5  A    between atoms: C3_7  and  C4_8 
REMARK       I    between atoms: C4_8  and  N2_10 
REMARK    6  A    between atoms: N2_10  and  C5_12 
REMARK    7  A    between atoms: C5_12  and  C6_13 
REMARK    8  A    between atoms: C5_12  and  C14_27 
REMARK    9  A    between atoms: C6_13  and  S1_14 
REMARK   10  A    between atoms: S1_14  and  C7_15 
REMARK       I    between atoms: C7_15  and  N3_17 
REMARK   11  A    between atoms: N3_17  and  O3_18 
REMARK   12  A    between atoms: N3_17  and  C8_20 
REMARK       I    between atoms: C14_27  and  N4_29 
REMARK   13  A    between atoms: N4_29  and  C15_31 
REMARK   14  A    between atoms: C15_31  and  C16_32 
ROOT
HETATM    1  C5  UNL     1       2.048 -10.040  10.758  1.00  0.00     0.186 C 
ENDROOT
BRANCH   1   2
HETATM    2  N2  UNL     1       1.170 -11.222  10.804  1.00  0.00    -0.347 N 
HETATM    3  C4  UNL     1       0.030 -11.219  11.643  1.00  0.00     0.218 C 
HETATM    4  O1  UNL     1      -0.163 -10.156  12.332  1.00  0.00    -0.274 OA
ATOM      5  H2  UNL     1       1.383 -12.040  10.233  1.00  0.00     0.163 HD
BRANCH   3   6
HETATM    6  C3  UNL     1      -0.905 -12.354  11.748  1.00  0.00     0.105 C 
BRANCH   6   7
HETATM    7  C2  UNL     1      -0.163 -13.650  12.066  1.00  0.00     0.053 C 
BRANCH   7   8
HETATM    8  C1  UNL     1       0.314 -13.513  13.497  1.00  0.00     0.283 C 
BRANCH   8   9
HETATM    9  N1  UNL     1       1.771 -13.538  13.501  1.00  0.00    -0.065 N 
ATOM     10  H13 UNL     1       2.179 -12.604  13.456  1.00  0.00     0.275 HD
ATOM     11  H12 UNL     1       2.156 -13.815  14.404  1.00  0.00     0.275 HD
ATOM     12  H11 UNL     1       2.085 -14.141  12.741  1.00  0.00     0.275 HD
ENDBRANCH   8   9
BRANCH   8  13
HETATM   13  C17 UNL     1      -0.255 -14.498  14.419  1.00  0.00     0.204 C 
HETATM   14  O7  UNL     1      -1.493 -14.672  14.450  1.00  0.00    -0.646 OA
HETATM   15  O8  UNL     1       0.569 -15.238  15.258  1.00  0.00    -0.646 OA
ENDBRANCH   8  13
ENDBRANCH   7   8
ENDBRANCH   6   7
ENDBRANCH   3   6
ENDBRANCH   1   2
BRANCH   1  16
HETATM   16  C6  UNL     1       3.452 -10.618  10.636  1.00  0.00     0.119 C 
BRANCH  16  17
HETATM   17  S1  UNL     1       3.472 -12.373  10.348  1.00  0.00    -0.064 SA
BRANCH  17  18
HETATM   18  C7  UNL     1       4.822 -13.188  11.116  1.00  0.00     0.310 C 
HETATM   19  O2  UNL     1       5.554 -13.924  10.393  1.00  0.00    -0.258 OA
HETATM   20  N3  UNL     1       5.132 -13.063  12.478  1.00  0.00    -0.182 N 
BRANCH  20  21
HETATM   21  O3  UNL     1       4.343 -12.397  13.353  1.00  0.00    -0.279 OA
ATOM     22  H3  UNL     1       4.626 -11.614  13.811  1.00  0.00     0.245 HD
ENDBRANCH  20  21
BRANCH  20  23
HETATM   23  C8  UNL     1       6.326 -13.690  13.004  1.00  0.00     0.067 A 
HETATM   24  C9  UNL     1       7.560 -13.113  12.870  1.00  0.00     0.033 A 
HETATM   25  C10 UNL     1       8.678 -13.748  13.388  1.00  0.00     0.020 A 
HETATM   26  C11 UNL     1       8.528 -14.958  14.036  1.00  0.00     0.006 A 
HETATM   27  I1  UNL     1      10.187 -15.989  14.856  1.00  0.00    -0.045 I 
HETATM   28  C12 UNL     1       7.269 -15.541  14.169  1.00  0.00     0.020 A 
HETATM   29  C13 UNL     1       6.171 -14.893  13.646  1.00  0.00     0.033 A 
ENDBRANCH  20  23
ENDBRANCH  17  18
ENDBRANCH  16  17
ENDBRANCH   1  16
BRANCH   1  30
HETATM   30  C14 UNL     1       1.697  -9.294   9.528  1.00  0.00     0.241 C 
HETATM   31  O4  UNL     1       1.064  -9.870   8.620  1.00  0.00    -0.271 OA
HETATM   32  N4  UNL     1       2.056  -7.948   9.345  1.00  0.00    -0.349 N 
ATOM     33  H4  UNL     1       2.572  -7.471  10.084  1.00  0.00     0.163 HD
BRANCH  32  34
HETATM   34  C15 UNL     1       1.714  -7.205   8.125  1.00  0.00     0.235 C 
BRANCH  34  35
HETATM   35  C16 UNL     1       1.320  -5.815   8.489  1.00  0.00     0.191 C 
HETATM   36  O5  UNL     1       1.019  -5.565   9.682  1.00  0.00    -0.647 OA
HETATM   37  O6  UNL     1       1.291  -4.830   7.520  1.00  0.00    -0.647 OA
ENDBRANCH  34  35
ENDBRANCH  32  34
ENDBRANCH   1  30
TORSDOF 14
ENDMDL
