MODEL 8
REMARK VINA RESULT: -7.846125671      1.241      1.503
REMARK  14 active torsions:
REMARK  status: ('A' for Active; 'I' for Inactive)
REMARK    1  A    between atoms: N1_1  and  C1_5 
REMARK    2  A    between atoms: C1_5  and  C2_6 
REMARK    3  A    between atoms: C1_5  and  C17_35 
REMARK    4  A    between atoms: C2_6  and  C3_7 
REMARK    5  A    between atoms: C3_7  and  C4_8 
REMARK       I    between atoms: C4_8  and  N2_10 
REMARK    6  A    between atoms: N2_10  and  C5_12 
REMARK    7  A    between atoms: C5_12  and  C6_13 
REMARK    8  A    between atoms: C5_12  and  C14_27 
REMARK    9  A    between atoms: C6_13  and  S1_14 
REMARK   10  A    between atoms: S1_14  and  C7_15 
REMARK       I    between atoms: C7_15  and  N3_17 
REMARK   11  A    between atoms: N3_17  and  O3_18 
REMARK   12  A    between atoms: N3_17  and  C8_20 
REMARK       I    between atoms: C14_27  and  N4_29 
REMARK   13  A    between atoms: N4_29  and  C15_31 
REMARK   14  A    between atoms: C15_31  and  C16_32 
ROOT
HETATM    1  C5  UNL     1       2.853 -12.021  11.694  1.00  0.00     0.186 C 
ENDROOT
BRANCH   1   2
HETATM    2  N2  UNL     1       1.534 -12.565  12.063  1.00  0.00    -0.347 N 
HETATM    3  C4  UNL     1       1.002 -13.664  11.349  1.00  0.00     0.218 C 
HETATM    4  O1  UNL     1       1.724 -14.123  10.395  1.00  0.00    -0.274 OA
ATOM      5  H2  UNL     1       1.006 -12.150  12.832  1.00  0.00     0.163 HD
BRANCH   3   6
HETATM    6  C3  UNL     1      -0.305 -14.275  11.653  1.00  0.00     0.105 C 
BRANCH   6   7
HETATM    7  C2  UNL     1      -0.147 -15.740  12.054  1.00  0.00     0.053 C 
BRANCH   7   8
HETATM    8  C1  UNL     1       0.603 -15.729  13.370  1.00  0.00     0.283 C 
BRANCH   8   9
HETATM    9  N1  UNL     1       0.938 -17.104  13.720  1.00  0.00    -0.065 N 
ATOM     10  H13 UNL     1       0.625 -17.774  13.017  1.00  0.00     0.275 HD
ATOM     11  H12 UNL     1       1.938 -17.293  13.655  1.00  0.00     0.275 HD
ATOM     12  H11 UNL     1       0.562 -17.302  14.647  1.00  0.00     0.275 HD
ENDBRANCH   8   9
BRANCH   8  13
HETATM   13  C17 UNL     1      -0.096 -15.042  14.457  1.00  0.00     0.204 C 
HETATM   14  O7  UNL     1       0.282 -13.905  14.814  1.00  0.00    -0.646 OA
HETATM   15  O8  UNL     1      -1.175 -15.644  15.095  1.00  0.00    -0.646 OA
ENDBRANCH   8  13
ENDBRANCH   7   8
ENDBRANCH   6   7
ENDBRANCH   3   6
ENDBRANCH   1   2
BRANCH   1  16
HETATM   16  C6  UNL     1       2.727 -10.524  11.950  1.00  0.00     0.119 C 
BRANCH  16  17
HETATM   17  S1  UNL     1       1.171  -9.844  11.423  1.00  0.00    -0.064 SA
BRANCH  17  18
HETATM   18  C7  UNL     1       1.190  -9.264   9.768  1.00  0.00     0.310 C 
HETATM   19  O2  UNL     1       1.014 -10.111   8.846  1.00  0.00    -0.258 OA
HETATM   20  N3  UNL     1       1.384  -7.920   9.418  1.00  0.00    -0.182 N 
BRANCH  20  21
HETATM   21  O3  UNL     1       1.697  -6.963  10.322  1.00  0.00    -0.279 OA
ATOM     22  H3  UNL     1       1.277  -6.111  10.338  1.00  0.00     0.245 HD
ENDBRANCH  20  21
BRANCH  20  23
HETATM   23  C8  UNL     1       1.281  -7.516   8.031  1.00  0.00     0.067 A 
HETATM   24  C9  UNL     1       1.991  -8.146   7.045  1.00  0.00     0.033 A 
HETATM   25  C10 UNL     1       1.863  -7.728   5.729  1.00  0.00     0.020 A 
HETATM   26  C11 UNL     1       1.015  -6.679   5.434  1.00  0.00     0.006 A 
HETATM   27  I1  UNL     1       0.765  -5.983   3.448  1.00  0.00    -0.045 I 
HETATM   28  C12 UNL     1       0.295  -6.042   6.443  1.00  0.00     0.020 A 
HETATM   29  C13 UNL     1       0.438  -6.473   7.744  1.00  0.00     0.033 A 
ENDBRANCH  20  23
ENDBRANCH  17  18
ENDBRANCH  16  17
ENDBRANCH   1  16
BRANCH   1  30
HETATM   30  C14 UNL     1       3.837 -12.615  12.627  1.00  0.00     0.241 C 
HETATM   31  O4  UNL     1       3.633 -12.553  13.856  1.00  0.00    -0.271 OA
HETATM   32  N4  UNL     1       5.003 -13.253  12.173  1.00  0.00    -0.349 N 
ATOM     33  H4  UNL     1       5.175 -13.309  11.169  1.00  0.00     0.163 HD
BRANCH  32  34
HETATM   34  C15 UNL     1       5.985 -13.840  13.094  1.00  0.00     0.235 C 
BRANCH  34  35
HETATM   35  C16 UNL     1       7.358 -13.469  12.653  1.00  0.00     0.191 C 
HETATM   36  O5  UNL     1       8.169 -13.030  13.505  1.00  0.00    -0.647 OA
HETATM   37  O6  UNL     1       7.719 -13.612  11.326  1.00  0.00    -0.647 OA
ENDBRANCH  34  35
ENDBRANCH  32  34
ENDBRANCH   1  30
TORSDOF 14
ENDMDL
