MODEL 11
REMARK VINA RESULT: -7.669909405      7.148      9.576
REMARK  6 active torsions:
REMARK  status: ('A' for Active; 'I' for Inactive)
REMARK    1  A    between atoms: N4_10  and  C5_11 
REMARK    2  A    between atoms: C6_13  and  C7_14 
REMARK    3  A    between atoms: C7_14  and  O2_15 
REMARK    4  A    between atoms: O2_15  and  P1_16 
REMARK    5  A    between atoms: C8_20  and  O6_21 
REMARK    6  A    between atoms: C9_23  and  O7_24 
ROOT
HETATM    1  C5  UNL     1      65.878  96.488 119.029  1.00  0.00     0.262 C 
HETATM    2  O1  UNL     1      65.001  96.962 118.056  1.00  0.00    -0.353 OA
HETATM    3  C6  UNL     1      64.458  98.079 118.709  1.00  0.00     0.180 C 
HETATM    4  C8  UNL     1      65.715  98.836 119.063  1.00  0.00     0.182 C 
HETATM    5  C9  UNL     1      66.582  97.706 119.590  1.00  0.00     0.198 C 
ENDROOT
BRANCH   1   6
HETATM    6  N4  UNL     1      66.844  95.568 118.516  1.00  0.00    -0.297 N 
HETATM    7  C2  UNL     1      67.276  94.419 119.086  1.00  0.00     0.146 A 
HETATM    8  N2  UNL     1      66.904  93.885 120.252  1.00  0.00    -0.314 N 
HETATM    9  C3  UNL     1      68.209  93.854 118.240  1.00  0.00     0.146 A 
HETATM   10  C1  UNL     1      67.477  92.711 120.630  1.00  0.00     0.196 A 
ATOM     11  H2  UNL     1      66.209  94.345 120.842  1.00  0.00     0.170 HD
HETATM   12  N1  UNL     1      67.154  92.063 121.839  1.00  0.00    -0.063 NA
HETATM   13  N5  UNL     1      68.388  92.147 119.815  1.00  0.00    -0.295 N 
HETATM   14  C10 UNL     1      68.774  92.660 118.652  1.00  0.00     0.278 A 
ATOM     15  H5  UNL     1      68.811  91.267 120.111  1.00  0.00     0.171 HD
HETATM   16  O8  UNL     1      69.624  92.134 117.892  1.00  0.00    -0.265 OA
HETATM   17  N3  UNL     1      68.314  94.664 117.195  1.00  0.00    -0.345 N 
HETATM   18  C4  UNL     1      67.490  95.715 117.345  1.00  0.00     0.188 A 
ATOM     19  H3  UNL     1      68.928  94.512 116.395  1.00  0.00     0.167 HD
ENDBRANCH   1   6
BRANCH   5  20
HETATM   20  O7  UNL     1      66.491  97.717 120.985  1.00  0.00    -0.388 OA
ATOM     21  H7  UNL     1      65.605  97.930 121.254  1.00  0.00     0.210 HD
ENDBRANCH   5  20
BRANCH   3  22
HETATM   22  C7  UNL     1      63.535  98.858 117.821  1.00  0.00     0.217 C 
BRANCH  22  23
HETATM   23  O2  UNL     1      64.071 100.091 117.587  1.00  0.00    -0.280 OA
BRANCH  23  24
HETATM   24  P1  UNL     1      63.490 100.744 116.212  1.00  0.00     0.422 P 
HETATM   25  O3  UNL     1      63.698  99.472 115.406  1.00  0.00    -0.617 OA
HETATM   26  O4  UNL     1      61.872 100.832 115.897  1.00  0.00    -0.617 OA
HETATM   27  O5  UNL     1      64.521 101.574 115.181  1.00  0.00    -0.617 OA
ENDBRANCH  23  24
ENDBRANCH  22  23
ENDBRANCH   3  22
BRANCH   4  28
HETATM   28  O6  UNL     1      65.497  99.806 120.033  1.00  0.00    -0.390 OA
ATOM     29  H6  UNL     1      65.995  99.646 120.825  1.00  0.00     0.210 HD
ENDBRANCH   4  28
TORSDOF 6
ENDMDL
