MODEL 9
REMARK VINA RESULT: -7.739616579      6.625      9.921
REMARK  6 active torsions:
REMARK  status: ('A' for Active; 'I' for Inactive)
REMARK    1  A    between atoms: N4_10  and  C5_11 
REMARK    2  A    between atoms: C6_13  and  C7_14 
REMARK    3  A    between atoms: C7_14  and  O2_15 
REMARK    4  A    between atoms: O2_15  and  P1_16 
REMARK    5  A    between atoms: C8_20  and  O6_21 
REMARK    6  A    between atoms: C9_23  and  O7_24 
ROOT
HETATM    1  C5  UNL     1      63.758  96.410 117.979  1.00  0.00     0.262 C 
HETATM    2  O1  UNL     1      64.167  95.287 118.696  1.00  0.00    -0.353 OA
HETATM    3  C6  UNL     1      65.425  95.049 118.123  1.00  0.00     0.180 C 
HETATM    4  C8  UNL     1      66.086  96.391 118.329  1.00  0.00     0.182 C 
HETATM    5  C9  UNL     1      64.964  97.323 117.904  1.00  0.00     0.198 C 
ENDROOT
BRANCH   1   6
HETATM    6  N4  UNL     1      62.668  97.102 118.591  1.00  0.00    -0.297 N 
HETATM    7  C2  UNL     1      61.914  98.093 118.060  1.00  0.00     0.146 A 
HETATM    8  N2  UNL     1      62.016  98.649 116.850  1.00  0.00    -0.314 N 
HETATM    9  C3  UNL     1      60.979  98.463 119.005  1.00  0.00     0.146 A 
HETATM   10  C1  UNL     1      61.143  99.641 116.526  1.00  0.00     0.196 A 
ATOM     11  H2  UNL     1      62.728  98.339 116.188  1.00  0.00     0.170 HD
HETATM   12  N1  UNL     1      61.163 100.292 115.278  1.00  0.00    -0.063 NA
HETATM   13  N5  UNL     1      60.225 100.012 117.437  1.00  0.00    -0.295 N 
HETATM   14  C10 UNL     1      60.105  99.473 118.646  1.00  0.00     0.278 A 
ATOM     15  H5  UNL     1      59.577 100.757 117.182  1.00  0.00     0.171 HD
HETATM   16  O8  UNL     1      59.248  99.821 119.495  1.00  0.00    -0.265 OA
HETATM   17  N3  UNL     1      61.187  97.696 120.067  1.00  0.00    -0.345 N 
HETATM   18  C4  UNL     1      62.213  96.860 119.835  1.00  0.00     0.188 A 
ATOM     19  H3  UNL     1      60.648  97.734 120.932  1.00  0.00     0.167 HD
ENDBRANCH   1   6
BRANCH   5  20
HETATM   20  O7  UNL     1      65.204  97.696 116.577  1.00  0.00    -0.388 OA
ATOM     21  H7  UNL     1      66.091  97.464 116.326  1.00  0.00     0.210 HD
ENDBRANCH   5  20
BRANCH   3  22
HETATM   22  C7  UNL     1      66.153  93.929 118.803  1.00  0.00     0.217 C 
BRANCH  22  23
HETATM   23  O2  UNL     1      66.946  93.291 117.895  1.00  0.00    -0.280 OA
BRANCH  23  24
HETATM   24  P1  UNL     1      68.525  93.444 118.269  1.00  0.00     0.422 P 
HETATM   25  O3  UNL     1      68.869  94.126 116.954  1.00  0.00    -0.617 OA
HETATM   26  O4  UNL     1      69.090  94.681 119.205  1.00  0.00    -0.617 OA
HETATM   27  O5  UNL     1      69.592  92.200 117.910  1.00  0.00    -0.617 OA
ENDBRANCH  23  24
ENDBRANCH  22  23
ENDBRANCH   3  22
BRANCH   4  28
HETATM   28  O6  UNL     1      67.214  96.557 117.536  1.00  0.00    -0.390 OA
ATOM     29  H6  UNL     1      67.075  97.177 116.830  1.00  0.00     0.210 HD
ENDBRANCH   4  28
TORSDOF 6
ENDMDL
