MODEL 3
REMARK VINA RESULT: -8.348984627      1.582      2.743
REMARK  6 active torsions:
REMARK  status: ('A' for Active; 'I' for Inactive)
REMARK    1  A    between atoms: N4_10  and  C5_11 
REMARK    2  A    between atoms: C6_13  and  C7_14 
REMARK    3  A    between atoms: C7_14  and  O2_15 
REMARK    4  A    between atoms: O2_15  and  P1_16 
REMARK    5  A    between atoms: C8_20  and  O6_21 
REMARK    6  A    between atoms: C9_23  and  O7_24 
ROOT
HETATM    1  C5  UNL     1      60.799 103.435 115.890  1.00  0.00     0.262 C 
HETATM    2  O1  UNL     1      60.619 104.814 115.809  1.00  0.00    -0.353 OA
HETATM    3  C6  UNL     1      61.884 105.271 116.207  1.00  0.00     0.180 C 
HETATM    4  C8  UNL     1      62.768 104.539 115.226  1.00  0.00     0.182 C 
HETATM    5  C9  UNL     1      62.155 103.151 115.279  1.00  0.00     0.198 C 
ENDROOT
BRANCH   1   6
HETATM    6  N4  UNL     1      59.793 102.694 115.195  1.00  0.00    -0.297 N 
HETATM    7  C2  UNL     1      59.582 101.357 115.224  1.00  0.00     0.146 A 
HETATM    8  N2  UNL     1      60.260 100.429 115.902  1.00  0.00    -0.314 N 
HETATM    9  C3  UNL     1      58.506 101.084 114.403  1.00  0.00     0.146 A 
HETATM   10  C1  UNL     1      59.868  99.132 115.779  1.00  0.00     0.196 A 
ATOM     11  H2  UNL     1      61.050 100.685 116.495  1.00  0.00     0.170 HD
HETATM   12  N1  UNL     1      60.514  98.076 116.451  1.00  0.00    -0.063 NA
HETATM   13  N5  UNL     1      58.820  98.850 114.983  1.00  0.00    -0.295 N 
HETATM   14  C10 UNL     1      58.131  99.756 114.299  1.00  0.00     0.278 A 
ATOM     15  H5  UNL     1      58.537  97.874 114.898  1.00  0.00     0.171 HD
HETATM   16  O8  UNL     1      57.154  99.493 113.555  1.00  0.00    -0.265 OA
HETATM   17  N3  UNL     1      58.100 102.246 113.908  1.00  0.00    -0.345 N 
HETATM   18  C4  UNL     1      58.872 103.239 114.378  1.00  0.00     0.188 A 
ATOM     19  H3  UNL     1      57.317 102.367 113.266  1.00  0.00     0.167 HD
ENDBRANCH   1   6
BRANCH   5  20
HETATM   20  O7  UNL     1      62.927 102.380 116.154  1.00  0.00    -0.388 OA
ATOM     21  H7  UNL     1      63.540 101.844 115.665  1.00  0.00     0.210 HD
ENDBRANCH   5  20
BRANCH   3  22
HETATM   22  C7  UNL     1      62.004 106.761 116.104  1.00  0.00     0.217 C 
BRANCH  22  23
HETATM   23  O2  UNL     1      61.813 107.139 114.807  1.00  0.00    -0.280 OA
BRANCH  23  24
HETATM   24  P1  UNL     1      60.694 108.318 114.687  1.00  0.00     0.422 P 
HETATM   25  O3  UNL     1      60.631 108.236 113.170  1.00  0.00    -0.617 OA
HETATM   26  O4  UNL     1      59.083 108.024 114.897  1.00  0.00    -0.617 OA
HETATM   27  O5  UNL     1      61.177 109.921 114.587  1.00  0.00    -0.617 OA
ENDBRANCH  23  24
ENDBRANCH  22  23
ENDBRANCH   3  22
BRANCH   4  28
HETATM   28  O6  UNL     1      64.100 104.523 115.618  1.00  0.00    -0.390 OA
ATOM     29  H6  UNL     1      64.601 103.846 115.179  1.00  0.00     0.210 HD
ENDBRANCH   4  28
TORSDOF 6
ENDMDL
