MODEL 10
REMARK VINA RESULT: -7.704565893      8.654     11.934
REMARK  6 active torsions:
REMARK  status: ('A' for Active; 'I' for Inactive)
REMARK    1  A    between atoms: N4_10  and  C5_11 
REMARK    2  A    between atoms: C6_13  and  C7_14 
REMARK    3  A    between atoms: C7_14  and  O2_15 
REMARK    4  A    between atoms: O2_15  and  P1_16 
REMARK    5  A    between atoms: C8_20  and  O6_21 
REMARK    6  A    between atoms: C9_23  and  O7_24 
ROOT
HETATM    1  C5  UNL     1      64.713  94.889 121.973  1.00  0.00     0.262 C 
HETATM    2  O1  UNL     1      65.964  95.032 121.377  1.00  0.00    -0.353 OA
HETATM    3  C6  UNL     1      66.228  93.710 120.992  1.00  0.00     0.180 C 
HETATM    4  C8  UNL     1      65.000  93.406 120.168  1.00  0.00     0.182 C 
HETATM    5  C9  UNL     1      63.915  93.979 121.062  1.00  0.00     0.198 C 
ENDROOT
BRANCH   1   6
HETATM    6  N4  UNL     1      64.023  96.130 122.138  1.00  0.00    -0.297 N 
HETATM    7  C2  UNL     1      64.331  97.328 121.590  1.00  0.00     0.146 A 
HETATM    8  N2  UNL     1      65.346  97.625 120.774  1.00  0.00    -0.314 N 
HETATM    9  C3  UNL     1      63.394  98.243 122.024  1.00  0.00     0.146 A 
HETATM   10  C1  UNL     1      65.464  98.910 120.342  1.00  0.00     0.196 A 
ATOM     11  H2  UNL     1      66.014  96.910 120.484  1.00  0.00     0.170 HD
HETATM   12  N1  UNL     1      66.496  99.329 119.479  1.00  0.00    -0.063 NA
HETATM   13  N5  UNL     1      64.557  99.814 120.756  1.00  0.00    -0.295 N 
HETATM   14  C10 UNL     1      63.540  99.541 121.566  1.00  0.00     0.278 A 
ATOM     15  H5  UNL     1      64.657 100.773 120.425  1.00  0.00     0.171 HD
HETATM   16  O8  UNL     1      62.694 100.385 121.952  1.00  0.00    -0.265 OA
HETATM   17  N3  UNL     1      62.554  97.583 122.810  1.00  0.00    -0.345 N 
HETATM   18  C4  UNL     1      62.920  96.294 122.894  1.00  0.00     0.188 A 
ATOM     19  H3  UNL     1      61.748  97.994 123.282  1.00  0.00     0.167 HD
ENDBRANCH   1   6
BRANCH   5  20
HETATM   20  O7  UNL     1      63.369  92.921 121.796  1.00  0.00    -0.388 OA
ATOM     21  H7  UNL     1      64.044  92.287 122.010  1.00  0.00     0.210 HD
ENDBRANCH   5  20
BRANCH   3  22
HETATM   22  C7  UNL     1      67.502  93.593 120.210  1.00  0.00     0.217 C 
BRANCH  22  23
HETATM   23  O2  UNL     1      67.205  93.443 118.887  1.00  0.00    -0.280 OA
BRANCH  23  24
HETATM   24  P1  UNL     1      68.552  93.420 117.970  1.00  0.00     0.422 P 
HETATM   25  O3  UNL     1      69.367  94.215 118.978  1.00  0.00    -0.617 OA
HETATM   26  O4  UNL     1      69.585  92.133 117.957  1.00  0.00    -0.617 OA
HETATM   27  O5  UNL     1      68.799  94.616 116.819  1.00  0.00    -0.617 OA
ENDBRANCH  23  24
ENDBRANCH  22  23
ENDBRANCH   3  22
BRANCH   4  28
HETATM   28  O6  UNL     1      64.823  92.045 119.958  1.00  0.00    -0.390 OA
ATOM     29  H6  UNL     1      63.906  91.800 119.921  1.00  0.00     0.210 HD
ENDBRANCH   4  28
TORSDOF 6
ENDMDL
