MODEL 1
REMARK VINA RESULT: -9.197294817      0.000      0.000
REMARK  6 active torsions:
REMARK  status: ('A' for Active; 'I' for Inactive)
REMARK    1  A    between atoms: N4_13  and  C6_14 
REMARK    2  A    between atoms: C7_16  and  C8_17 
REMARK    3  A    between atoms: C8_17  and  O3_18 
REMARK    4  A    between atoms: O3_18  and  P1_19 
REMARK    5  A    between atoms: C9_23  and  O7_24 
REMARK    6  A    between atoms: C10_26  and  O8_27 
ROOT
HETATM    1  C6  UNL     1      26.102   7.012   9.293  1.00  0.00     0.262 C 
HETATM    2  O2  UNL     1      25.752   8.168   8.607  1.00  0.00    -0.353 OA
HETATM    3  C7  UNL     1      24.585   8.611   9.184  1.00  0.00     0.180 C 
HETATM    4  C9  UNL     1      24.570   8.145  10.616  1.00  0.00     0.182 C 
HETATM    5  C10 UNL     1      25.925   7.467  10.732  1.00  0.00     0.198 C 
ENDROOT
BRANCH   1   6
HETATM    6  N4  UNL     1      27.460   6.615   9.012  1.00  0.00    -0.297 N 
HETATM    7  C3  UNL     1      27.955   5.403   9.326  1.00  0.00     0.144 A 
HETATM    8  N2  UNL     1      27.450   4.299   9.915  1.00  0.00    -0.336 N 
HETATM    9  C4  UNL     1      29.285   5.301   8.940  1.00  0.00     0.146 A 
HETATM   10  C2  UNL     1      28.164   3.189  10.119  1.00  0.00     0.185 A 
ATOM     11  H2  UNL     1      26.477   4.313  10.220  1.00  0.00     0.168 HD
HETATM   12  N1  UNL     1      29.447   3.106   9.741  1.00  0.00    -0.318 N 
HETATM   13  C1  UNL     1      30.017   4.160   9.148  1.00  0.00     0.277 A 
ATOM     14  H1  UNL     1      29.980   2.251   9.904  1.00  0.00     0.169 HD
HETATM   15  O1  UNL     1      31.211   4.086   8.796  1.00  0.00    -0.266 OA
HETATM   16  N3  UNL     1      29.564   6.513   8.380  1.00  0.00    -0.345 N 
HETATM   17  C5  UNL     1      28.460   7.280   8.435  1.00  0.00     0.188 A 
ATOM     18  H3  UNL     1      30.462   6.792   7.984  1.00  0.00     0.167 HD
ENDBRANCH   1   6
BRANCH   5  19
HETATM   19  O8  UNL     1      25.921   6.417  11.618  1.00  0.00    -0.388 OA
ATOM     20  H8  UNL     1      25.196   6.460  12.231  1.00  0.00     0.210 HD
ENDBRANCH   5  19
BRANCH   3  21
HETATM   21  C8  UNL     1      24.590  10.125   9.202  1.00  0.00     0.217 C 
BRANCH  21  22
HETATM   22  O3  UNL     1      24.398  10.568  10.485  1.00  0.00    -0.280 OA
BRANCH  22  23
HETATM   23  P1  UNL     1      23.071  11.592  10.472  1.00  0.00     0.422 P 
HETATM   24  O4  UNL     1      22.954  11.229  11.962  1.00  0.00    -0.617 OA
HETATM   25  O5  UNL     1      21.631  10.992  10.029  1.00  0.00    -0.617 OA
HETATM   26  O6  UNL     1      23.483  12.025   9.060  1.00  0.00    -0.617 OA
ENDBRANCH  22  23
ENDBRANCH  21  22
ENDBRANCH   3  21
BRANCH   4  27
HETATM   27  O7  UNL     1      23.615   7.125  10.779  1.00  0.00    -0.390 OA
ATOM     28  H7  UNL     1      22.783   7.500  11.044  1.00  0.00     0.210 HD
ENDBRANCH   4  27
TORSDOF 6
ENDMDL
