MODEL 3
REMARK VINA RESULT: -8.899185366      0.489      1.003
REMARK  6 active torsions:
REMARK  status: ('A' for Active; 'I' for Inactive)
REMARK    1  A    between atoms: N4_13  and  C6_14 
REMARK    2  A    between atoms: C7_16  and  C8_17 
REMARK    3  A    between atoms: C8_17  and  O3_18 
REMARK    4  A    between atoms: O3_18  and  P1_19 
REMARK    5  A    between atoms: C9_23  and  O7_24 
REMARK    6  A    between atoms: C10_26  and  O8_27 
ROOT
HETATM    1  C6  UNL     1      26.193   7.032   9.240  1.00  0.00     0.262 C 
HETATM    2  O2  UNL     1      25.838   8.180   8.541  1.00  0.00    -0.353 OA
HETATM    3  C7  UNL     1      24.671   8.626   9.117  1.00  0.00     0.180 C 
HETATM    4  C9  UNL     1      24.664   8.178  10.555  1.00  0.00     0.182 C 
HETATM    5  C10 UNL     1      26.021   7.504  10.674  1.00  0.00     0.198 C 
ENDROOT
BRANCH   1   6
HETATM    6  N4  UNL     1      27.552   6.636   8.959  1.00  0.00    -0.297 N 
HETATM    7  C3  UNL     1      28.047   5.425   9.275  1.00  0.00     0.144 A 
HETATM    8  N2  UNL     1      27.544   4.322   9.869  1.00  0.00    -0.336 N 
HETATM    9  C4  UNL     1      29.377   5.322   8.888  1.00  0.00     0.146 A 
HETATM   10  C2  UNL     1      28.258   3.214  10.075  1.00  0.00     0.185 A 
ATOM     11  H2  UNL     1      26.571   4.337  10.174  1.00  0.00     0.168 HD
HETATM   12  N1  UNL     1      29.541   3.129   9.696  1.00  0.00    -0.318 N 
HETATM   13  C1  UNL     1      30.109   4.182   9.099  1.00  0.00     0.277 A 
ATOM     14  H1  UNL     1      30.074   2.275   9.861  1.00  0.00     0.169 HD
HETATM   15  O1  UNL     1      31.303   4.107   8.746  1.00  0.00    -0.266 OA
HETATM   16  N3  UNL     1      29.655   6.533   8.324  1.00  0.00    -0.345 N 
HETATM   17  C5  UNL     1      28.550   7.300   8.378  1.00  0.00     0.188 A 
ATOM     18  H3  UNL     1      30.552   6.810   7.926  1.00  0.00     0.167 HD
ENDBRANCH   1   6
BRANCH   5  19
HETATM   19  O8  UNL     1      26.023   6.465  11.573  1.00  0.00    -0.388 OA
ATOM     20  H8  UNL     1      25.835   6.751  12.460  1.00  0.00     0.210 HD
ENDBRANCH   5  19
BRANCH   3  21
HETATM   21  C8  UNL     1      24.674  10.140   9.117  1.00  0.00     0.217 C 
BRANCH  21  22
HETATM   22  O3  UNL     1      24.292  10.598  10.351  1.00  0.00    -0.280 OA
BRANCH  22  23
HETATM   23  P1  UNL     1      22.744  11.225  10.202  1.00  0.00     0.422 P 
HETATM   24  O4  UNL     1      23.354  12.086   9.082  1.00  0.00    -0.617 OA
HETATM   25  O5  UNL     1      22.311  12.459  11.160  1.00  0.00    -0.617 OA
HETATM   26  O6  UNL     1      22.264  10.127  11.159  1.00  0.00    -0.617 OA
ENDBRANCH  22  23
ENDBRANCH  21  22
ENDBRANCH   3  21
BRANCH   4  27
HETATM   27  O7  UNL     1      23.711   7.158  10.734  1.00  0.00    -0.390 OA
ATOM     28  H7  UNL     1      23.758   6.823  11.622  1.00  0.00     0.210 HD
ENDBRANCH   4  27
TORSDOF 6
ENDMDL
