MODEL 5
REMARK VINA RESULT: -8.456055528      4.409      6.948
REMARK  6 active torsions:
REMARK  status: ('A' for Active; 'I' for Inactive)
REMARK    1  A    between atoms: N4_13  and  C6_14 
REMARK    2  A    between atoms: C7_16  and  C8_17 
REMARK    3  A    between atoms: C8_17  and  O3_18 
REMARK    4  A    between atoms: O3_18  and  P1_19 
REMARK    5  A    between atoms: C9_23  and  O7_24 
REMARK    6  A    between atoms: C10_26  and  O8_27 
ROOT
HETATM    1  C6  UNL     1      27.063   8.093   6.999  1.00  0.00     0.262 C 
HETATM    2  O2  UNL     1      28.358   8.111   7.503  1.00  0.00    -0.353 OA
HETATM    3  C7  UNL     1      28.231   8.252   8.865  1.00  0.00     0.180 C 
HETATM    4  C9  UNL     1      26.910   7.653   9.272  1.00  0.00     0.182 C 
HETATM    5  C10 UNL     1      26.399   7.108   7.948  1.00  0.00     0.198 C 
ENDROOT
BRANCH   1   6
HETATM    6  N4  UNL     1      27.029   7.634   5.632  1.00  0.00    -0.297 N 
HETATM    7  C3  UNL     1      26.032   7.932   4.778  1.00  0.00     0.144 A 
HETATM    8  N2  UNL     1      24.891   8.648   4.869  1.00  0.00    -0.336 N 
HETATM    9  C4  UNL     1      26.262   7.360   3.534  1.00  0.00     0.146 A 
HETATM   10  C2  UNL     1      24.041   8.800   3.850  1.00  0.00     0.185 A 
ATOM     11  H2  UNL     1      24.667   9.095   5.758  1.00  0.00     0.168 HD
HETATM   12  N1  UNL     1      24.277   8.241   2.656  1.00  0.00    -0.318 N 
HETATM   13  C1  UNL     1      25.389   7.517   2.489  1.00  0.00     0.277 A 
ATOM     14  H1  UNL     1      23.618   8.365   1.886  1.00  0.00     0.169 HD
HETATM   15  O1  UNL     1      25.612   6.995   1.378  1.00  0.00    -0.266 OA
HETATM   16  N3  UNL     1      27.448   6.702   3.685  1.00  0.00    -0.345 N 
HETATM   17  C5  UNL     1      27.886   6.880   4.944  1.00  0.00     0.188 A 
ATOM     18  H3  UNL     1      27.924   6.164   2.961  1.00  0.00     0.167 HD
ENDBRANCH   1   6
BRANCH   5  19
HETATM   19  O8  UNL     1      25.028   7.132   7.856  1.00  0.00    -0.388 OA
ATOM     20  H8  UNL     1      24.727   7.373   6.988  1.00  0.00     0.210 HD
ENDBRANCH   5  19
BRANCH   3  21
HETATM   21  C8  UNL     1      29.319   7.448   9.544  1.00  0.00     0.217 C 
BRANCH  21  22
HETATM   22  O3  UNL     1      29.097   6.111   9.337  1.00  0.00    -0.280 OA
BRANCH  22  23
HETATM   23  P1  UNL     1      30.510   5.453   8.721  1.00  0.00     0.422 P 
HETATM   24  O4  UNL     1      29.568   4.526   7.934  1.00  0.00    -0.617 OA
HETATM   25  O5  UNL     1      31.252   4.282   9.562  1.00  0.00    -0.617 OA
HETATM   26  O6  UNL     1      31.275   6.606   9.383  1.00  0.00    -0.617 OA
ENDBRANCH  22  23
ENDBRANCH  21  22
ENDBRANCH   3  21
BRANCH   4  27
HETATM   27  O7  UNL     1      26.013   8.672   9.639  1.00  0.00    -0.390 OA
ATOM     28  H7  UNL     1      25.193   8.293   9.931  1.00  0.00     0.210 HD
ENDBRANCH   4  27
TORSDOF 6
ENDMDL
