MODEL 4
REMARK VINA RESULT: -8.884135456      1.038      6.367
REMARK  2 active torsions:
REMARK  status: ('A' for Active; 'I' for Inactive)
REMARK    1  A    between atoms: C9_9  and  O1_10 
REMARK    2  A    between atoms: C18_20  and  O2_21 
ROOT
HETATM    1  C1  UNL     1       1.016  51.095 163.691  1.00  0.00     0.018 C 
HETATM    2  C2  UNL     1       1.130  50.974 165.191  1.00  0.00    -0.014 C 
HETATM    3  C3  UNL     1       0.765  49.635 165.710  1.00  0.00     0.013 C 
HETATM    4  C4  UNL     1      -0.638  49.317 165.185  1.00  0.00     0.010 C 
HETATM    5  C5  UNL     1      -1.581  50.286 165.830  1.00  0.00     0.023 C 
HETATM    6  C6  UNL     1      -2.983  50.100 165.405  1.00  0.00    -0.047 A 
HETATM    7  C7  UNL     1      -3.447  48.989 164.736  1.00  0.00     0.011 A 
HETATM    8  C8  UNL     1      -4.760  48.841 164.352  1.00  0.00     0.037 A 
HETATM    9  C9  UNL     1      -5.668  49.858 164.652  1.00  0.00     0.066 A 
HETATM   10  C10 UNL     1      -5.205  50.972 165.322  1.00  0.00     0.044 A 
HETATM   11  C11 UNL     1      -3.879  51.102 165.700  1.00  0.00    -0.049 A 
HETATM   12  C12 UNL     1      -3.513  52.350 166.417  1.00  0.00     0.039 C 
HETATM   13  C13 UNL     1      -2.046  52.531 166.600  1.00  0.00     0.010 C 
HETATM   14  C14 UNL     1      -1.228  51.731 165.573  1.00  0.00    -0.001 C 
HETATM   15  C15 UNL     1       0.196  51.988 165.872  1.00  0.00     0.001 C 
HETATM   16  C16 UNL     1       0.760  53.259 165.352  1.00  0.00     0.008 C 
HETATM   17  C17 UNL     1       2.263  53.016 165.388  1.00  0.00     0.033 C 
HETATM   18  C18 UNL     1       2.434  51.520 165.659  1.00  0.00     0.126 C 
ENDROOT
BRANCH   9  19
HETATM   19  O1  UNL     1      -6.977  49.722 164.274  1.00  0.00    -0.361 OA
ATOM     20  H1  UNL     1      -7.662  49.831 164.924  1.00  0.00     0.217 HD
ENDBRANCH   9  19
BRANCH  18  21
HETATM   21  O2  UNL     1       3.536  51.005 165.022  1.00  0.00    -0.395 OA
ATOM     22  H2  UNL     1       4.194  51.647 164.783  1.00  0.00     0.210 HD
ENDBRANCH  18  21
TORSDOF 2
ENDMDL
