MODEL 1
REMARK VINA RESULT: -10.199310689      0.000      0.000
REMARK  2 active torsions:
REMARK  status: ('A' for Active; 'I' for Inactive)
REMARK    1  A    between atoms: C9_9  and  O1_10 
REMARK    2  A    between atoms: C18_20  and  O2_21 
ROOT
HETATM    1  C1  UNL     1      -4.155  50.961 163.715  1.00  0.00     0.018 C 
HETATM    2  C2  UNL     1      -4.281  51.024 165.218  1.00  0.00    -0.014 C 
HETATM    3  C3  UNL     1      -3.788  52.293 165.804  1.00  0.00     0.013 C 
HETATM    4  C4  UNL     1      -2.350  52.486 165.311  1.00  0.00     0.010 C 
HETATM    5  C5  UNL     1      -1.524  51.395 165.921  1.00  0.00     0.023 C 
HETATM    6  C6  UNL     1      -0.104  51.453 165.522  1.00  0.00    -0.047 A 
HETATM    7  C7  UNL     1       0.484  52.539 164.911  1.00  0.00     0.011 A 
HETATM    8  C8  UNL     1       1.812  52.567 164.550  1.00  0.00     0.037 A 
HETATM    9  C9  UNL     1       2.604  51.448 164.813  1.00  0.00     0.066 A 
HETATM   10  C10 UNL     1       2.017  50.359 165.425  1.00  0.00     0.044 A 
HETATM   11  C11 UNL     1       0.679  50.351 165.780  1.00  0.00    -0.049 A 
HETATM   12  C12 UNL     1       0.174  49.117 166.433  1.00  0.00     0.039 C 
HETATM   13  C13 UNL     1      -1.307  49.082 166.590  1.00  0.00     0.010 C 
HETATM   14  C14 UNL     1      -2.021  50.009 165.592  1.00  0.00    -0.001 C 
HETATM   15  C15 UNL     1      -3.469  49.889 165.862  1.00  0.00     0.001 C 
HETATM   16  C16 UNL     1      -4.153  48.708 165.276  1.00  0.00     0.008 C 
HETATM   17  C17 UNL     1      -5.622  49.104 165.305  1.00  0.00     0.033 C 
HETATM   18  C18 UNL     1      -5.642  50.597 165.645  1.00  0.00     0.126 C 
ENDROOT
BRANCH   9  19
HETATM   19  O1  UNL     1       3.927  51.464 164.457  1.00  0.00    -0.361 OA
ATOM     20  H1  UNL     1       4.313  50.689 164.067  1.00  0.00     0.217 HD
ENDBRANCH   9  19
BRANCH  18  21
HETATM   21  O2  UNL     1      -6.673  51.253 165.019  1.00  0.00    -0.395 OA
ATOM     22  H2  UNL     1      -7.508  50.799 165.046  1.00  0.00     0.210 HD
ENDBRANCH  18  21
TORSDOF 2
ENDMDL
