MODEL 8
REMARK VINA RESULT: -8.402796800      2.019      5.960
REMARK  2 active torsions:
REMARK  status: ('A' for Active; 'I' for Inactive)
REMARK    1  A    between atoms: C9_9  and  O1_10 
REMARK    2  A    between atoms: C18_20  and  O2_21 
ROOT
HETATM    1  C1  UNL     1       0.022  51.639 165.646  1.00  0.00     0.018 C 
HETATM    2  C2  UNL     1      -0.037  50.417 164.762  1.00  0.00    -0.014 C 
HETATM    3  C3  UNL     1       0.023  50.727 163.314  1.00  0.00     0.013 C 
HETATM    4  C4  UNL     1      -1.094  51.735 163.025  1.00  0.00     0.010 C 
HETATM    5  C5  UNL     1      -2.395  51.028 163.247  1.00  0.00     0.023 C 
HETATM    6  C6  UNL     1      -3.571  51.889 163.010  1.00  0.00    -0.047 A 
HETATM    7  C7  UNL     1      -3.520  53.107 162.368  1.00  0.00     0.011 A 
HETATM    8  C8  UNL     1      -4.632  53.891 162.160  1.00  0.00     0.037 A 
HETATM    9  C9  UNL     1      -5.870  53.436 162.616  1.00  0.00     0.066 A 
HETATM   10  C10 UNL     1      -5.923  52.216 163.259  1.00  0.00     0.044 A 
HETATM   11  C11 UNL     1      -4.793  51.442 163.459  1.00  0.00    -0.049 A 
HETATM   12  C12 UNL     1      -4.989  50.150 164.164  1.00  0.00     0.039 C 
HETATM   13  C13 UNL     1      -3.718  49.472 164.542  1.00  0.00     0.010 C 
HETATM   14  C14 UNL     1      -2.539  50.454 164.636  1.00  0.00    -0.001 C 
HETATM   15  C15 UNL     1      -1.350  49.657 165.003  1.00  0.00     0.001 C 
HETATM   16  C16 UNL     1      -1.201  49.319 166.441  1.00  0.00     0.008 C 
HETATM   17  C17 UNL     1       0.271  48.952 166.565  1.00  0.00     0.033 C 
HETATM   18  C18 UNL     1       0.916  49.380 165.244  1.00  0.00     0.126 C 
ENDROOT
BRANCH   9  19
HETATM   19  O1  UNL     1      -6.984  54.207 162.415  1.00  0.00    -0.361 OA
ATOM     20  H1  UNL     1      -7.063  55.038 162.870  1.00  0.00     0.217 HD
ENDBRANCH   9  19
BRANCH  18  21
HETATM   21  O2  UNL     1       2.205  49.820 165.421  1.00  0.00    -0.395 OA
ATOM     22  H2  UNL     1       2.294  50.571 165.996  1.00  0.00     0.210 HD
ENDBRANCH  18  21
TORSDOF 2
ENDMDL
