MODEL 2
REMARK VINA RESULT: -9.730192037      1.128      1.190
REMARK  2 active torsions:
REMARK  status: ('A' for Active; 'I' for Inactive)
REMARK    1  A    between atoms: C9_9  and  O1_10 
REMARK    2  A    between atoms: C18_20  and  O2_21 
ROOT
HETATM    1  C1  UNL     1      -3.509  52.047 162.637  1.00  0.00     0.018 C 
HETATM    2  C2  UNL     1      -3.942  51.835 164.067  1.00  0.00    -0.014 C 
HETATM    3  C3  UNL     1      -3.496  52.906 164.989  1.00  0.00     0.013 C 
HETATM    4  C4  UNL     1      -1.977  53.030 164.832  1.00  0.00     0.010 C 
HETATM    5  C5  UNL     1      -1.375  51.759 165.346  1.00  0.00     0.023 C 
HETATM    6  C6  UNL     1       0.098  51.735 165.248  1.00  0.00    -0.047 A 
HETATM    7  C7  UNL     1       0.875  52.846 165.002  1.00  0.00     0.011 A 
HETATM    8  C8  UNL     1       2.247  52.796 164.916  1.00  0.00     0.037 A 
HETATM    9  C9  UNL     1       2.887  51.567 165.084  1.00  0.00     0.066 A 
HETATM   10  C10 UNL     1       2.111  50.453 165.330  1.00  0.00     0.044 A 
HETATM   11  C11 UNL     1       0.731  50.524 165.414  1.00  0.00    -0.049 A 
HETATM   12  C12 UNL     1       0.016  49.252 165.684  1.00  0.00     0.039 C 
HETATM   13  C13 UNL     1      -1.464  49.351 165.544  1.00  0.00     0.010 C 
HETATM   14  C14 UNL     1      -1.886  50.524 164.645  1.00  0.00    -0.001 C 
HETATM   15  C15 UNL     1      -3.363  50.515 164.602  1.00  0.00     0.001 C 
HETATM   16  C16 UNL     1      -3.989  49.551 163.662  1.00  0.00     0.008 C 
HETATM   17  C17 UNL     1      -5.401  50.094 163.492  1.00  0.00     0.033 C 
HETATM   18  C18 UNL     1      -5.388  51.486 164.127  1.00  0.00     0.126 C 
ENDROOT
BRANCH   9  19
HETATM   19  O1  UNL     1       4.253  51.505 165.000  1.00  0.00    -0.361 OA
ATOM     20  H1  UNL     1       4.717  50.818 165.465  1.00  0.00     0.217 HD
ENDBRANCH   9  19
BRANCH  18  21
HETATM   21  O2  UNL     1      -6.218  52.360 163.467  1.00  0.00    -0.395 OA
ATOM     22  H2  UNL     1      -6.883  51.947 162.928  1.00  0.00     0.210 HD
ENDBRANCH  18  21
TORSDOF 2
ENDMDL
