MODEL 3
REMARK VINA RESULT: -8.952975568      1.640      6.189
REMARK  2 active torsions:
REMARK  status: ('A' for Active; 'I' for Inactive)
REMARK    1  A    between atoms: C9_9  and  O1_10 
REMARK    2  A    between atoms: C18_20  and  O2_21 
ROOT
HETATM    1  C1  UNL     1      -0.364  52.130 165.528  1.00  0.00     0.018 C 
HETATM    2  C2  UNL     1      -0.209  51.021 164.517  1.00  0.00    -0.014 C 
HETATM    3  C3  UNL     1      -0.521  51.434 163.128  1.00  0.00     0.013 C 
HETATM    4  C4  UNL     1      -1.927  52.042 163.146  1.00  0.00     0.010 C 
HETATM    5  C5  UNL     1      -2.882  50.936 163.478  1.00  0.00     0.023 C 
HETATM    6  C6  UNL     1      -4.288  51.383 163.538  1.00  0.00    -0.047 A 
HETATM    7  C7  UNL     1      -4.735  52.593 163.055  1.00  0.00     0.011 A 
HETATM    8  C8  UNL     1      -6.053  52.986 163.124  1.00  0.00     0.037 A 
HETATM    9  C9  UNL     1      -6.982  52.122 163.707  1.00  0.00     0.066 A 
HETATM   10  C10 UNL     1      -6.536  50.910 164.190  1.00  0.00     0.044 A 
HETATM   11  C11 UNL     1      -5.205  50.533 164.112  1.00  0.00    -0.049 A 
HETATM   12  C12 UNL     1      -4.859  49.202 164.669  1.00  0.00     0.039 C 
HETATM   13  C13 UNL     1      -3.394  48.949 164.756  1.00  0.00     0.010 C 
HETATM   14  C14 UNL     1      -2.578  50.251 164.788  1.00  0.00    -0.001 C 
HETATM   15  C15 UNL     1      -1.155  49.860 164.861  1.00  0.00     0.001 C 
HETATM   16  C16 UNL     1      -0.642  49.489 166.204  1.00  0.00     0.008 C 
HETATM   17  C17 UNL     1       0.868  49.612 166.049  1.00  0.00     0.033 C 
HETATM   18  C18 UNL     1       1.089  50.318 164.709  1.00  0.00     0.126 C 
ENDROOT
BRANCH   9  19
HETATM   19  O1  UNL     1      -8.296  52.503 163.781  1.00  0.00    -0.361 OA
ATOM     20  H1  UNL     1      -8.945  51.877 164.083  1.00  0.00     0.217 HD
ENDBRANCH   9  19
BRANCH  18  21
HETATM   21  O2  UNL     1       2.190  51.140 164.737  1.00  0.00    -0.395 OA
ATOM     22  H2  UNL     1       2.879  50.863 165.330  1.00  0.00     0.210 HD
ENDBRANCH  18  21
TORSDOF 2
ENDMDL
