MODEL 3
REMARK VINA RESULT: -9.298205860      3.146      4.194
REMARK  4 active torsions:
REMARK  status: ('A' for Active; 'I' for Inactive)
REMARK    1  A    between atoms: C1_2  and  C2_3 
REMARK       I    between atoms: C1_2  and  N3_16 
REMARK    2  A    between atoms: N1_6  and  C5_7 
REMARK    3  A    between atoms: N4_19  and  S1_20 
REMARK    4  A    between atoms: S1_20  and  C14_23 
ROOT
HETATM    1  O1  UNL     1      28.679  10.302  18.904  1.00  0.00    -0.273 OA
HETATM    2  C1  UNL     1      28.560   9.057  18.662  1.00  0.00     0.224 C 
HETATM    3  N3  UNL     1      27.929   8.264  19.656  1.00  0.00    -0.345 N 
HETATM    4  C12 UNL     1      27.462   8.844  20.897  1.00  0.00     0.147 C 
HETATM    5  C13 UNL     1      25.978   8.648  20.970  1.00  0.00     0.160 C 
HETATM    6  N4  UNL     1      25.529   7.374  20.562  1.00  0.00    -0.283 N 
HETATM    7  C24 UNL     1      26.442   6.427  20.119  1.00  0.00     0.096 C 
HETATM    8  C25 UNL     1      27.705   6.847  19.494  1.00  0.00     0.171 C 
ENDROOT
BRANCH   2   9
HETATM    9  C2  UNL     1      29.085   8.554  17.387  1.00  0.00     0.081 C 
HETATM   10  C3  UNL     1      30.317   9.275  16.896  1.00  0.00     0.034 C 
HETATM   11  C4  UNL     1      29.981  10.741  16.871  1.00  0.00     0.123 C 
HETATM   12  N1  UNL     1      28.735  11.022  16.212  1.00  0.00    -0.381 N 
HETATM   13  C10 UNL     1      27.775  10.021  15.812  1.00  0.00     0.123 C 
HETATM   14  C11 UNL     1      28.060   8.642  16.289  1.00  0.00     0.034 C 
BRANCH  12  15
HETATM   15  C5  UNL     1      28.412  12.376  15.927  1.00  0.00     0.032 A 
HETATM   16  C6  UNL     1      28.950  13.015  14.828  1.00  0.00     0.046 A 
HETATM   17  C7  UNL     1      28.643  14.336  14.538  1.00  0.00     0.089 A 
HETATM   18  N2  UNL     1      27.814  15.036  15.317  1.00  0.00    -0.375 N 
HETATM   19  C8  UNL     1      27.279  14.435  16.393  1.00  0.00     0.089 A 
ATOM     20  H2  UNL     1      27.592  16.007  15.100  1.00  0.00     0.164 HD
HETATM   21  C9  UNL     1      27.560  13.121  16.715  1.00  0.00     0.046 A 
ENDBRANCH  12  15
ENDBRANCH   2   9
BRANCH   6  22
HETATM   22  S1  UNL     1      23.904   7.189  20.190  1.00  0.00     0.264 S 
HETATM   23  O2  UNL     1      23.380   5.800  20.527  1.00  0.00    -0.200 OA
HETATM   24  O3  UNL     1      23.094   8.156  21.005  1.00  0.00    -0.200 OA
BRANCH  22  25
HETATM   25  C14 UNL     1      23.573   7.538  18.487  1.00  0.00     0.080 A 
HETATM   26  C15 UNL     1      24.377   8.414  17.797  1.00  0.00     0.026 A 
HETATM   27  C16 UNL     1      24.128   8.688  16.474  1.00  0.00     0.014 A 
HETATM   28  C17 UNL     1      23.058   8.085  15.820  1.00  0.00    -0.024 A 
HETATM   29  C18 UNL     1      22.796   8.355  14.484  1.00  0.00     0.036 A 
HETATM   30  C22 UNL     1      22.243   7.206  16.499  1.00  0.00    -0.024 A 
HETATM   31  C19 UNL     1      21.731   7.758  13.821  1.00  0.00     0.034 A 
HETATM   32 CL1  UNL     1      21.451   8.142  12.125  1.00  0.00    -0.084 Cl
HETATM   33  C20 UNL     1      20.924   6.881  14.511  1.00  0.00     0.024 A 
HETATM   34  C21 UNL     1      21.189   6.615  15.844  1.00  0.00     0.014 A 
HETATM   35  C23 UNL     1      22.528   6.950  17.843  1.00  0.00     0.037 A 
ENDBRANCH  22  25
ENDBRANCH   6  22
TORSDOF 4
ENDMDL
