MODEL 6
REMARK VINA RESULT: -9.087219872      3.661      8.699
REMARK  4 active torsions:
REMARK  status: ('A' for Active; 'I' for Inactive)
REMARK    1  A    between atoms: C1_2  and  C2_3 
REMARK       I    between atoms: C1_2  and  N3_16 
REMARK    2  A    between atoms: N1_6  and  C5_7 
REMARK    3  A    between atoms: N4_19  and  S1_20 
REMARK    4  A    between atoms: S1_20  and  C14_23 
ROOT
HETATM    1  O1  UNL     1      25.528   7.673  13.842  1.00  0.00    -0.273 OA
HETATM    2  C1  UNL     1      25.968   7.240  14.956  1.00  0.00     0.224 C 
HETATM    3  N3  UNL     1      27.356   6.953  15.033  1.00  0.00    -0.345 N 
HETATM    4  C12 UNL     1      28.225   7.126  13.888  1.00  0.00     0.147 C 
HETATM    5  C13 UNL     1      29.257   8.155  14.241  1.00  0.00     0.160 C 
HETATM    6  N4  UNL     1      29.798   8.027  15.538  1.00  0.00    -0.283 N 
HETATM    7  C24 UNL     1      29.353   7.017  16.379  1.00  0.00     0.096 C 
HETATM    8  C25 UNL     1      27.988   6.485  16.243  1.00  0.00     0.171 C 
ENDROOT
BRANCH   2   9
HETATM    9  C2  UNL     1      25.009   7.073  16.054  1.00  0.00     0.081 C 
HETATM   10  C3  UNL     1      24.059   5.913  15.877  1.00  0.00     0.034 C 
HETATM   11  C4  UNL     1      23.408   6.086  14.532  1.00  0.00     0.123 C 
HETATM   12  N1  UNL     1      22.892   7.411  14.323  1.00  0.00    -0.381 N 
HETATM   13  C10 UNL     1      23.153   8.539  15.186  1.00  0.00     0.123 C 
HETATM   14  C11 UNL     1      24.165   8.304  16.249  1.00  0.00     0.034 C 
BRANCH  12  15
HETATM   15  C5  UNL     1      22.064   7.643  13.192  1.00  0.00     0.032 A 
HETATM   16  C6  UNL     1      22.389   7.117  11.958  1.00  0.00     0.046 A 
HETATM   17  C7  UNL     1      21.589   7.335  10.846  1.00  0.00     0.089 A 
HETATM   18  N2  UNL     1      20.475   8.065  10.934  1.00  0.00    -0.375 N 
HETATM   19  C8  UNL     1      20.139   8.589  12.125  1.00  0.00     0.089 A 
ATOM     20  H2  UNL     1      19.891   8.223  10.113  1.00  0.00     0.164 HD
HETATM   21  C9  UNL     1      20.909   8.394  13.255  1.00  0.00     0.046 A 
ENDBRANCH  12  15
ENDBRANCH   2   9
BRANCH   6  22
HETATM   22  S1  UNL     1      30.613   9.341  16.189  1.00  0.00     0.264 S 
HETATM   23  O2  UNL     1      31.081   9.093  17.615  1.00  0.00    -0.200 OA
HETATM   24  O3  UNL     1      31.848   9.611  15.379  1.00  0.00    -0.200 OA
BRANCH  22  25
HETATM   25  C14 UNL     1      29.631  10.812  16.145  1.00  0.00     0.080 A 
HETATM   26  C15 UNL     1      28.717  11.059  17.143  1.00  0.00     0.026 A 
HETATM   27  C16 UNL     1      27.953  12.200  17.117  1.00  0.00     0.014 A 
HETATM   28  C17 UNL     1      28.094  13.118  16.080  1.00  0.00    -0.024 A 
HETATM   29  C18 UNL     1      27.327  14.274  16.043  1.00  0.00     0.036 A 
HETATM   30  C22 UNL     1      29.005  12.884  15.073  1.00  0.00    -0.024 A 
HETATM   31  C19 UNL     1      27.460  15.197  15.013  1.00  0.00     0.034 A 
HETATM   32 CL1  UNL     1      26.458  16.645  15.023  1.00  0.00    -0.084 Cl
HETATM   33  C20 UNL     1      28.373  14.952  14.013  1.00  0.00     0.024 A 
HETATM   34  C21 UNL     1      29.136  13.796  14.054  1.00  0.00     0.014 A 
HETATM   35  C23 UNL     1      29.765  11.713  15.133  1.00  0.00     0.037 A 
ENDBRANCH  22  25
ENDBRANCH   6  22
TORSDOF 4
ENDMDL
