MODEL 2
REMARK VINA RESULT: -9.393113421      0.590      1.452
REMARK  4 active torsions:
REMARK  status: ('A' for Active; 'I' for Inactive)
REMARK    1  A    between atoms: C1_2  and  C2_3 
REMARK       I    between atoms: C1_2  and  N3_16 
REMARK    2  A    between atoms: N1_6  and  C5_7 
REMARK    3  A    between atoms: N4_19  and  S1_20 
REMARK    4  A    between atoms: S1_20  and  C14_23 
ROOT
HETATM    1  O1  UNL     1      25.776  10.393  18.002  1.00  0.00    -0.273 OA
HETATM    2  C1  UNL     1      26.240   9.231  17.765  1.00  0.00     0.224 C 
HETATM    3  N3  UNL     1      25.318   8.246  17.323  1.00  0.00    -0.345 N 
HETATM    4  C12 UNL     1      23.910   8.548  17.170  1.00  0.00     0.147 C 
HETATM    5  C13 UNL     1      23.548   8.352  15.729  1.00  0.00     0.160 C 
HETATM    6  N4  UNL     1      24.102   7.199  15.132  1.00  0.00    -0.283 N 
HETATM    7  C24 UNL     1      24.927   6.363  15.872  1.00  0.00     0.096 C 
HETATM    8  C25 UNL     1      25.717   6.899  16.990  1.00  0.00     0.171 C 
ENDROOT
BRANCH   2   9
HETATM    9  C2  UNL     1      27.676   9.011  17.970  1.00  0.00     0.081 C 
HETATM   10  C3  UNL     1      28.354  10.077  18.797  1.00  0.00     0.034 C 
HETATM   11  C4  UNL     1      28.035  11.397  18.149  1.00  0.00     0.123 C 
HETATM   12  N1  UNL     1      28.270  11.400  16.731  1.00  0.00    -0.381 N 
HETATM   13  C10 UNL     1      28.557  10.224  15.945  1.00  0.00     0.123 C 
HETATM   14  C11 UNL     1      28.420   8.930  16.665  1.00  0.00     0.034 C 
BRANCH  12  15
HETATM   15  C5  UNL     1      28.219  12.640  16.040  1.00  0.00     0.032 A 
HETATM   16  C6  UNL     1      27.429  13.674  16.500  1.00  0.00     0.046 A 
HETATM   17  C7  UNL     1      27.371  14.890  15.835  1.00  0.00     0.089 A 
HETATM   18  N2  UNL     1      28.080  15.101  14.724  1.00  0.00    -0.375 N 
HETATM   19  C8  UNL     1      28.857  14.108  14.257  1.00  0.00     0.089 A 
ATOM     20  H2  UNL     1      28.033  15.996  14.239  1.00  0.00     0.164 HD
HETATM   21  C9  UNL     1      28.941  12.883  14.891  1.00  0.00     0.046 A 
ENDBRANCH  12  15
ENDBRANCH   2   9
BRANCH   6  22
HETATM   22  S1  UNL     1      24.129   7.110  13.457  1.00  0.00     0.264 S 
HETATM   23  O2  UNL     1      24.732   8.350  12.813  1.00  0.00    -0.200 OA
HETATM   24  O3  UNL     1      24.989   5.954  13.034  1.00  0.00    -0.200 OA
BRANCH  22  25
HETATM   25  C14 UNL     1      22.516   6.831  12.786  1.00  0.00     0.080 A 
HETATM   26  C15 UNL     1      22.026   5.550  12.685  1.00  0.00     0.026 A 
HETATM   27  C16 UNL     1      20.774   5.326  12.167  1.00  0.00     0.014 A 
HETATM   28  C17 UNL     1      19.988   6.392  11.739  1.00  0.00    -0.024 A 
HETATM   29  C18 UNL     1      18.721   6.176  11.213  1.00  0.00     0.036 A 
HETATM   30  C22 UNL     1      20.466   7.680  11.833  1.00  0.00    -0.024 A 
HETATM   31  C19 UNL     1      17.929   7.233  10.782  1.00  0.00     0.034 A 
HETATM   32 CL1  UNL     1      16.331   6.895  10.125  1.00  0.00    -0.084 Cl
HETATM   33  C20 UNL     1      18.418   8.516  10.882  1.00  0.00     0.024 A 
HETATM   34  C21 UNL     1      19.682   8.725  11.406  1.00  0.00     0.014 A 
HETATM   35  C23 UNL     1      21.744   7.870  12.365  1.00  0.00     0.037 A 
ENDBRANCH  22  25
ENDBRANCH   6  22
TORSDOF 4
ENDMDL
