MODEL 1
REMARK VINA RESULT: -9.422222841      0.000      0.000
REMARK  4 active torsions:
REMARK  status: ('A' for Active; 'I' for Inactive)
REMARK    1  A    between atoms: C1_2  and  C2_3 
REMARK       I    between atoms: C1_2  and  N3_16 
REMARK    2  A    between atoms: N1_6  and  C5_7 
REMARK    3  A    between atoms: N4_19  and  S1_20 
REMARK    4  A    between atoms: S1_20  and  C14_23 
ROOT
HETATM    1  O1  UNL     1      25.862  10.513  18.222  1.00  0.00    -0.273 OA
HETATM    2  C1  UNL     1      26.335   9.348  18.017  1.00  0.00     0.224 C 
HETATM    3  N3  UNL     1      25.414   8.334  17.645  1.00  0.00    -0.345 N 
HETATM    4  C12 UNL     1      23.998   8.611  17.525  1.00  0.00     0.147 C 
HETATM    5  C13 UNL     1      23.594   8.351  16.105  1.00  0.00     0.160 C 
HETATM    6  N4  UNL     1      24.146   7.182  15.539  1.00  0.00    -0.283 N 
HETATM    7  C24 UNL     1      25.005   6.388  16.286  1.00  0.00     0.096 C 
HETATM    8  C25 UNL     1      25.822   6.980  17.356  1.00  0.00     0.171 C 
ENDROOT
BRANCH   2   9
HETATM    9  C2  UNL     1      27.780   9.156  18.187  1.00  0.00     0.081 C 
HETATM   10  C3  UNL     1      28.466  10.258  18.958  1.00  0.00     0.034 C 
HETATM   11  C4  UNL     1      28.107  11.552  18.279  1.00  0.00     0.123 C 
HETATM   12  N1  UNL     1      28.299  11.513  16.855  1.00  0.00    -0.381 N 
HETATM   13  C10 UNL     1      28.581  10.316  16.098  1.00  0.00     0.123 C 
HETATM   14  C11 UNL     1      28.486   9.045  16.862  1.00  0.00     0.034 C 
BRANCH  12  15
HETATM   15  C5  UNL     1      28.209  12.730  16.128  1.00  0.00     0.032 A 
HETATM   16  C6  UNL     1      28.936  12.917  14.970  1.00  0.00     0.046 A 
HETATM   17  C7  UNL     1      28.857  14.100  14.250  1.00  0.00     0.089 A 
HETATM   18  N2  UNL     1      28.073  15.101  14.657  1.00  0.00    -0.375 N 
HETATM   19  C8  UNL     1      27.357  14.942  15.783  1.00  0.00     0.089 A 
ATOM     20  H2  UNL     1      28.019  15.969  14.125  1.00  0.00     0.164 HD
HETATM   21  C9  UNL     1      27.408  13.779  16.527  1.00  0.00     0.046 A 
ENDBRANCH  12  15
ENDBRANCH   2   9
BRANCH   6  22
HETATM   22  S1  UNL     1      24.123   7.024  13.870  1.00  0.00     0.264 S 
HETATM   23  O2  UNL     1      25.132   7.930  13.180  1.00  0.00    -0.200 OA
HETATM   24  O3  UNL     1      24.494   5.617  13.498  1.00  0.00    -0.200 OA
BRANCH  22  25
HETATM   25  C14 UNL     1      22.513   7.330  13.201  1.00  0.00     0.080 A 
HETATM   26  C15 UNL     1      21.838   8.480  13.534  1.00  0.00     0.026 A 
HETATM   27  C16 UNL     1      20.589   8.725  13.017  1.00  0.00     0.014 A 
HETATM   28  C17 UNL     1      19.993   7.812  12.153  1.00  0.00    -0.024 A 
HETATM   29  C18 UNL     1      18.731   8.049  11.625  1.00  0.00     0.036 A 
HETATM   30  C22 UNL     1      20.658   6.655  11.811  1.00  0.00    -0.024 A 
HETATM   31  C19 UNL     1      18.128   7.144  10.761  1.00  0.00     0.034 A 
HETATM   32 CL1  UNL     1      16.525   7.503  10.125  1.00  0.00    -0.084 Cl
HETATM   33  C20 UNL     1      18.802   5.991  10.427  1.00  0.00     0.024 A 
HETATM   34  C21 UNL     1      20.060   5.759  10.957  1.00  0.00     0.014 A 
HETATM   35  C23 UNL     1      21.926   6.439  12.355  1.00  0.00     0.037 A 
ENDBRANCH  22  25
ENDBRANCH   6  22
TORSDOF 4
ENDMDL
