MODEL 3
REMARK VINA RESULT: -9.289473353      2.279      4.082
REMARK  4 active torsions:
REMARK  status: ('A' for Active; 'I' for Inactive)
REMARK    1  A    between atoms: C1_2  and  C2_3 
REMARK       I    between atoms: C1_2  and  N3_16 
REMARK    2  A    between atoms: N1_6  and  C5_7 
REMARK    3  A    between atoms: N4_19  and  S1_20 
REMARK    4  A    between atoms: S1_20  and  C14_23 
ROOT
HETATM    1  O1  UNL     1       6.401  49.554  63.574  1.00  0.00    -0.273 OA
HETATM    2  C1  UNL     1       6.765  48.829  62.592  1.00  0.00     0.224 C 
HETATM    3  N3  UNL     1       7.997  49.160  61.968  1.00  0.00    -0.345 N 
HETATM    4  C12 UNL     1       8.789  50.286  62.418  1.00  0.00     0.147 C 
HETATM    5  C13 UNL     1      10.113  49.761  62.887  1.00  0.00     0.160 C 
HETATM    6  N4  UNL     1      10.682  48.770  62.060  1.00  0.00    -0.283 N 
HETATM    7  C24 UNL     1      10.007  48.342  60.924  1.00  0.00     0.096 C 
HETATM    8  C25 UNL     1       8.539  48.404  60.866  1.00  0.00     0.171 C 
ENDROOT
BRANCH   2   9
HETATM    9  C2  UNL     1       5.886  47.725  62.191  1.00  0.00     0.081 C 
HETATM   10  C3  UNL     1       5.445  47.776  60.748  1.00  0.00     0.034 C 
HETATM   11  C4  UNL     1       4.840  49.136  60.526  1.00  0.00     0.123 C 
HETATM   12  N1  UNL     1       3.880  49.496  61.533  1.00  0.00    -0.381 N 
HETATM   13  C10 UNL     1       3.661  48.764  62.758  1.00  0.00     0.123 C 
HETATM   14  C11 UNL     1       4.636  47.675  63.029  1.00  0.00     0.034 C 
BRANCH  12  15
HETATM   15  C5  UNL     1       3.080  50.651  61.320  1.00  0.00     0.032 A 
HETATM   16  C6  UNL     1       3.615  51.916  61.452  1.00  0.00     0.046 A 
HETATM   17  C7  UNL     1       2.845  53.052  61.247  1.00  0.00     0.089 A 
HETATM   18  N2  UNL     1       1.556  52.957  60.916  1.00  0.00    -0.375 N 
HETATM   19  C8  UNL     1       1.012  51.735  60.782  1.00  0.00     0.089 A 
ATOM     20  H2  UNL     1       0.995  53.795  60.767  1.00  0.00     0.164 HD
HETATM   21  C9  UNL     1       1.746  50.581  60.978  1.00  0.00     0.046 A 
ENDBRANCH  12  15
ENDBRANCH   2   9
BRANCH   6  22
HETATM   22  S1  UNL     1      11.911  47.820  62.693  1.00  0.00     0.264 S 
HETATM   23  O2  UNL     1      11.708  47.505  64.168  1.00  0.00    -0.200 OA
HETATM   24  O3  UNL     1      11.938  46.499  61.978  1.00  0.00    -0.200 OA
BRANCH  22  25
HETATM   25  C14 UNL     1      13.501  48.564  62.470  1.00  0.00     0.080 A 
HETATM   26  C15 UNL     1      14.138  49.157  63.535  1.00  0.00     0.026 A 
HETATM   27  C16 UNL     1      15.373  49.734  63.369  1.00  0.00     0.014 A 
HETATM   28  C17 UNL     1      15.992  49.727  62.123  1.00  0.00    -0.024 A 
HETATM   29  C18 UNL     1      17.240  50.309  61.944  1.00  0.00     0.036 A 
HETATM   30  C22 UNL     1      15.365  49.138  61.047  1.00  0.00    -0.024 A 
HETATM   31  C19 UNL     1      17.866  50.307  60.704  1.00  0.00     0.034 A 
HETATM   32 CL1  UNL     1      19.450  51.061  60.542  1.00  0.00    -0.084 Cl
HETATM   33  C20 UNL     1      17.230  49.715  59.636  1.00  0.00     0.024 A 
HETATM   34  C21 UNL     1      15.985  49.137  59.820  1.00  0.00     0.014 A 
HETATM   35  C23 UNL     1      14.110  48.560  61.252  1.00  0.00     0.037 A 
ENDBRANCH  22  25
ENDBRANCH   6  22
TORSDOF 4
ENDMDL
