MODEL 2
REMARK VINA RESULT: -9.292076082      2.260      3.251
REMARK  4 active torsions:
REMARK  status: ('A' for Active; 'I' for Inactive)
REMARK    1  A    between atoms: C1_2  and  C2_3 
REMARK       I    between atoms: C1_2  and  N3_16 
REMARK    2  A    between atoms: N1_6  and  C5_7 
REMARK    3  A    between atoms: N4_19  and  S1_20 
REMARK    4  A    between atoms: S1_20  and  C14_23 
ROOT
HETATM    1  O1  UNL     1       9.696  47.777  58.105  1.00  0.00    -0.273 OA
HETATM    2  C1  UNL     1       9.207  47.502  59.249  1.00  0.00     0.224 C 
HETATM    3  N3  UNL     1      10.112  47.055  60.246  1.00  0.00    -0.345 N 
HETATM    4  C12 UNL     1      11.524  46.900  59.966  1.00  0.00     0.147 C 
HETATM    5  C13 UNL     1      12.279  47.832  60.865  1.00  0.00     0.160 C 
HETATM    6  N4  UNL     1      11.814  47.875  62.196  1.00  0.00    -0.283 N 
HETATM    7  C24 UNL     1      10.724  47.104  62.576  1.00  0.00     0.096 C 
HETATM    8  C25 UNL     1       9.694  46.739  61.591  1.00  0.00     0.171 C 
ENDROOT
BRANCH   2   9
HETATM    9  C2  UNL     1       7.760  47.667  59.433  1.00  0.00     0.081 C 
HETATM   10  C3  UNL     1       6.922  47.059  58.335  1.00  0.00     0.034 C 
HETATM   11  C4  UNL     1       7.430  47.625  57.037  1.00  0.00     0.123 C 
HETATM   12  N1  UNL     1       7.565  49.055  57.061  1.00  0.00    -0.381 N 
HETATM   13  C10 UNL     1       7.457  49.870  58.248  1.00  0.00     0.123 C 
HETATM   14  C11 UNL     1       7.372  49.118  59.528  1.00  0.00     0.034 C 
BRANCH  12  15
HETATM   15  C5  UNL     1       7.822  49.730  55.837  1.00  0.00     0.032 A 
HETATM   16  C6  UNL     1       8.386  49.065  54.768  1.00  0.00     0.046 A 
HETATM   17  C7  UNL     1       8.642  49.712  53.568  1.00  0.00     0.089 A 
HETATM   18  N2  UNL     1       8.350  51.005  53.409  1.00  0.00    -0.375 N 
HETATM   19  C8  UNL     1       7.801  51.674  54.436  1.00  0.00     0.089 A 
ATOM     20  H2  UNL     1       8.541  51.476  52.524  1.00  0.00     0.164 HD
HETATM   21  C9  UNL     1       7.531  51.065  55.647  1.00  0.00     0.046 A 
ENDBRANCH  12  15
ENDBRANCH   2   9
BRANCH   6  22
HETATM   22  S1  UNL     1      12.281  49.168  63.157  1.00  0.00     0.264 S 
HETATM   23  O2  UNL     1      11.401  50.394  62.960  1.00  0.00    -0.200 OA
HETATM   24  O3  UNL     1      12.154  48.785  64.603  1.00  0.00    -0.200 OA
BRANCH  22  25
HETATM   25  C14 UNL     1      13.972  49.615  62.884  1.00  0.00     0.080 A 
HETATM   26  C15 UNL     1      14.759  50.004  63.942  1.00  0.00     0.026 A 
HETATM   27  C16 UNL     1      16.073  50.350  63.737  1.00  0.00     0.014 A 
HETATM   28  C17 UNL     1      16.620  50.311  62.459  1.00  0.00    -0.024 A 
HETATM   29  C18 UNL     1      17.946  50.659  62.241  1.00  0.00     0.036 A 
HETATM   30  C22 UNL     1      15.843  49.923  61.389  1.00  0.00    -0.024 A 
HETATM   31  C19 UNL     1      18.503  50.623  60.968  1.00  0.00     0.034 A 
HETATM   32 CL1  UNL     1      20.191  51.076  60.757  1.00  0.00    -0.084 Cl
HETATM   33  C20 UNL     1      17.716  50.233  59.908  1.00  0.00     0.024 A 
HETATM   34  C21 UNL     1      16.394  49.888  60.130  1.00  0.00     0.014 A 
HETATM   35  C23 UNL     1      14.511  49.578  61.635  1.00  0.00     0.037 A 
ENDBRANCH  22  25
ENDBRANCH   6  22
TORSDOF 4
ENDMDL
