MODEL 1
REMARK VINA RESULT: -9.347268987      0.000      0.000
REMARK  4 active torsions:
REMARK  status: ('A' for Active; 'I' for Inactive)
REMARK    1  A    between atoms: C1_2  and  C2_3 
REMARK       I    between atoms: C1_2  and  N3_16 
REMARK    2  A    between atoms: N1_6  and  C5_7 
REMARK    3  A    between atoms: N4_19  and  S1_20 
REMARK    4  A    between atoms: S1_20  and  C14_23 
ROOT
HETATM    1  O1  UNL     1       5.757  47.511  62.564  1.00  0.00    -0.273 OA
HETATM    2  C1  UNL     1       6.350  48.620  62.361  1.00  0.00     0.224 C 
HETATM    3  N3  UNL     1       7.667  48.749  62.872  1.00  0.00    -0.345 N 
HETATM    4  C12 UNL     1       8.298  47.674  63.609  1.00  0.00     0.147 C 
HETATM    5  C13 UNL     1       9.518  47.246  62.849  1.00  0.00     0.160 C 
HETATM    6  N4  UNL     1      10.290  48.305  62.327  1.00  0.00    -0.283 N 
HETATM    7  C24 UNL     1       9.886  49.619  62.519  1.00  0.00     0.096 C 
HETATM    8  C25 UNL     1       8.461  49.941  62.687  1.00  0.00     0.171 C 
ENDROOT
BRANCH   2   9
HETATM    9  C2  UNL     1       5.623  49.661  61.626  1.00  0.00     0.081 C 
HETATM   10  C3  UNL     1       4.668  49.132  60.583  1.00  0.00     0.034 C 
HETATM   11  C4  UNL     1       5.461  48.212  59.695  1.00  0.00     0.123 C 
HETATM   12  N1  UNL     1       6.694  48.793  59.240  1.00  0.00    -0.381 N 
HETATM   13  C10 UNL     1       7.254  50.026  59.739  1.00  0.00     0.123 C 
HETATM   14  C11 UNL     1       6.561  50.604  60.921  1.00  0.00     0.034 C 
BRANCH  12  15
HETATM   15  C5  UNL     1       7.424  48.118  58.225  1.00  0.00     0.032 A 
HETATM   16  C6  UNL     1       8.207  47.023  58.527  1.00  0.00     0.046 A 
HETATM   17  C7  UNL     1       8.925  46.355  57.545  1.00  0.00     0.089 A 
HETATM   18  N2  UNL     1       8.881  46.752  56.271  1.00  0.00    -0.375 N 
HETATM   19  C8  UNL     1       8.125  47.817  55.954  1.00  0.00     0.089 A 
ATOM     20  H2  UNL     1       9.411  46.258  55.554  1.00  0.00     0.164 HD
HETATM   21  C9  UNL     1       7.396  48.508  56.902  1.00  0.00     0.046 A 
ENDBRANCH  12  15
ENDBRANCH   2   9
BRANCH   6  22
HETATM   22  S1  UNL     1      11.401  47.954  61.121  1.00  0.00     0.264 S 
HETATM   23  O2  UNL     1      11.542  46.460  60.869  1.00  0.00    -0.200 OA
HETATM   24  O3  UNL     1      10.939  48.559  59.827  1.00  0.00    -0.200 OA
BRANCH  22  25
HETATM   25  C14 UNL     1      12.995  48.637  61.474  1.00  0.00     0.080 A 
HETATM   26  C15 UNL     1      13.290  49.073  62.745  1.00  0.00     0.026 A 
HETATM   27  C16 UNL     1      14.526  49.602  63.027  1.00  0.00     0.014 A 
HETATM   28  C17 UNL     1      15.492  49.704  62.030  1.00  0.00    -0.024 A 
HETATM   29  C18 UNL     1      16.744  50.238  62.304  1.00  0.00     0.036 A 
HETATM   30  C22 UNL     1      15.210  49.272  60.752  1.00  0.00    -0.024 A 
HETATM   31  C19 UNL     1      17.715  50.345  61.316  1.00  0.00     0.034 A 
HETATM   32 CL1  UNL     1      19.284  51.031  61.726  1.00  0.00    -0.084 Cl
HETATM   33  C20 UNL     1      17.422  49.910  60.043  1.00  0.00     0.024 A 
HETATM   34  C21 UNL     1      16.171  49.379  59.775  1.00  0.00     0.014 A 
HETATM   35  C23 UNL     1      13.943  48.739  60.502  1.00  0.00     0.037 A 
ENDBRANCH  22  25
ENDBRANCH   6  22
TORSDOF 4
ENDMDL
