MODEL 6
REMARK VINA RESULT: -3.103812993      1.754      1.914
REMARK  1 active torsions:
REMARK  status: ('A' for Active; 'I' for Inactive)
REMARK    1  A    between atoms: C2_2  and  C3_4 
ROOT
HETATM    1  C1  UNL     1      96.331  61.163  -8.859  1.00  0.00     0.101 C 
HETATM    2  C2  UNL     1      95.963  61.776 -10.153  1.00  0.00     0.209 C 
HETATM    3  O1  UNL     1      96.771  61.805 -11.096  1.00  0.00    -0.288 OA
ENDROOT
BRANCH   2   4
HETATM    4  C3  UNL     1      94.648  62.341 -10.312  1.00  0.00     0.300 C 
HETATM    5  N1  UNL     1      93.691  61.586 -11.040  1.00  0.00    -0.054 NA
HETATM    6  O2  UNL     1      94.320  63.473  -9.832  1.00  0.00    -0.268 OA
ENDBRANCH   2   4
TORSDOF 1
ENDMDL
