MODEL 9
REMARK VINA RESULT: -3.063101017      3.716      4.588
REMARK  1 active torsions:
REMARK  status: ('A' for Active; 'I' for Inactive)
REMARK    1  A    between atoms: C2_2  and  C3_4 
ROOT
HETATM    1  C1  UNL     1      98.046  60.147 -10.673  1.00  0.00     0.101 C 
HETATM    2  C2  UNL     1      97.973  60.829  -9.363  1.00  0.00     0.209 C 
HETATM    3  O1  UNL     1      96.912  61.342  -8.971  1.00  0.00    -0.288 OA
ENDROOT
BRANCH   2   4
HETATM    4  C3  UNL     1      99.152  60.890  -8.539  1.00  0.00     0.300 C 
HETATM    5  N1  UNL     1      99.140  60.164  -7.319  1.00  0.00    -0.054 NA
HETATM    6  O2  UNL     1     100.185  61.561  -8.859  1.00  0.00    -0.268 OA
ENDBRANCH   2   4
TORSDOF 1
ENDMDL
