MODEL 10
REMARK VINA RESULT: -3.062360380      3.836      4.786
REMARK  1 active torsions:
REMARK  status: ('A' for Active; 'I' for Inactive)
REMARK    1  A    between atoms: C2_2  and  C3_4 
ROOT
HETATM    1  C1  UNL     1      96.688  60.895  -8.495  1.00  0.00     0.101 C 
HETATM    2  C2  UNL     1      97.971  61.292  -9.114  1.00  0.00     0.209 C 
HETATM    3  O1  UNL     1      97.998  61.823 -10.236  1.00  0.00    -0.288 OA
ENDROOT
BRANCH   2   4
HETATM    4  C3  UNL     1      99.198  61.057  -8.397  1.00  0.00     0.300 C 
HETATM    5  N1  UNL     1      99.170  60.108  -7.341  1.00  0.00    -0.054 NA
HETATM    6  O2  UNL     1     100.284  61.660  -8.670  1.00  0.00    -0.268 OA
ENDBRANCH   2   4
TORSDOF 1
ENDMDL
