MODEL 6
REMARK VINA RESULT: -7.846113303      1.353      1.659
REMARK  17 active torsions:
REMARK  status: ('A' for Active; 'I' for Inactive)
REMARK    1  A    between atoms: O1_2  and  C2_3 
REMARK    2  A    between atoms: C2_3  and  C3_5 
REMARK    3  A    between atoms: C4_6  and  O3_7 
REMARK    4  A    between atoms: C8_12  and  O4_13 
REMARK    5  A    between atoms: O4_13  and  C9_14 
REMARK    6  A    between atoms: C9_14  and  C10_15 
REMARK    7  A    between atoms: C10_15  and  C11_16 
REMARK    8  A    between atoms: C11_16  and  C12_17 
REMARK    9  A    between atoms: C12_17  and  N1_18 
REMARK       I    between atoms: N1_18  and  C13_20 
REMARK   10  A    between atoms: C13_20  and  C14_22 
REMARK   11  A    between atoms: C14_22  and  C15_23 
REMARK   12  A    between atoms: C14_22  and  N2_37 
REMARK   13  A    between atoms: C15_23  and  C16_24 
REMARK   14  A    between atoms: C19_27  and  O6_28 
REMARK   15  A    between atoms: O6_28  and  C20_29 
REMARK   16  A    between atoms: C20_29  and  C21_30 
REMARK   17  A    between atoms: C22_33  and  O9_34 
REMARK       I    between atoms: N2_37  and  C24_39 
ROOT
HETATM    1  N1  UNL     1      28.942  29.934  17.673  1.00  0.00    -0.359 N 
ATOM      2  H1  UNL     1      29.106  30.271  18.623  1.00  0.00     0.162 HD
HETATM    3  C13 UNL     1      29.823  30.335  16.626  1.00  0.00     0.240 C 
HETATM    4  O5  UNL     1      29.608  29.923  15.472  1.00  0.00    -0.271 OA
ENDROOT
BRANCH   3   5
HETATM    5  C14 UNL     1      30.973  31.210  16.895  1.00  0.00     0.180 C 
BRANCH   5   6
HETATM    6  C15 UNL     1      31.107  31.628  18.345  1.00  0.00     0.073 C 
BRANCH   6   7
HETATM    7  C16 UNL     1      32.142  30.850  19.061  1.00  0.00    -0.053 A 
HETATM    8  C17 UNL     1      31.750  29.937  20.049  1.00  0.00     0.010 A 
HETATM    9  C18 UNL     1      32.661  29.186  20.762  1.00  0.00     0.040 A 
HETATM   10  C19 UNL     1      34.011  29.308  20.524  1.00  0.00     0.102 A 
HETATM   11  C22 UNL     1      34.412  30.203  19.552  1.00  0.00     0.099 A 
HETATM   12  C23 UNL     1      33.494  30.961  18.833  1.00  0.00     0.046 A 
BRANCH  10  13
HETATM   13  O6  UNL     1      34.922  28.545  21.246  1.00  0.00    -0.338 OA
BRANCH  13  14
HETATM   14  C20 UNL     1      34.857  27.142  21.187  1.00  0.00     0.288 C 
BRANCH  14  15
HETATM   15  C21 UNL     1      35.456  26.521  22.381  1.00  0.00     0.198 C 
HETATM   16  O7  UNL     1      35.632  27.191  23.425  1.00  0.00    -0.646 OA
HETATM   17  O8  UNL     1      35.830  25.196  22.365  1.00  0.00    -0.646 OA
ENDBRANCH  14  15
ENDBRANCH  13  14
ENDBRANCH  10  13
BRANCH  11  18
HETATM   18  O9  UNL     1      35.750  30.343  19.295  1.00  0.00    -0.358 OA
ATOM     19  H9  UNL     1      36.021  30.838  18.530  1.00  0.00     0.217 HD
ENDBRANCH  11  18
ENDBRANCH   6   7
ENDBRANCH   5   6
BRANCH   5  20
HETATM   20  N2  UNL     1      30.716  32.436  16.109  1.00  0.00    -0.348 N 
HETATM   21  C24 UNL     1      31.709  32.957  15.278  1.00  0.00     0.214 C 
HETATM   22  C25 UNL     1      31.379  34.200  14.514  1.00  0.00     0.117 C 
HETATM   23  O10 UNL     1      32.855  32.447  15.136  1.00  0.00    -0.274 OA
ATOM     24  H2  UNL     1      29.811  32.903  16.175  1.00  0.00     0.163 HD
ENDBRANCH   5  20
ENDBRANCH   3   5
BRANCH   1  25
HETATM   25  C12 UNL     1      27.823  29.060  17.415  1.00  0.00     0.122 C 
BRANCH  25  26
HETATM   26  C11 UNL     1      26.522  29.498  17.977  1.00  0.00     0.022 C 
BRANCH  26  27
HETATM   27  C10 UNL     1      26.293  29.011  19.391  1.00  0.00     0.028 C 
BRANCH  27  28
HETATM   28  C9  UNL     1      26.402  30.127  20.391  1.00  0.00     0.175 C 
BRANCH  28  29
HETATM   29  O4  UNL     1      25.272  30.442  21.100  1.00  0.00    -0.350 OA
BRANCH  29  30
HETATM   30  C8  UNL     1      24.029  30.662  20.573  1.00  0.00     0.087 A 
HETATM   31  C3  UNL     1      22.950  29.836  20.992  1.00  0.00     0.105 A 
HETATM   32  C4  UNL     1      21.675  29.990  20.519  1.00  0.00     0.084 A 
HETATM   33  C5  UNL     1      21.391  30.997  19.581  1.00  0.00     0.038 A 
HETATM   34  C6  UNL     1      22.413  31.799  19.169  1.00  0.00     0.005 A 
HETATM   35  C7  UNL     1      23.692  31.630  19.656  1.00  0.00     0.038 A 
BRANCH  31  36
HETATM   36  C2  UNL     1      23.286  28.818  21.953  1.00  0.00     0.298 C 
HETATM   37  O2  UNL     1      23.221  28.946  23.194  1.00  0.00    -0.259 OA
BRANCH  36  38
HETATM   38  O1  UNL     1      23.734  27.540  21.545  1.00  0.00    -0.322 OA
HETATM   39  C1  UNL     1      24.820  26.901  22.183  1.00  0.00     0.213 C 
ENDBRANCH  36  38
ENDBRANCH  31  36
BRANCH  32  40
HETATM   40  O3  UNL     1      20.594  29.234  20.878  1.00  0.00    -0.360 OA
ATOM     41  H3  UNL     1      19.955  28.861  20.282  1.00  0.00     0.217 HD
ENDBRANCH  32  40
ENDBRANCH  29  30
ENDBRANCH  28  29
ENDBRANCH  27  28
ENDBRANCH  26  27
ENDBRANCH  25  26
ENDBRANCH   1  25
TORSDOF 17
ENDMDL
