MODEL 5
REMARK VINA RESULT: -8.085624684      0.733      1.278
REMARK  17 active torsions:
REMARK  status: ('A' for Active; 'I' for Inactive)
REMARK    1  A    between atoms: O1_2  and  C2_3 
REMARK    2  A    between atoms: C2_3  and  C3_5 
REMARK    3  A    between atoms: C4_6  and  O3_7 
REMARK    4  A    between atoms: C8_12  and  O4_13 
REMARK    5  A    between atoms: O4_13  and  C9_14 
REMARK    6  A    between atoms: C9_14  and  C10_15 
REMARK    7  A    between atoms: C10_15  and  C11_16 
REMARK    8  A    between atoms: C11_16  and  C12_17 
REMARK    9  A    between atoms: C12_17  and  N1_18 
REMARK       I    between atoms: N1_18  and  C13_20 
REMARK   10  A    between atoms: C13_20  and  C14_22 
REMARK   11  A    between atoms: C14_22  and  C15_23 
REMARK   12  A    between atoms: C14_22  and  N2_37 
REMARK   13  A    between atoms: C15_23  and  C16_24 
REMARK   14  A    between atoms: C19_27  and  O6_28 
REMARK   15  A    between atoms: O6_28  and  C20_29 
REMARK   16  A    between atoms: C20_29  and  C21_30 
REMARK   17  A    between atoms: C22_33  and  O9_34 
REMARK       I    between atoms: N2_37  and  C24_39 
ROOT
HETATM    1  N1  UNL     1      28.546  30.306  16.291  1.00  0.00    -0.359 N 
ATOM      2  H1  UNL     1      28.511  31.232  15.865  1.00  0.00     0.162 HD
HETATM    3  C13 UNL     1      29.711  29.911  17.013  1.00  0.00     0.240 C 
HETATM    4  O5  UNL     1      29.746  28.776  17.520  1.00  0.00    -0.271 OA
ENDROOT
BRANCH   3   5
HETATM    5  C14 UNL     1      30.853  30.824  17.169  1.00  0.00     0.180 C 
BRANCH   5   6
HETATM    6  C15 UNL     1      31.074  31.301  18.589  1.00  0.00     0.073 C 
BRANCH   6   7
HETATM    7  C16 UNL     1      32.216  30.623  19.240  1.00  0.00    -0.053 A 
HETATM    8  C17 UNL     1      33.514  30.868  18.773  1.00  0.00     0.010 A 
HETATM    9  C18 UNL     1      34.624  30.265  19.326  1.00  0.00     0.040 A 
HETATM   10  C19 UNL     1      34.494  29.384  20.375  1.00  0.00     0.102 A 
HETATM   11  C22 UNL     1      33.221  29.132  20.847  1.00  0.00     0.099 A 
HETATM   12  C23 UNL     1      32.102  29.741  20.290  1.00  0.00     0.046 A 
BRANCH  10  13
HETATM   13  O6  UNL     1      35.619  28.781  20.929  1.00  0.00    -0.338 OA
BRANCH  13  14
HETATM   14  C20 UNL     1      35.551  28.235  22.222  1.00  0.00     0.288 C 
BRANCH  14  15
HETATM   15  C21 UNL     1      35.707  26.770  22.201  1.00  0.00     0.198 C 
HETATM   16  O7  UNL     1      36.647  26.241  21.565  1.00  0.00    -0.646 OA
HETATM   17  O8  UNL     1      34.821  25.965  22.880  1.00  0.00    -0.646 OA
ENDBRANCH  14  15
ENDBRANCH  13  14
ENDBRANCH  10  13
BRANCH  11  18
HETATM   18  O9  UNL     1      33.064  28.259  21.891  1.00  0.00    -0.358 OA
ATOM     19  H9  UNL     1      32.603  27.442  21.740  1.00  0.00     0.217 HD
ENDBRANCH  11  18
ENDBRANCH   6   7
ENDBRANCH   5   6
BRANCH   5  20
HETATM   20  N2  UNL     1      30.510  32.012  16.357  1.00  0.00    -0.348 N 
HETATM   21  C24 UNL     1      31.498  32.667  15.621  1.00  0.00     0.214 C 
HETATM   22  C25 UNL     1      31.078  33.861  14.825  1.00  0.00     0.117 C 
HETATM   23  O10 UNL     1      32.710  32.315  15.589  1.00  0.00    -0.274 OA
ATOM     24  H2  UNL     1      29.549  32.353  16.336  1.00  0.00     0.163 HD
ENDBRANCH   5  20
ENDBRANCH   3   5
BRANCH   1  25
HETATM   25  C12 UNL     1      27.417  29.418  16.152  1.00  0.00     0.122 C 
BRANCH  25  26
HETATM   26  C11 UNL     1      26.266  29.697  17.045  1.00  0.00     0.022 C 
BRANCH  26  27
HETATM   27  C10 UNL     1      26.283  28.869  18.312  1.00  0.00     0.028 C 
BRANCH  27  28
HETATM   28  C9  UNL     1      26.643  29.694  19.515  1.00  0.00     0.175 C 
BRANCH  28  29
HETATM   29  O4  UNL     1      26.220  29.235  20.735  1.00  0.00    -0.350 OA
BRANCH  29  30
HETATM   30  C8  UNL     1      24.985  29.442  21.286  1.00  0.00     0.087 A 
HETATM   31  C3  UNL     1      24.234  28.317  21.728  1.00  0.00     0.105 A 
HETATM   32  C4  UNL     1      22.994  28.434  22.294  1.00  0.00     0.084 A 
HETATM   33  C5  UNL     1      22.413  29.703  22.459  1.00  0.00     0.038 A 
HETATM   34  C6  UNL     1      23.119  30.792  22.041  1.00  0.00     0.005 A 
HETATM   35  C7  UNL     1      24.368  30.657  21.473  1.00  0.00     0.038 A 
BRANCH  31  36
HETATM   36  C2  UNL     1      24.867  27.037  21.541  1.00  0.00     0.298 C 
HETATM   37  O2  UNL     1      25.455  26.386  22.429  1.00  0.00    -0.259 OA
BRANCH  36  38
HETATM   38  O1  UNL     1      24.867  26.395  20.280  1.00  0.00    -0.322 OA
HETATM   39  C1  UNL     1      25.948  25.585  19.866  1.00  0.00     0.213 C 
ENDBRANCH  36  38
ENDBRANCH  31  36
BRANCH  32  40
HETATM   40  O3  UNL     1      22.219  27.398  22.741  1.00  0.00    -0.360 OA
ATOM     41  H3  UNL     1      22.512  26.504  22.875  1.00  0.00     0.217 HD
ENDBRANCH  32  40
ENDBRANCH  29  30
ENDBRANCH  28  29
ENDBRANCH  27  28
ENDBRANCH  26  27
ENDBRANCH  25  26
ENDBRANCH   1  25
TORSDOF 17
ENDMDL
