MODEL 9
REMARK VINA RESULT: -7.815212711      5.408     10.024
REMARK  17 active torsions:
REMARK  status: ('A' for Active; 'I' for Inactive)
REMARK    1  A    between atoms: O1_2  and  C2_3 
REMARK    2  A    between atoms: C2_3  and  C3_5 
REMARK    3  A    between atoms: C4_6  and  O3_7 
REMARK    4  A    between atoms: C8_12  and  O4_13 
REMARK    5  A    between atoms: O4_13  and  C9_14 
REMARK    6  A    between atoms: C9_14  and  C10_15 
REMARK    7  A    between atoms: C10_15  and  C11_16 
REMARK    8  A    between atoms: C11_16  and  C12_17 
REMARK    9  A    between atoms: C12_17  and  N1_18 
REMARK       I    between atoms: N1_18  and  C13_20 
REMARK   10  A    between atoms: C13_20  and  C14_22 
REMARK   11  A    between atoms: C14_22  and  C15_23 
REMARK   12  A    between atoms: C14_22  and  N2_37 
REMARK   13  A    between atoms: C15_23  and  C16_24 
REMARK   14  A    between atoms: C19_27  and  O6_28 
REMARK   15  A    between atoms: O6_28  and  C20_29 
REMARK   16  A    between atoms: C20_29  and  C21_30 
REMARK   17  A    between atoms: C22_33  and  O9_34 
REMARK       I    between atoms: N2_37  and  C24_39 
ROOT
HETATM    1  N1  UNL     1      31.534  33.456  15.233  1.00  0.00    -0.359 N 
ATOM      2  H1  UNL     1      32.395  33.697  15.725  1.00  0.00     0.162 HD
HETATM    3  C13 UNL     1      30.880  32.224  15.527  1.00  0.00     0.240 C 
HETATM    4  O5  UNL     1      29.836  31.938  14.914  1.00  0.00    -0.271 OA
ENDROOT
BRANCH   3   5
HETATM    5  C14 UNL     1      31.415  31.304  16.541  1.00  0.00     0.180 C 
BRANCH   5   6
HETATM    6  C15 UNL     1      31.908  31.989  17.799  1.00  0.00     0.073 C 
BRANCH   6   7
HETATM    7  C16 UNL     1      32.451  31.031  18.786  1.00  0.00    -0.053 A 
HETATM    8  C17 UNL     1      31.567  30.238  19.530  1.00  0.00     0.010 A 
HETATM    9  C18 UNL     1      32.003  29.331  20.472  1.00  0.00     0.040 A 
HETATM   10  C19 UNL     1      33.347  29.167  20.719  1.00  0.00     0.102 A 
HETATM   11  C22 UNL     1      34.232  29.940  19.993  1.00  0.00     0.099 A 
HETATM   12  C23 UNL     1      33.792  30.855  19.043  1.00  0.00     0.046 A 
BRANCH  10  13
HETATM   13  O6  UNL     1      33.779  28.247  21.669  1.00  0.00    -0.338 OA
BRANCH  13  14
HETATM   14  C20 UNL     1      34.163  26.957  21.266  1.00  0.00     0.288 C 
BRANCH  14  15
HETATM   15  C21 UNL     1      35.502  26.607  21.770  1.00  0.00     0.198 C 
HETATM   16  O7  UNL     1      36.458  27.406  21.641  1.00  0.00    -0.646 OA
HETATM   17  O8  UNL     1      35.719  25.397  22.389  1.00  0.00    -0.646 OA
ENDBRANCH  14  15
ENDBRANCH  13  14
ENDBRANCH  10  13
BRANCH  11  18
HETATM   18  O9  UNL     1      35.575  29.796  20.219  1.00  0.00    -0.358 OA
ATOM     19  H9  UNL     1      36.186  30.265  19.663  1.00  0.00     0.217 HD
ENDBRANCH  11  18
ENDBRANCH   6   7
ENDBRANCH   5   6
BRANCH   5  20
HETATM   20  N2  UNL     1      32.587  30.667  15.904  1.00  0.00    -0.348 N 
HETATM   21  C24 UNL     1      32.430  29.496  15.159  1.00  0.00     0.214 C 
HETATM   22  C25 UNL     1      33.659  28.908  14.543  1.00  0.00     0.117 C 
HETATM   23  O10 UNL     1      31.324  28.914  14.978  1.00  0.00    -0.274 OA
ATOM     24  H2  UNL     1      33.512  31.083  16.008  1.00  0.00     0.163 HD
ENDBRANCH   5  20
ENDBRANCH   3   5
BRANCH   1  25
HETATM   25  C12 UNL     1      31.001  34.370  14.250  1.00  0.00     0.122 C 
BRANCH  25  26
HETATM   26  C11 UNL     1      32.006  35.097  13.436  1.00  0.00     0.022 C 
BRANCH  26  27
HETATM   27  C10 UNL     1      33.430  34.706  13.766  1.00  0.00     0.028 C 
BRANCH  27  28
HETATM   28  C9  UNL     1      34.403  35.228  12.747  1.00  0.00     0.175 C 
BRANCH  28  29
HETATM   29  O4  UNL     1      35.727  35.244  13.100  1.00  0.00    -0.350 OA
BRANCH  29  30
HETATM   30  C8  UNL     1      36.279  35.980  14.114  1.00  0.00     0.087 A 
HETATM   31  C3  UNL     1      37.203  35.350  14.994  1.00  0.00     0.105 A 
HETATM   32  C4  UNL     1      37.804  36.012  16.029  1.00  0.00     0.084 A 
HETATM   33  C5  UNL     1      37.517  37.369  16.257  1.00  0.00     0.038 A 
HETATM   34  C6  UNL     1      36.634  37.988  15.423  1.00  0.00     0.005 A 
HETATM   35  C7  UNL     1      36.037  37.306  14.384  1.00  0.00     0.038 A 
BRANCH  31  36
HETATM   36  C2  UNL     1      37.468  33.961  14.724  1.00  0.00     0.298 C 
HETATM   37  O2  UNL     1      38.280  33.532  13.878  1.00  0.00    -0.259 OA
BRANCH  36  38
HETATM   38  O1  UNL     1      36.798  32.934  15.429  1.00  0.00    -0.322 OA
HETATM   39  C1  UNL     1      35.775  32.171  14.825  1.00  0.00     0.213 C 
ENDBRANCH  36  38
ENDBRANCH  31  36
BRANCH  32  40
HETATM   40  O3  UNL     1      38.699  35.471  16.910  1.00  0.00    -0.360 OA
ATOM     41  H3  UNL     1      38.512  35.221  17.808  1.00  0.00     0.217 HD
ENDBRANCH  32  40
ENDBRANCH  29  30
ENDBRANCH  28  29
ENDBRANCH  27  28
ENDBRANCH  26  27
ENDBRANCH  25  26
ENDBRANCH   1  25
TORSDOF 17
ENDMDL
