MODEL 14
REMARK VINA RESULT: -7.705831749      2.977      4.961
REMARK  17 active torsions:
REMARK  status: ('A' for Active; 'I' for Inactive)
REMARK    1  A    between atoms: O1_2  and  C2_3 
REMARK    2  A    between atoms: C2_3  and  C3_5 
REMARK    3  A    between atoms: C4_6  and  O3_7 
REMARK    4  A    between atoms: C8_12  and  O4_13 
REMARK    5  A    between atoms: O4_13  and  C9_14 
REMARK    6  A    between atoms: C9_14  and  C10_15 
REMARK    7  A    between atoms: C10_15  and  C11_16 
REMARK    8  A    between atoms: C11_16  and  C12_17 
REMARK    9  A    between atoms: C12_17  and  N1_18 
REMARK       I    between atoms: N1_18  and  C13_20 
REMARK   10  A    between atoms: C13_20  and  C14_22 
REMARK   11  A    between atoms: C14_22  and  C15_23 
REMARK   12  A    between atoms: C14_22  and  N2_37 
REMARK   13  A    between atoms: C15_23  and  C16_24 
REMARK   14  A    between atoms: C19_27  and  O6_28 
REMARK   15  A    between atoms: O6_28  and  C20_29 
REMARK   16  A    between atoms: C20_29  and  C21_30 
REMARK   17  A    between atoms: C22_33  and  O9_34 
REMARK       I    between atoms: N2_37  and  C24_39 
ROOT
HETATM    1  N1  UNL     1      29.999  28.429  16.028  1.00  0.00    -0.359 N 
ATOM      2  H1  UNL     1      30.902  28.319  15.565  1.00  0.00     0.162 HD
HETATM    3  C13 UNL     1      29.790  29.536  16.903  1.00  0.00     0.240 C 
HETATM    4  O5  UNL     1      28.688  29.653  17.467  1.00  0.00    -0.271 OA
ENDROOT
BRANCH   3   5
HETATM    5  C14 UNL     1      30.847  30.530  17.134  1.00  0.00     0.180 C 
BRANCH   5   6
HETATM    6  C15 UNL     1      30.944  31.008  18.568  1.00  0.00     0.073 C 
BRANCH   6   7
HETATM    7  C16 UNL     1      32.123  30.452  19.268  1.00  0.00    -0.053 A 
HETATM    8  C17 UNL     1      31.932  29.502  20.280  1.00  0.00     0.010 A 
HETATM    9  C18 UNL     1      32.984  28.948  20.980  1.00  0.00     0.040 A 
HETATM   10  C19 UNL     1      34.281  29.314  20.703  1.00  0.00     0.102 A 
HETATM   11  C22 UNL     1      34.485  30.249  19.708  1.00  0.00     0.099 A 
HETATM   12  C23 UNL     1      33.425  30.808  19.002  1.00  0.00     0.046 A 
BRANCH  10  13
HETATM   13  O6  UNL     1      35.336  28.749  21.412  1.00  0.00    -0.338 OA
BRANCH  13  14
HETATM   14  C20 UNL     1      35.068  27.896  22.496  1.00  0.00     0.288 C 
BRANCH  14  15
HETATM   15  C21 UNL     1      35.235  26.480  22.126  1.00  0.00     0.198 C 
HETATM   16  O7  UNL     1      36.375  26.014  21.895  1.00  0.00    -0.646 OA
HETATM   17  O8  UNL     1      34.140  25.651  22.029  1.00  0.00    -0.646 OA
ENDBRANCH  14  15
ENDBRANCH  13  14
ENDBRANCH  10  13
BRANCH  11  18
HETATM   18  O9  UNL     1      35.767  30.631  19.413  1.00  0.00    -0.358 OA
ATOM     19  H9  UNL     1      36.432  29.961  19.308  1.00  0.00     0.217 HD
ENDBRANCH  11  18
ENDBRANCH   6   7
ENDBRANCH   5   6
BRANCH   5  20
HETATM   20  N2  UNL     1      30.465  31.697  16.310  1.00  0.00    -0.348 N 
HETATM   21  C24 UNL     1      31.448  32.459  15.676  1.00  0.00     0.214 C 
HETATM   22  C25 UNL     1      30.988  33.625  14.859  1.00  0.00     0.117 C 
HETATM   23  O10 UNL     1      32.686  32.224  15.750  1.00  0.00    -0.274 OA
ATOM     24  H2  UNL     1      29.482  31.946  16.205  1.00  0.00     0.163 HD
ENDBRANCH   5  20
ENDBRANCH   3   5
BRANCH   1  25
HETATM   25  C12 UNL     1      28.956  27.461  15.785  1.00  0.00     0.122 C 
BRANCH  25  26
HETATM   26  C11 UNL     1      28.893  26.330  16.743  1.00  0.00     0.022 C 
BRANCH  26  27
HETATM   27  C10 UNL     1      29.217  24.995  16.107  1.00  0.00     0.028 C 
BRANCH  27  28
HETATM   28  C9  UNL     1      28.944  23.850  17.040  1.00  0.00     0.175 C 
BRANCH  28  29
HETATM   29  O4  UNL     1      27.649  23.681  17.457  1.00  0.00    -0.350 OA
BRANCH  29  30
HETATM   30  C8  UNL     1      26.982  22.490  17.541  1.00  0.00     0.087 A 
HETATM   31  C3  UNL     1      25.634  22.489  17.996  1.00  0.00     0.105 A 
HETATM   32  C4  UNL     1      24.892  21.345  18.105  1.00  0.00     0.084 A 
HETATM   33  C5  UNL     1      25.458  20.106  17.760  1.00  0.00     0.038 A 
HETATM   34  C6  UNL     1      26.748  20.087  17.322  1.00  0.00     0.005 A 
HETATM   35  C7  UNL     1      27.482  21.250  17.217  1.00  0.00     0.038 A 
BRANCH  31  36
HETATM   36  C2  UNL     1      25.095  23.780  18.338  1.00  0.00     0.298 C 
HETATM   37  O2  UNL     1      24.457  24.524  17.564  1.00  0.00    -0.259 OA
BRANCH  36  38
HETATM   38  O1  UNL     1      25.255  24.325  19.633  1.00  0.00    -0.322 OA
HETATM   39  C1  UNL     1      25.810  25.608  19.830  1.00  0.00     0.213 C 
ENDBRANCH  36  38
ENDBRANCH  31  36
BRANCH  32  40
HETATM   40  O3  UNL     1      23.595  21.272  18.534  1.00  0.00    -0.360 OA
ATOM     41  H3  UNL     1      23.309  20.967  19.387  1.00  0.00     0.217 HD
ENDBRANCH  32  40
ENDBRANCH  29  30
ENDBRANCH  28  29
ENDBRANCH  27  28
ENDBRANCH  26  27
ENDBRANCH  25  26
ENDBRANCH   1  25
TORSDOF 17
ENDMDL
