MODEL 1
REMARK VINA RESULT: -8.980236262      0.000      0.000
REMARK  17 active torsions:
REMARK  status: ('A' for Active; 'I' for Inactive)
REMARK    1  A    between atoms: O1_2  and  C2_3 
REMARK    2  A    between atoms: C2_3  and  C3_5 
REMARK    3  A    between atoms: C4_6  and  O3_7 
REMARK    4  A    between atoms: C8_12  and  O4_13 
REMARK    5  A    between atoms: O4_13  and  C9_14 
REMARK    6  A    between atoms: C9_14  and  C10_15 
REMARK    7  A    between atoms: C10_15  and  C11_16 
REMARK    8  A    between atoms: C11_16  and  C12_17 
REMARK    9  A    between atoms: C12_17  and  N1_18 
REMARK       I    between atoms: N1_18  and  C13_20 
REMARK   10  A    between atoms: C13_20  and  C14_22 
REMARK   11  A    between atoms: C14_22  and  C15_23 
REMARK   12  A    between atoms: C14_22  and  N2_37 
REMARK   13  A    between atoms: C15_23  and  C16_24 
REMARK   14  A    between atoms: C19_27  and  O6_28 
REMARK   15  A    between atoms: O6_28  and  C20_29 
REMARK   16  A    between atoms: C20_29  and  C21_30 
REMARK   17  A    between atoms: C22_33  and  O9_34 
REMARK       I    between atoms: N2_37  and  C24_39 
ROOT
HETATM    1  N1  UNL     1      28.370  30.030  17.234  1.00  0.00    -0.359 N 
ATOM      2  H1  UNL     1      28.148  30.949  17.619  1.00  0.00     0.162 HD
HETATM    3  C13 UNL     1      29.722  29.716  16.905  1.00  0.00     0.240 C 
HETATM    4  O5  UNL     1      29.977  28.595  16.429  1.00  0.00    -0.271 OA
ENDROOT
BRANCH   3   5
HETATM    5  C14 UNL     1      30.802  30.687  17.128  1.00  0.00     0.180 C 
BRANCH   5   6
HETATM    6  C15 UNL     1      30.950  31.128  18.570  1.00  0.00     0.073 C 
BRANCH   6   7
HETATM    7  C16 UNL     1      32.144  30.543  19.218  1.00  0.00    -0.053 A 
HETATM    8  C17 UNL     1      31.975  29.583  20.225  1.00  0.00     0.010 A 
HETATM    9  C18 UNL     1      33.042  29.002  20.877  1.00  0.00     0.040 A 
HETATM   10  C19 UNL     1      34.334  29.350  20.556  1.00  0.00     0.102 A 
HETATM   11  C22 UNL     1      34.518  30.294  19.565  1.00  0.00     0.099 A 
HETATM   12  C23 UNL     1      33.441  30.880  18.907  1.00  0.00     0.046 A 
BRANCH  10  13
HETATM   13  O6  UNL     1      35.406  28.758  21.217  1.00  0.00    -0.338 OA
BRANCH  13  14
HETATM   14  C20 UNL     1      35.660  27.387  21.042  1.00  0.00     0.288 C 
BRANCH  14  15
HETATM   15  C21 UNL     1      35.652  26.665  22.327  1.00  0.00     0.198 C 
HETATM   16  O7  UNL     1      35.650  25.413  22.351  1.00  0.00    -0.646 OA
HETATM   17  O8  UNL     1      35.644  27.358  23.516  1.00  0.00    -0.646 OA
ENDBRANCH  14  15
ENDBRANCH  13  14
ENDBRANCH  10  13
BRANCH  11  18
HETATM   18  O9  UNL     1      35.794  30.658  19.226  1.00  0.00    -0.358 OA
ATOM     19  H9  UNL     1      36.038  30.671  18.308  1.00  0.00     0.217 HD
ENDBRANCH  11  18
ENDBRANCH   6   7
ENDBRANCH   5   6
BRANCH   5  20
HETATM   20  N2  UNL     1      30.416  31.880  16.344  1.00  0.00    -0.348 N 
HETATM   21  C24 UNL     1      31.390  32.626  15.677  1.00  0.00     0.214 C 
HETATM   22  C25 UNL     1      30.926  33.819  14.905  1.00  0.00     0.117 C 
HETATM   23  O10 UNL     1      32.622  32.354  15.688  1.00  0.00    -0.274 OA
ATOM     24  H2  UNL     1      29.436  32.159  16.291  1.00  0.00     0.163 HD
ENDBRANCH   5  20
ENDBRANCH   3   5
BRANCH   1  25
HETATM   25  C12 UNL     1      27.310  29.071  17.033  1.00  0.00     0.122 C 
BRANCH  25  26
HETATM   26  C11 UNL     1      26.462  28.793  18.218  1.00  0.00     0.022 C 
BRANCH  26  27
HETATM   27  C10 UNL     1      26.008  30.048  18.931  1.00  0.00     0.028 C 
BRANCH  27  28
HETATM   28  C9  UNL     1      26.661  30.195  20.276  1.00  0.00     0.175 C 
BRANCH  28  29
HETATM   29  O4  UNL     1      26.101  29.505  21.320  1.00  0.00    -0.350 OA
BRANCH  29  30
HETATM   30  C8  UNL     1      24.800  29.595  21.734  1.00  0.00     0.087 A 
HETATM   31  C3  UNL     1      24.058  28.397  21.930  1.00  0.00     0.105 A 
HETATM   32  C4  UNL     1      22.755  28.395  22.347  1.00  0.00     0.084 A 
HETATM   33  C5  UNL     1      22.097  29.611  22.600  1.00  0.00     0.038 A 
HETATM   34  C6  UNL     1      22.792  30.769  22.418  1.00  0.00     0.005 A 
HETATM   35  C7  UNL     1      24.106  30.753  21.998  1.00  0.00     0.038 A 
BRANCH  31  36
HETATM   36  C2  UNL     1      24.771  27.176  21.660  1.00  0.00     0.298 C 
HETATM   37  O2  UNL     1      25.352  26.474  22.514  1.00  0.00    -0.259 OA
BRANCH  36  38
HETATM   38  O1  UNL     1      24.871  26.657  20.347  1.00  0.00    -0.322 OA
HETATM   39  C1  UNL     1      25.792  25.637  20.025  1.00  0.00     0.213 C 
ENDBRANCH  36  38
ENDBRANCH  31  36
BRANCH  32  40
HETATM   40  O3  UNL     1      21.985  27.284  22.556  1.00  0.00    -0.360 OA
ATOM     41  H3  UNL     1      21.088  27.282  22.870  1.00  0.00     0.217 HD
ENDBRANCH  32  40
ENDBRANCH  29  30
ENDBRANCH  28  29
ENDBRANCH  27  28
ENDBRANCH  26  27
ENDBRANCH  25  26
ENDBRANCH   1  25
TORSDOF 17
ENDMDL
