MODEL 17
REMARK VINA RESULT: -7.627725337      2.231     10.583
REMARK  17 active torsions:
REMARK  status: ('A' for Active; 'I' for Inactive)
REMARK    1  A    between atoms: O1_2  and  C2_3 
REMARK    2  A    between atoms: C2_3  and  C3_5 
REMARK    3  A    between atoms: C4_6  and  O3_7 
REMARK    4  A    between atoms: C8_12  and  O4_13 
REMARK    5  A    between atoms: O4_13  and  C9_14 
REMARK    6  A    between atoms: C9_14  and  C10_15 
REMARK    7  A    between atoms: C10_15  and  C11_16 
REMARK    8  A    between atoms: C11_16  and  C12_17 
REMARK    9  A    between atoms: C12_17  and  N1_18 
REMARK       I    between atoms: N1_18  and  C13_20 
REMARK   10  A    between atoms: C13_20  and  C14_22 
REMARK   11  A    between atoms: C14_22  and  C15_23 
REMARK   12  A    between atoms: C14_22  and  N2_37 
REMARK   13  A    between atoms: C15_23  and  C16_24 
REMARK   14  A    between atoms: C19_27  and  O6_28 
REMARK   15  A    between atoms: O6_28  and  C20_29 
REMARK   16  A    between atoms: C20_29  and  C21_30 
REMARK   17  A    between atoms: C22_33  and  O9_34 
REMARK       I    between atoms: N2_37  and  C24_39 
ROOT
HETATM    1  N1  UNL     1      28.199  29.113  18.238  1.00  0.00    -0.359 N 
ATOM      2  H1  UNL     1      28.528  28.709  19.116  1.00  0.00     0.162 HD
HETATM    3  C13 UNL     1      26.798  29.242  18.008  1.00  0.00     0.240 C 
HETATM    4  O5  UNL     1      26.410  29.729  16.931  1.00  0.00    -0.271 OA
ENDROOT
BRANCH   3   5
HETATM    5  C14 UNL     1      25.820  28.818  19.020  1.00  0.00     0.180 C 
BRANCH   5   6
HETATM    6  C15 UNL     1      25.952  29.538  20.347  1.00  0.00     0.073 C 
BRANCH   6   7
HETATM    7  C16 UNL     1      24.650  29.700  21.031  1.00  0.00    -0.053 A 
HETATM    8  C17 UNL     1      24.210  30.986  21.369  1.00  0.00     0.010 A 
HETATM    9  C18 UNL     1      23.012  31.210  22.014  1.00  0.00     0.040 A 
HETATM   10  C19 UNL     1      22.192  30.160  22.355  1.00  0.00     0.102 A 
HETATM   11  C22 UNL     1      22.611  28.885  22.028  1.00  0.00     0.099 A 
HETATM   12  C23 UNL     1      23.819  28.659  21.377  1.00  0.00     0.046 A 
BRANCH  10  13
HETATM   13  O6  UNL     1      20.984  30.395  23.004  1.00  0.00    -0.338 OA
BRANCH  13  14
HETATM   14  C20 UNL     1      20.982  30.760  24.361  1.00  0.00     0.288 C 
BRANCH  14  15
HETATM   15  C21 UNL     1      21.153  29.589  25.238  1.00  0.00     0.198 C 
HETATM   16  O7  UNL     1      20.577  28.509  24.974  1.00  0.00    -0.646 OA
HETATM   17  O8  UNL     1      21.948  29.668  26.360  1.00  0.00    -0.646 OA
ENDBRANCH  14  15
ENDBRANCH  13  14
ENDBRANCH  10  13
BRANCH  11  18
HETATM   18  O9  UNL     1      21.812  27.822  22.355  1.00  0.00    -0.358 OA
ATOM     19  H9  UNL     1      20.912  27.814  22.050  1.00  0.00     0.217 HD
ENDBRANCH  11  18
ENDBRANCH   6   7
ENDBRANCH   5   6
BRANCH   5  20
HETATM   20  N2  UNL     1      26.116  27.390  19.267  1.00  0.00    -0.348 N 
HETATM   21  C24 UNL     1      25.453  26.401  18.539  1.00  0.00     0.214 C 
HETATM   22  C25 UNL     1      25.803  24.979  18.843  1.00  0.00     0.117 C 
HETATM   23  O10 UNL     1      24.587  26.634  17.651  1.00  0.00    -0.274 OA
ATOM     24  H2  UNL     1      26.806  27.127  19.972  1.00  0.00     0.163 HD
ENDBRANCH   5  20
ENDBRANCH   3   5
BRANCH   1  25
HETATM   25  C12 UNL     1      29.162  29.546  17.253  1.00  0.00     0.122 C 
BRANCH  25  26
HETATM   26  C11 UNL     1      30.531  29.803  17.761  1.00  0.00     0.022 C 
BRANCH  26  27
HETATM   27  C10 UNL     1      30.572  30.055  19.253  1.00  0.00     0.028 C 
BRANCH  27  28
HETATM   28  C9  UNL     1      31.778  30.857  19.653  1.00  0.00     0.175 C 
BRANCH  28  29
HETATM   29  O4  UNL     1      32.885  30.158  20.058  1.00  0.00    -0.350 OA
BRANCH  29  30
HETATM   30  C8  UNL     1      34.094  30.127  19.418  1.00  0.00     0.087 A 
HETATM   31  C3  UNL     1      35.223  29.607  20.110  1.00  0.00     0.105 A 
HETATM   32  C4  UNL     1      36.467  29.535  19.544  1.00  0.00     0.084 A 
HETATM   33  C5  UNL     1      36.667  29.986  18.228  1.00  0.00     0.038 A 
HETATM   34  C6  UNL     1      35.596  30.488  17.550  1.00  0.00     0.005 A 
HETATM   35  C7  UNL     1      34.349  30.552  18.135  1.00  0.00     0.038 A 
BRANCH  31  36
HETATM   36  C2  UNL     1      34.973  29.156  21.454  1.00  0.00     0.298 C 
HETATM   37  O2  UNL     1      35.206  29.811  22.491  1.00  0.00    -0.259 OA
BRANCH  36  38
HETATM   38  O1  UNL     1      34.418  27.880  21.710  1.00  0.00    -0.322 OA
HETATM   39  C1  UNL     1      35.109  26.916  22.476  1.00  0.00     0.213 C 
ENDBRANCH  36  38
ENDBRANCH  31  36
BRANCH  32  40
HETATM   40  O3  UNL     1      37.592  29.047  20.148  1.00  0.00    -0.360 OA
ATOM     41  H3  UNL     1      37.738  28.143  20.401  1.00  0.00     0.217 HD
ENDBRANCH  32  40
ENDBRANCH  29  30
ENDBRANCH  28  29
ENDBRANCH  27  28
ENDBRANCH  26  27
ENDBRANCH  25  26
ENDBRANCH   1  25
TORSDOF 17
ENDMDL
