MODEL 2
REMARK VINA RESULT: -6.606735004      0.852      1.008
REMARK  10 active torsions:
REMARK  status: ('A' for Active; 'I' for Inactive)
REMARK    1  A    between atoms: C2_2  and  C3_3 
REMARK    2  A    between atoms: C3_3  and  C4_4 
REMARK    3  A    between atoms: C4_4  and  C5_5 
REMARK    4  A    between atoms: C5_5  and  N1_6 
REMARK    5  A    between atoms: C5_5  and  C6_10 
REMARK    6  A    between atoms: C6_10  and  O1_11 
REMARK    7  A    between atoms: C6_10  and  O2_13 
REMARK    8  A    between atoms: C6_10  and  C7_15 
REMARK    9  A    between atoms: C7_15  and  N2_16 
REMARK   10  A    between atoms: N2_16  and  C8_18 
ROOT
HETATM    1  C6  UNL     1       4.926   3.765  -2.823  1.00  0.00     0.204 C 
ENDROOT
BRANCH   1   2
HETATM    2  C5  UNL     1       3.593   3.829  -2.169  1.00  0.00     0.246 C 
BRANCH   2   3
HETATM    3  C4  UNL     1       2.415   4.144  -3.043  1.00  0.00     0.038 C 
BRANCH   3   4
HETATM    4  C3  UNL     1       1.151   3.423  -2.776  1.00  0.00     0.002 C 
BRANCH   4   5
HETATM    5  C2  UNL     1      -0.072   4.291  -3.071  1.00  0.00    -0.004 C 
HETATM    6  C1  UNL     1      -0.927   3.771  -4.172  1.00  0.00     0.005 C 
ENDBRANCH   4   5
ENDBRANCH   3   4
ENDBRANCH   2   3
BRANCH   2   7
HETATM    7  N1  UNL     1       3.677   5.043  -1.289  1.00  0.00    -0.070 N 
ATOM      8  H13 UNL     1       2.790   5.340  -0.881  1.00  0.00     0.274 HD
ATOM      9  H12 UNL     1       4.151   4.896  -0.399  1.00  0.00     0.274 HD
ATOM     10  H11 UNL     1       4.118   5.729  -1.902  1.00  0.00     0.274 HD
ENDBRANCH   2   7
ENDBRANCH   1   2
BRANCH   1  11
HETATM   11  O1  UNL     1       5.918   3.400  -1.950  1.00  0.00    -0.362 OA
ATOM     12  H1  UNL     1       6.505   4.121  -1.749  1.00  0.00     0.213 HD
ENDBRANCH   1  11
BRANCH   1  13
HETATM   13  O2  UNL     1       4.813   2.619  -3.713  1.00  0.00    -0.362 OA
ATOM     14  H2  UNL     1       4.538   3.004  -4.537  1.00  0.00     0.213 HD
ENDBRANCH   1  13
BRANCH   1  15
HETATM   15  C7  UNL     1       5.300   4.875  -3.739  1.00  0.00     0.184 C 
BRANCH  15  16
HETATM   16  N2  UNL     1       6.623   4.653  -4.287  1.00  0.00    -0.412 N 
ATOM     17  H2  UNL     1       7.426   4.429  -3.699  1.00  0.00     0.153 HD
BRANCH  16  18
HETATM   18  C8  UNL     1       6.724   4.770  -5.703  1.00  0.00     0.077 A 
HETATM   19  C9  UNL     1       8.147   4.432  -6.241  1.00  0.00     0.027 A 
HETATM   20  C10 UNL     1       6.928   3.610  -6.598  1.00  0.00     0.027 A 
ENDBRANCH  16  18
ENDBRANCH  15  16
ENDBRANCH   1  15
TORSDOF 10
ENDMDL
