MODEL 20
REMARK VINA RESULT: -5.592536907      1.483      1.649
REMARK  10 active torsions:
REMARK  status: ('A' for Active; 'I' for Inactive)
REMARK    1  A    between atoms: C2_2  and  C3_3 
REMARK    2  A    between atoms: C3_3  and  C4_4 
REMARK    3  A    between atoms: C4_4  and  C5_5 
REMARK    4  A    between atoms: C5_5  and  N1_6 
REMARK    5  A    between atoms: C5_5  and  C6_10 
REMARK    6  A    between atoms: C6_10  and  O1_11 
REMARK    7  A    between atoms: C6_10  and  O2_13 
REMARK    8  A    between atoms: C6_10  and  C7_15 
REMARK    9  A    between atoms: C7_15  and  N2_16 
REMARK   10  A    between atoms: N2_16  and  C8_18 
ROOT
HETATM    1  C6  UNL     1       4.609   4.422  -2.717  1.00  0.00     0.204 C 
ENDROOT
BRANCH   1   2
HETATM    2  C5  UNL     1       3.346   5.174  -2.500  1.00  0.00     0.246 C 
BRANCH   2   3
HETATM    3  C4  UNL     1       2.611   5.647  -3.720  1.00  0.00     0.038 C 
BRANCH   3   4
HETATM    4  C3  UNL     1       1.203   6.066  -3.552  1.00  0.00     0.002 C 
BRANCH   4   5
HETATM    5  C2  UNL     1       0.230   5.035  -4.126  1.00  0.00    -0.004 C 
HETATM    6  C1  UNL     1      -0.219   4.017  -3.138  1.00  0.00     0.005 C 
ENDBRANCH   4   5
ENDBRANCH   3   4
ENDBRANCH   2   3
BRANCH   2   7
HETATM    7  N1  UNL     1       3.794   6.463  -1.873  1.00  0.00    -0.070 N 
ATOM      8  H13 UNL     1       3.040   7.051  -1.516  1.00  0.00     0.274 HD
ATOM      9  H12 UNL     1       4.272   6.362  -0.978  1.00  0.00     0.274 HD
ATOM     10  H11 UNL     1       4.353   6.885  -2.614  1.00  0.00     0.274 HD
ENDBRANCH   2   7
ENDBRANCH   1   2
BRANCH   1  11
HETATM   11  O1  UNL     1       5.054   3.809  -1.574  1.00  0.00    -0.362 OA
ATOM     12  H1  UNL     1       5.141   2.869  -1.679  1.00  0.00     0.213 HD
ENDBRANCH   1  11
BRANCH   1  13
HETATM   13  O2  UNL     1       4.201   3.311  -3.566  1.00  0.00    -0.362 OA
ATOM     14  H2  UNL     1       3.554   2.857  -3.039  1.00  0.00     0.213 HD
ENDBRANCH   1  13
BRANCH   1  15
HETATM   15  C7  UNL     1       5.679   5.083  -3.509  1.00  0.00     0.184 C 
BRANCH  15  16
HETATM   16  N2  UNL     1       6.316   4.128  -4.393  1.00  0.00    -0.412 N 
ATOM     17  H2  UNL     1       6.544   3.178  -4.098  1.00  0.00     0.153 HD
BRANCH  16  18
HETATM   18  C8  UNL     1       6.602   4.607  -5.705  1.00  0.00     0.077 A 
HETATM   19  C9  UNL     1       8.081   4.369  -6.130  1.00  0.00     0.027 A 
HETATM   20  C10 UNL     1       6.918   3.714  -6.840  1.00  0.00     0.027 A 
ENDBRANCH  16  18
ENDBRANCH  15  16
ENDBRANCH   1  15
TORSDOF 10
ENDMDL
