MODEL 15
REMARK VINA RESULT: -5.872854120      1.394      1.551
REMARK  10 active torsions:
REMARK  status: ('A' for Active; 'I' for Inactive)
REMARK    1  A    between atoms: C2_2  and  C3_3 
REMARK    2  A    between atoms: C3_3  and  C4_4 
REMARK    3  A    between atoms: C4_4  and  C5_5 
REMARK    4  A    between atoms: C5_5  and  N1_6 
REMARK    5  A    between atoms: C5_5  and  C6_10 
REMARK    6  A    between atoms: C6_10  and  O1_11 
REMARK    7  A    between atoms: C6_10  and  O2_13 
REMARK    8  A    between atoms: C6_10  and  C7_15 
REMARK    9  A    between atoms: C7_15  and  N2_16 
REMARK   10  A    between atoms: N2_16  and  C8_18 
ROOT
HETATM    1  C6  UNL     1       3.829   4.174  -2.174  1.00  0.00     0.204 C 
ENDROOT
BRANCH   1   2
HETATM    2  C5  UNL     1       2.501   4.734  -2.533  1.00  0.00     0.246 C 
BRANCH   2   3
HETATM    3  C4  UNL     1       1.489   3.784  -3.105  1.00  0.00     0.038 C 
BRANCH   3   4
HETATM    4  C3  UNL     1       0.059   4.108  -2.911  1.00  0.00     0.002 C 
BRANCH   4   5
HETATM    5  C2  UNL     1      -0.787   3.692  -4.114  1.00  0.00    -0.004 C 
HETATM    6  C1  UNL     1      -0.223   4.121  -5.423  1.00  0.00     0.005 C 
ENDBRANCH   4   5
ENDBRANCH   3   4
ENDBRANCH   2   3
BRANCH   2   7
HETATM    7  N1  UNL     1       2.788   5.639  -3.696  1.00  0.00    -0.070 N 
ATOM      8  H13 UNL     1       3.167   5.171  -4.520  1.00  0.00     0.274 HD
ATOM      9  H12 UNL     1       1.963   6.012  -4.164  1.00  0.00     0.274 HD
ATOM     10  H11 UNL     1       3.401   6.341  -3.281  1.00  0.00     0.274 HD
ENDBRANCH   2   7
ENDBRANCH   1   2
BRANCH   1  11
HETATM   11  O1  UNL     1       4.643   5.105  -1.579  1.00  0.00    -0.362 OA
ATOM     12  H1  UNL     1       5.492   4.746  -1.348  1.00  0.00     0.213 HD
ENDBRANCH   1  11
BRANCH   1  13
HETATM   13  O2  UNL     1       3.527   3.243  -1.097  1.00  0.00    -0.362 OA
ATOM     14  H2  UNL     1       4.119   2.518  -1.258  1.00  0.00     0.213 HD
ENDBRANCH   1  13
BRANCH   1  15
HETATM   15  C7  UNL     1       4.515   3.323  -3.181  1.00  0.00     0.184 C 
BRANCH  15  16
HETATM   16  N2  UNL     1       5.798   3.896  -3.537  1.00  0.00    -0.412 N 
ATOM     17  H2  UNL     1       6.533   4.059  -2.849  1.00  0.00     0.153 HD
BRANCH  16  18
HETATM   18  C8  UNL     1       5.961   4.216  -4.916  1.00  0.00     0.077 A 
HETATM   19  C9  UNL     1       7.288   4.977  -5.211  1.00  0.00     0.027 A 
HETATM   20  C10 UNL     1       6.999   3.602  -5.772  1.00  0.00     0.027 A 
ENDBRANCH  16  18
ENDBRANCH  15  16
ENDBRANCH   1  15
TORSDOF 10
ENDMDL
