MODEL 12
REMARK VINA RESULT: -5.952062368      1.556      5.595
REMARK  10 active torsions:
REMARK  status: ('A' for Active; 'I' for Inactive)
REMARK    1  A    between atoms: C2_2  and  C3_3 
REMARK    2  A    between atoms: C3_3  and  C4_4 
REMARK    3  A    between atoms: C4_4  and  C5_5 
REMARK    4  A    between atoms: C5_5  and  N1_6 
REMARK    5  A    between atoms: C5_5  and  C6_10 
REMARK    6  A    between atoms: C6_10  and  O1_11 
REMARK    7  A    between atoms: C6_10  and  O2_13 
REMARK    8  A    between atoms: C6_10  and  C7_15 
REMARK    9  A    between atoms: C7_15  and  N2_16 
REMARK   10  A    between atoms: N2_16  and  C8_18 
ROOT
HETATM    1  C6  UNL     1       3.561   3.396  -2.631  1.00  0.00     0.204 C 
ENDROOT
BRANCH   1   2
HETATM    2  C5  UNL     1       4.897   4.030  -2.775  1.00  0.00     0.246 C 
BRANCH   2   3
HETATM    3  C4  UNL     1       5.063   5.036  -3.876  1.00  0.00     0.038 C 
BRANCH   3   4
HETATM    4  C3  UNL     1       6.440   5.347  -4.317  1.00  0.00     0.002 C 
BRANCH   4   5
HETATM    5  C2  UNL     1       6.620   5.126  -5.820  1.00  0.00    -0.004 C 
HETATM    6  C1  UNL     1       7.779   4.260  -6.166  1.00  0.00     0.005 C 
ENDBRANCH   4   5
ENDBRANCH   3   4
ENDBRANCH   2   3
BRANCH   2   7
HETATM    7  N1  UNL     1       5.786   2.907  -3.226  1.00  0.00    -0.070 N 
ATOM      8  H13 UNL     1       5.302   2.131  -3.678  1.00  0.00     0.274 HD
ATOM      9  H12 UNL     1       6.386   3.127  -4.020  1.00  0.00     0.274 HD
ATOM     10  H11 UNL     1       6.282   2.661  -2.368  1.00  0.00     0.274 HD
ENDBRANCH   2   7
ENDBRANCH   1   2
BRANCH   1  11
HETATM   11  O1  UNL     1       3.480   2.196  -3.291  1.00  0.00    -0.362 OA
ATOM     12  H1  UNL     1       2.955   2.255  -4.081  1.00  0.00     0.213 HD
ENDBRANCH   1  11
BRANCH   1  13
HETATM   13  O2  UNL     1       3.514   3.018  -1.226  1.00  0.00    -0.362 OA
ATOM     14  H2  UNL     1       3.208   2.118  -1.248  1.00  0.00     0.213 HD
ENDBRANCH   1  13
BRANCH   1  15
HETATM   15  C7  UNL     1       2.364   4.262  -2.793  1.00  0.00     0.184 C 
BRANCH  15  16
HETATM   16  N2  UNL     1       1.313   3.546  -3.489  1.00  0.00    -0.412 N 
ATOM     17  H2  UNL     1       1.281   2.527  -3.528  1.00  0.00     0.153 HD
BRANCH  16  18
HETATM   18  C8  UNL     1       0.328   4.363  -4.115  1.00  0.00     0.077 A 
HETATM   19  C9  UNL     1      -0.255   3.727  -5.411  1.00  0.00     0.027 A 
HETATM   20  C10 UNL     1      -1.102   3.994  -4.186  1.00  0.00     0.027 A 
ENDBRANCH  16  18
ENDBRANCH  15  16
ENDBRANCH   1  15
TORSDOF 10
ENDMDL
