MODEL 1
REMARK VINA RESULT: -6.734278184      0.000      0.000
REMARK  10 active torsions:
REMARK  status: ('A' for Active; 'I' for Inactive)
REMARK    1  A    between atoms: C2_2  and  C3_3 
REMARK    2  A    between atoms: C3_3  and  C4_4 
REMARK    3  A    between atoms: C4_4  and  C5_5 
REMARK    4  A    between atoms: C5_5  and  N1_6 
REMARK    5  A    between atoms: C5_5  and  C6_10 
REMARK    6  A    between atoms: C6_10  and  O1_11 
REMARK    7  A    between atoms: C6_10  and  O2_13 
REMARK    8  A    between atoms: C6_10  and  C7_15 
REMARK    9  A    between atoms: C7_15  and  N2_16 
REMARK   10  A    between atoms: N2_16  and  C8_18 
ROOT
HETATM    1  C6  UNL     1       4.584   4.267  -2.431  1.00  0.00     0.204 C 
ENDROOT
BRANCH   1   2
HETATM    2  C5  UNL     1       3.421   3.362  -2.242  1.00  0.00     0.246 C 
BRANCH   2   3
HETATM    3  C4  UNL     1       2.201   3.632  -3.075  1.00  0.00     0.038 C 
BRANCH   3   4
HETATM    4  C3  UNL     1       0.882   3.334  -2.474  1.00  0.00     0.002 C 
BRANCH   4   5
HETATM    5  C2  UNL     1      -0.206   4.272  -2.998  1.00  0.00    -0.004 C 
HETATM    6  C1  UNL     1      -0.955   3.731  -4.164  1.00  0.00     0.005 C 
ENDBRANCH   4   5
ENDBRANCH   3   4
ENDBRANCH   2   3
BRANCH   2   7
HETATM    7  N1  UNL     1       2.939   3.672  -0.854  1.00  0.00    -0.070 N 
ATOM      8  H13 UNL     1       3.383   4.480  -0.417  1.00  0.00     0.274 HD
ATOM      9  H12 UNL     1       1.990   4.039  -0.801  1.00  0.00     0.274 HD
ATOM     10  H11 UNL     1       3.086   2.787  -0.368  1.00  0.00     0.274 HD
ENDBRANCH   2   7
ENDBRANCH   1   2
BRANCH   1  11
HETATM   11  O1  UNL     1       4.626   5.264  -1.490  1.00  0.00    -0.362 OA
ATOM     12  H1  UNL     1       4.657   6.129  -1.883  1.00  0.00     0.213 HD
ENDBRANCH   1  11
BRANCH   1  13
HETATM   13  O2  UNL     1       5.725   3.427  -2.093  1.00  0.00    -0.362 OA
ATOM     14  H2  UNL     1       6.207   3.951  -1.464  1.00  0.00     0.213 HD
ENDBRANCH   1  13
BRANCH   1  15
HETATM   15  C7  UNL     1       4.889   4.721  -3.812  1.00  0.00     0.184 C 
BRANCH  15  16
HETATM   16  N2  UNL     1       6.182   4.221  -4.235  1.00  0.00    -0.412 N 
ATOM     17  H2  UNL     1       6.787   3.680  -3.616  1.00  0.00     0.153 HD
BRANCH  16  18
HETATM   18  C8  UNL     1       6.551   4.536  -5.574  1.00  0.00     0.077 A 
HETATM   19  C9  UNL     1       8.068   4.320  -5.854  1.00  0.00     0.027 A 
HETATM   20  C10 UNL     1       6.992   3.518  -6.552  1.00  0.00     0.027 A 
ENDBRANCH  16  18
ENDBRANCH  15  16
ENDBRANCH   1  15
TORSDOF 10
ENDMDL
