MODEL 9
REMARK VINA RESULT: -6.003215785      2.418      5.006
REMARK  10 active torsions:
REMARK  status: ('A' for Active; 'I' for Inactive)
REMARK    1  A    between atoms: C2_2  and  C3_3 
REMARK    2  A    between atoms: C3_3  and  C4_4 
REMARK    3  A    between atoms: C4_4  and  C5_5 
REMARK    4  A    between atoms: C5_5  and  N1_6 
REMARK    5  A    between atoms: C5_5  and  C6_10 
REMARK    6  A    between atoms: C6_10  and  O1_11 
REMARK    7  A    between atoms: C6_10  and  O2_13 
REMARK    8  A    between atoms: C6_10  and  C7_15 
REMARK    9  A    between atoms: C7_15  and  N2_16 
REMARK   10  A    between atoms: N2_16  and  C8_18 
ROOT
HETATM    1  C6  UNL     1       3.221   3.415  -2.326  1.00  0.00     0.204 C 
ENDROOT
BRANCH   1   2
HETATM    2  C5  UNL     1       4.410   4.296  -2.453  1.00  0.00     0.246 C 
BRANCH   2   3
HETATM    3  C4  UNL     1       4.385   5.329  -3.543  1.00  0.00     0.038 C 
BRANCH   3   4
HETATM    4  C3  UNL     1       4.716   6.722  -3.173  1.00  0.00     0.002 C 
BRANCH   4   5
HETATM    5  C2  UNL     1       3.757   7.275  -2.118  1.00  0.00    -0.004 C 
HETATM    6  C1  UNL     1       2.460   7.746  -2.673  1.00  0.00     0.005 C 
ENDBRANCH   4   5
ENDBRANCH   3   4
ENDBRANCH   2   3
BRANCH   2   7
HETATM    7  N1  UNL     1       5.502   3.372  -2.910  1.00  0.00    -0.070 N 
ATOM      8  H13 UNL     1       6.175   3.788  -3.554  1.00  0.00     0.274 HD
ATOM      9  H12 UNL     1       6.187   3.130  -2.194  1.00  0.00     0.274 HD
ATOM     10  H11 UNL     1       4.978   2.582  -3.287  1.00  0.00     0.274 HD
ENDBRANCH   2   7
ENDBRANCH   1   2
BRANCH   1  11
HETATM   11  O1  UNL     1       3.373   2.234  -3.008  1.00  0.00    -0.362 OA
ATOM     12  H1  UNL     1       3.971   2.316  -3.742  1.00  0.00     0.213 HD
ENDBRANCH   1  11
BRANCH   1  13
HETATM   13  O2  UNL     1       3.246   3.010  -0.928  1.00  0.00    -0.362 OA
ATOM     14  H2  UNL     1       3.289   2.061  -0.973  1.00  0.00     0.213 HD
ENDBRANCH   1  13
BRANCH   1  15
HETATM   15  C7  UNL     1       1.880   4.037  -2.479  1.00  0.00     0.184 C 
BRANCH  15  16
HETATM   16  N2  UNL     1       1.174   3.447  -3.599  1.00  0.00    -0.412 N 
ATOM     17  H2  UNL     1       1.354   2.494  -3.916  1.00  0.00     0.153 HD
BRANCH  16  18
HETATM   18  C8  UNL     1       0.213   4.290  -4.228  1.00  0.00     0.077 A 
HETATM   19  C9  UNL     1      -0.404   3.658  -5.511  1.00  0.00     0.027 A 
HETATM   20  C10 UNL     1      -1.230   3.970  -4.283  1.00  0.00     0.027 A 
ENDBRANCH  16  18
ENDBRANCH  15  16
ENDBRANCH   1  15
TORSDOF 10
ENDMDL
