MODEL 4
REMARK VINA RESULT: -5.758160996      1.658      2.879
REMARK  3 active torsions:
REMARK  status: ('A' for Active; 'I' for Inactive)
REMARK    1  A    between atoms: O1_2  and  C2_3 
REMARK    2  A    between atoms: C5_10  and  C6_11 
REMARK    3  A    between atoms: C6_11  and  C7_12 
ROOT
HETATM    1  C2  UNL     1      51.555  23.909  39.718  1.00  0.00     0.165 A 
HETATM    2  N1  UNL     1      52.296  22.925  40.212  1.00  0.00    -0.344 N 
ATOM      3  H1  UNL     1      53.105  22.621  39.672  1.00  0.00     0.167 HD
HETATM    4  C3  UNL     1      52.049  22.303  41.382  1.00  0.00     0.107 A 
HETATM    5  C4  UNL     1      50.934  22.736  42.104  1.00  0.00     0.105 A 
HETATM    6  N2  UNL     1      50.184  23.728  41.605  1.00  0.00    -0.364 N 
ATOM      7  H2  UNL     1      49.371  24.039  42.137  1.00  0.00     0.165 HD
HETATM    8  C5  UNL     1      50.454  24.334  40.434  1.00  0.00     0.061 A 
ENDROOT
BRANCH   8   9
HETATM    9  C6  UNL     1      49.609  25.445  39.910  1.00  0.00     0.065 C 
BRANCH   9  10
HETATM   10  C7  UNL     1      48.197  25.206  40.406  1.00  0.00    -0.017 C 
HETATM   11  C8  UNL     1      47.462  24.289  39.442  1.00  0.00     0.010 C 
HETATM   12  C9  UNL     1      47.499  26.539  40.474  1.00  0.00     0.010 C 
ENDBRANCH   9  10
ENDBRANCH   8   9
BRANCH   1  13
HETATM   13  O1  UNL     1      51.813  24.550  38.510  1.00  0.00    -0.339 OA
HETATM   14  C1  UNL     1      52.790  24.096  37.601  1.00  0.00     0.211 C 
ENDBRANCH   1  13
TORSDOF 3
ENDMDL
