MODEL 6
REMARK VINA RESULT: -5.467464456      1.892      3.072
REMARK  3 active torsions:
REMARK  status: ('A' for Active; 'I' for Inactive)
REMARK    1  A    between atoms: O1_2  and  C2_3 
REMARK    2  A    between atoms: C5_10  and  C6_11 
REMARK    3  A    between atoms: C6_11  and  C7_12 
ROOT
HETATM    1  C2  UNL     1      50.396  24.423  39.950  1.00  0.00     0.165 A 
HETATM    2  N1  UNL     1      51.573  23.811  39.947  1.00  0.00    -0.344 N 
ATOM      3  H1  UNL     1      52.173  23.935  39.133  1.00  0.00     0.167 HD
HETATM    4  C3  UNL     1      52.028  23.035  40.951  1.00  0.00     0.107 A 
HETATM    5  C4  UNL     1      51.187  22.878  42.057  1.00  0.00     0.105 A 
HETATM    6  N2  UNL     1      49.997  23.495  42.060  1.00  0.00    -0.364 N 
ATOM      7  H2  UNL     1      49.388  23.375  42.870  1.00  0.00     0.165 HD
HETATM    8  C5  UNL     1      49.569  24.266  41.043  1.00  0.00     0.061 A 
ENDROOT
BRANCH   8   9
HETATM    9  C6  UNL     1      48.245  24.951  41.080  1.00  0.00     0.065 C 
BRANCH   9  10
HETATM   10  C7  UNL     1      48.498  26.392  41.480  1.00  0.00    -0.017 C 
HETATM   11  C8  UNL     1      48.433  26.524  42.993  1.00  0.00     0.010 C 
HETATM   12  C9  UNL     1      47.427  27.242  40.849  1.00  0.00     0.010 C 
ENDBRANCH   9  10
ENDBRANCH   8   9
BRANCH   1  13
HETATM   13  O1  UNL     1      49.930  25.225  38.912  1.00  0.00    -0.339 OA
HETATM   14  C1  UNL     1      50.793  25.872  38.004  1.00  0.00     0.211 C 
ENDBRANCH   1  13
TORSDOF 3
ENDMDL
