MODEL 17
REMARK VINA RESULT: -5.001924239      1.523      2.775
REMARK  3 active torsions:
REMARK  status: ('A' for Active; 'I' for Inactive)
REMARK    1  A    between atoms: O1_2  and  C2_3 
REMARK    2  A    between atoms: C5_10  and  C6_11 
REMARK    3  A    between atoms: C6_11  and  C7_12 
ROOT
HETATM    1  C2  UNL     1      51.379  23.571  40.416  1.00  0.00     0.165 A 
HETATM    2  N1  UNL     1      52.255  22.589  40.586  1.00  0.00    -0.344 N 
ATOM      3  H1  UNL     1      52.953  22.440  39.858  1.00  0.00     0.167 HD
HETATM    4  C3  UNL     1      52.283  21.775  41.660  1.00  0.00     0.107 A 
HETATM    5  C4  UNL     1      51.316  21.996  42.645  1.00  0.00     0.105 A 
HETATM    6  N2  UNL     1      50.430  22.986  42.472  1.00  0.00    -0.364 N 
ATOM      7  H2  UNL     1      49.727  23.142  43.195  1.00  0.00     0.165 HD
HETATM    8  C5  UNL     1      50.426  23.786  41.390  1.00  0.00     0.061 A 
ENDROOT
BRANCH   8   9
HETATM    9  C6  UNL     1      49.436  24.890  41.231  1.00  0.00     0.065 C 
BRANCH   9  10
HETATM   10  C7  UNL     1      48.507  24.499  40.098  1.00  0.00    -0.017 C 
HETATM   11  C8  UNL     1      47.451  25.575  39.906  1.00  0.00     0.010 C 
HETATM   12  C9  UNL     1      47.846  23.198  40.471  1.00  0.00     0.010 C 
ENDBRANCH   9  10
ENDBRANCH   8   9
BRANCH   1  13
HETATM   13  O1  UNL     1      51.354  24.411  39.306  1.00  0.00    -0.339 OA
HETATM   14  C1  UNL     1      52.359  24.395  38.317  1.00  0.00     0.211 C 
ENDBRANCH   1  13
TORSDOF 3
ENDMDL
