MODEL 12
REMARK VINA RESULT: -5.089768668      1.960      4.232
REMARK  3 active torsions:
REMARK  status: ('A' for Active; 'I' for Inactive)
REMARK    1  A    between atoms: O1_2  and  C2_3 
REMARK    2  A    between atoms: C5_10  and  C6_11 
REMARK    3  A    between atoms: C6_11  and  C7_12 
ROOT
HETATM    1  C2  UNL     1      48.050  23.619  40.835  1.00  0.00     0.165 A 
HETATM    2  N1  UNL     1      47.085  24.479  41.137  1.00  0.00    -0.344 N 
ATOM      3  H1  UNL     1      46.268  24.124  41.631  1.00  0.00     0.167 HD
HETATM    4  C3  UNL     1      47.116  25.792  40.832  1.00  0.00     0.107 A 
HETATM    5  C4  UNL     1      48.246  26.255  40.153  1.00  0.00     0.105 A 
HETATM    6  N2  UNL     1      49.220  25.387  39.846  1.00  0.00    -0.364 N 
ATOM      7  H2  UNL     1      50.042  25.732  39.350  1.00  0.00     0.165 HD
HETATM    8  C5  UNL     1      49.164  24.081  40.164  1.00  0.00     0.061 A 
ENDROOT
BRANCH   8   9
HETATM    9  C6  UNL     1      50.269  23.140  39.823  1.00  0.00     0.065 C 
BRANCH   9  10
HETATM   10  C7  UNL     1      51.519  23.646  40.518  1.00  0.00    -0.017 C 
HETATM   11  C8  UNL     1      52.693  23.611  39.553  1.00  0.00     0.010 C 
HETATM   12  C9  UNL     1      51.795  22.740  41.689  1.00  0.00     0.010 C 
ENDBRANCH   9  10
ENDBRANCH   8   9
BRANCH   1  13
HETATM   13  O1  UNL     1      48.016  22.264  41.152  1.00  0.00    -0.339 OA
HETATM   14  C1  UNL     1      47.003  21.400  40.688  1.00  0.00     0.211 C 
ENDBRANCH   1  13
TORSDOF 3
ENDMDL
