MODEL 3
REMARK VINA RESULT: -5.368178579      1.795      3.151
REMARK  2 active torsions:
REMARK  status: ('A' for Active; 'I' for Inactive)
REMARK    1  A    between atoms: O1_2  and  C2_3 
REMARK    2  A    between atoms: C5_10  and  C6_11 
ROOT
HETATM    1  C2  UNL     1      51.053  23.431  40.093  1.00  0.00     0.169 A 
HETATM    2  N1  UNL     1      51.979  22.548  40.436  1.00  0.00    -0.344 N 
ATOM      3  H1  UNL     1      52.846  22.500  39.900  1.00  0.00     0.167 HD
HETATM    4  C3  UNL     1      51.799  21.708  41.484  1.00  0.00     0.107 A 
HETATM    5  C4  UNL     1      50.653  21.792  42.168  1.00  0.00     0.105 A 
HETATM    6  N2  UNL     1      49.665  22.713  41.836  1.00  0.00    -0.361 N 
ATOM      7  H2  UNL     1      48.805  22.754  42.382  1.00  0.00     0.165 HD
HETATM    8  C5  UNL     1      49.839  23.546  40.801  1.00  0.00     0.085 A 
ENDROOT
BRANCH   8   9
HETATM    9  C6  UNL     1      48.942  24.632  40.472  1.00  0.00    -0.057 C 
HETATM   10  C7  UNL     1      48.767  25.754  41.459  1.00  0.00     0.045 C 
HETATM   11  C8  UNL     1      47.778  24.403  39.588  1.00  0.00     0.045 C 
ENDBRANCH   8   9
BRANCH   1  12
HETATM   12  O1  UNL     1      51.194  24.322  39.023  1.00  0.00    -0.339 OA
HETATM   13  C1  UNL     1      52.267  24.107  38.142  1.00  0.00     0.211 C 
ENDBRANCH   1  12
TORSDOF 2
ENDMDL
