MODEL 9
REMARK VINA RESULT: -4.957022014      1.630      2.877
REMARK  2 active torsions:
REMARK  status: ('A' for Active; 'I' for Inactive)
REMARK    1  A    between atoms: O1_2  and  C2_3 
REMARK    2  A    between atoms: C5_10  and  C6_11 
ROOT
HETATM    1  C2  UNL     1      50.576  24.251  40.252  1.00  0.00     0.169 A 
HETATM    2  N1  UNL     1      51.638  23.462  40.169  1.00  0.00    -0.344 N 
ATOM      3  H1  UNL     1      52.426  23.747  39.586  1.00  0.00     0.167 HD
HETATM    4  C3  UNL     1      51.699  22.287  40.841  1.00  0.00     0.107 A 
HETATM    5  C4  UNL     1      50.652  21.940  41.596  1.00  0.00     0.105 A 
HETATM    6  N2  UNL     1      49.526  22.749  41.708  1.00  0.00    -0.361 N 
ATOM      7  H2  UNL     1      48.747  22.456  42.297  1.00  0.00     0.165 HD
HETATM    8  C5  UNL     1      49.462  23.912  41.046  1.00  0.00     0.085 A 
ENDROOT
BRANCH   8   9
HETATM    9  C6  UNL     1      48.406  24.886  41.215  1.00  0.00    -0.057 C 
HETATM   10  C7  UNL     1      47.463  25.142  40.071  1.00  0.00     0.045 C 
HETATM   11  C8  UNL     1      48.579  26.029  42.138  1.00  0.00     0.045 C 
ENDBRANCH   8   9
BRANCH   1  12
HETATM   12  O1  UNL     1      50.468  25.474  39.581  1.00  0.00    -0.339 OA
HETATM   13  C1  UNL     1      50.685  25.470  38.193  1.00  0.00     0.211 C 
ENDBRANCH   1  12
TORSDOF 2
ENDMDL
