MODEL 4
REMARK VINA RESULT: -5.351702907      1.660      3.017
REMARK  2 active torsions:
REMARK  status: ('A' for Active; 'I' for Inactive)
REMARK    1  A    between atoms: O1_2  and  C2_3 
REMARK    2  A    between atoms: C5_10  and  C6_11 
ROOT
HETATM    1  C2  UNL     1      50.676  24.299  40.184  1.00  0.00     0.169 A 
HETATM    2  N1  UNL     1      51.686  23.442  40.146  1.00  0.00    -0.344 N 
ATOM      3  H1  UNL     1      52.498  23.653  39.565  1.00  0.00     0.167 HD
HETATM    4  C3  UNL     1      51.662  22.291  40.861  1.00  0.00     0.107 A 
HETATM    5  C4  UNL     1      50.585  22.041  41.613  1.00  0.00     0.105 A 
HETATM    6  N2  UNL     1      49.513  22.924  41.678  1.00  0.00    -0.361 N 
ATOM      7  H2  UNL     1      48.708  22.704  42.266  1.00  0.00     0.165 HD
HETATM    8  C5  UNL     1      49.532  24.063  40.973  1.00  0.00     0.085 A 
ENDROOT
BRANCH   8   9
HETATM    9  C6  UNL     1      48.540  25.108  41.091  1.00  0.00    -0.057 C 
HETATM   10  C7  UNL     1      48.439  25.873  42.383  1.00  0.00     0.045 C 
HETATM   11  C8  UNL     1      47.281  25.040  40.317  1.00  0.00     0.045 C 
ENDBRANCH   8   9
BRANCH   1  12
HETATM   12  O1  UNL     1      50.656  25.501  39.467  1.00  0.00    -0.339 OA
HETATM   13  C1  UNL     1      50.589  25.415  38.066  1.00  0.00     0.211 C 
ENDBRANCH   1  12
TORSDOF 2
ENDMDL
