MODEL 16
REMARK VINA RESULT: -7.602678085      1.437      2.214
REMARK  4 active torsions:
REMARK  status: ('A' for Active; 'I' for Inactive)
REMARK    1  A    between atoms: C6_7  and  C7_8 
REMARK    2  A    between atoms: C8_11  and  O3_12 
REMARK    3  A    between atoms: O3_12  and  C9_13 
REMARK    4  A    between atoms: C9_13  and  C10_15 
ROOT
HETATM    1  C1  UNL     1      19.557  -2.636  23.928  1.00  0.00     0.310 C 
HETATM    2  N1  UNL     1      20.899  -2.357  24.340  1.00  0.00     0.094 N 
HETATM    3  C2  UNL     1      21.422  -1.136  23.728  1.00  0.00     0.225 C 
HETATM    4  C3  UNL     1      20.865  -0.000  24.518  1.00  0.00     0.038 C 
HETATM    5  C4  UNL     1      20.290  -0.662  25.771  1.00  0.00     0.039 C 
HETATM    6  C5  UNL     1      20.976  -2.003  25.747  1.00  0.00     0.239 C 
HETATM    7  C6  UNL     1      22.388  -1.924  26.212  1.00  0.00     0.149 C 
HETATM    8  C8  UNL     1      23.298  -1.151  25.301  1.00  0.00     0.150 C 
HETATM    9  C16 UNL     1      22.935  -1.254  23.856  1.00  0.00     0.069 C 
ENDROOT
BRANCH   8  10
HETATM   10  O3  UNL     1      24.622  -1.529  25.585  1.00  0.00    -0.311 OA
BRANCH  10  11
HETATM   11  C9  UNL     1      25.639  -1.558  24.641  1.00  0.00     0.293 C 
HETATM   12  O4  UNL     1      26.028  -0.436  24.228  1.00  0.00    -0.259 OA
BRANCH  11  13
HETATM   13  C10 UNL     1      26.244  -2.751  24.134  1.00  0.00     0.039 A 
HETATM   14  C11 UNL     1      25.480  -3.829  23.767  1.00  0.00     0.017 A 
HETATM   15  C12 UNL     1      26.063  -4.997  23.271  1.00  0.00     0.001 A 
HETATM   16  C13 UNL     1      27.425  -5.078  23.142  1.00  0.00     0.000 A 
HETATM   17  C14 UNL     1      28.206  -4.010  23.504  1.00  0.00     0.001 A 
HETATM   18  C15 UNL     1      27.607  -2.846  24.000  1.00  0.00     0.017 A 
ENDBRANCH  11  13
ENDBRANCH  10  11
ENDBRANCH   8  10
BRANCH   7  19
HETATM   19  C7  UNL     1      22.948  -3.284  26.367  1.00  0.00     0.181 C 
HETATM   20  O1  UNL     1      22.393  -4.305  25.850  1.00  0.00    -0.648 OA
HETATM   21  O2  UNL     1      24.113  -3.469  27.095  1.00  0.00    -0.648 OA
ENDBRANCH   7  19
TORSDOF 4
ENDMDL
