MODEL 7
REMARK VINA RESULT: -8.268951470      3.595      6.880
REMARK  4 active torsions:
REMARK  status: ('A' for Active; 'I' for Inactive)
REMARK    1  A    between atoms: C6_7  and  C7_8 
REMARK    2  A    between atoms: C8_11  and  O3_12 
REMARK    3  A    between atoms: O3_12  and  C9_13 
REMARK    4  A    between atoms: C9_13  and  C10_15 
ROOT
HETATM    1  C1  UNL     1      25.921 -10.012  20.728  1.00  0.00     0.310 C 
HETATM    2  N1  UNL     1      26.158  -8.681  21.197  1.00  0.00     0.094 N 
HETATM    3  C2  UNL     1      25.029  -8.154  21.961  1.00  0.00     0.225 C 
HETATM    4  C3  UNL     1      25.143  -8.735  23.330  1.00  0.00     0.038 C 
HETATM    5  C4  UNL     1      26.551  -9.331  23.368  1.00  0.00     0.039 C 
HETATM    6  C5  UNL     1      27.205  -8.635  22.203  1.00  0.00     0.239 C 
HETATM    7  C6  UNL     1      27.590  -7.234  22.525  1.00  0.00     0.149 C 
HETATM    8  C8  UNL     1      26.428  -6.311  22.760  1.00  0.00     0.150 C 
HETATM    9  C16 UNL     1      25.220  -6.643  21.947  1.00  0.00     0.069 C 
ENDROOT
BRANCH   8  10
HETATM   10  O3  UNL     1      26.881  -4.991  22.594  1.00  0.00    -0.311 OA
BRANCH  10  11
HETATM   11  C9  UNL     1      26.975  -4.067  23.626  1.00  0.00     0.293 C 
HETATM   12  O4  UNL     1      28.073  -4.046  24.237  1.00  0.00    -0.259 OA
BRANCH  11  13
HETATM   13  C10 UNL     1      25.928  -3.174  24.015  1.00  0.00     0.039 A 
HETATM   14  C11 UNL     1      26.201  -1.875  24.363  1.00  0.00     0.017 A 
HETATM   15  C12 UNL     1      25.185  -0.997  24.745  1.00  0.00     0.001 A 
HETATM   16  C13 UNL     1      23.885  -1.429  24.776  1.00  0.00     0.000 A 
HETATM   17  C14 UNL     1      23.592  -2.723  24.431  1.00  0.00     0.001 A 
HETATM   18  C15 UNL     1      24.621  -3.593  24.051  1.00  0.00     0.017 A 
ENDBRANCH  11  13
ENDBRANCH  10  11
ENDBRANCH   8  10
BRANCH   7  19
HETATM   19  C7  UNL     1      28.408  -6.668  21.431  1.00  0.00     0.181 C 
HETATM   20  O1  UNL     1      27.925  -6.440  20.276  1.00  0.00    -0.648 OA
HETATM   21  O2  UNL     1      29.744  -6.370  21.654  1.00  0.00    -0.648 OA
ENDBRANCH   7  19
TORSDOF 4
ENDMDL
