MODEL 13
REMARK VINA RESULT: -7.819077071      1.266      1.601
REMARK  4 active torsions:
REMARK  status: ('A' for Active; 'I' for Inactive)
REMARK    1  A    between atoms: C6_7  and  C7_8 
REMARK    2  A    between atoms: C8_11  and  O3_12 
REMARK    3  A    between atoms: O3_12  and  C9_13 
REMARK    4  A    between atoms: C9_13  and  C10_15 
ROOT
HETATM    1  C1  UNL     1      19.159  -2.555  24.924  1.00  0.00     0.310 C 
HETATM    2  N1  UNL     1      20.570  -2.790  24.857  1.00  0.00     0.094 N 
HETATM    3  C2  UNL     1      20.956  -3.488  23.632  1.00  0.00     0.225 C 
HETATM    4  C3  UNL     1      21.003  -2.453  22.558  1.00  0.00     0.038 C 
HETATM    5  C4  UNL     1      20.947  -1.125  23.315  1.00  0.00     0.039 C 
HETATM    6  C5  UNL     1      21.322  -1.556  24.709  1.00  0.00     0.239 C 
HETATM    7  C6  UNL     1      22.785  -1.789  24.854  1.00  0.00     0.149 C 
HETATM    8  C8  UNL     1      23.306  -2.961  24.072  1.00  0.00     0.150 C 
HETATM    9  C16 UNL     1      22.326  -4.080  23.936  1.00  0.00     0.069 C 
ENDROOT
BRANCH   8  10
HETATM   10  O3  UNL     1      24.536  -3.346  24.633  1.00  0.00    -0.311 OA
BRANCH  10  11
HETATM   11  C9  UNL     1      25.769  -2.893  24.184  1.00  0.00     0.293 C 
HETATM   12  O4  UNL     1      25.933  -1.647  24.214  1.00  0.00    -0.259 OA
BRANCH  11  13
HETATM   13  C10 UNL     1      26.821  -3.737  23.706  1.00  0.00     0.039 A 
HETATM   14  C11 UNL     1      28.128  -3.319  23.731  1.00  0.00     0.017 A 
HETATM   15  C12 UNL     1      29.160  -4.136  23.267  1.00  0.00     0.001 A 
HETATM   16  C13 UNL     1      28.874  -5.383  22.775  1.00  0.00     0.000 A 
HETATM   17  C14 UNL     1      27.575  -5.819  22.742  1.00  0.00     0.001 A 
HETATM   18  C15 UNL     1      26.550  -4.988  23.211  1.00  0.00     0.017 A 
ENDBRANCH  11  13
ENDBRANCH  10  11
ENDBRANCH   8  10
BRANCH   7  19
HETATM   19  C7  UNL     1      23.125  -2.004  26.277  1.00  0.00     0.181 C 
HETATM   20  O1  UNL     1      23.304  -1.036  27.082  1.00  0.00    -0.648 OA
HETATM   21  O2  UNL     1      23.256  -3.296  26.766  1.00  0.00    -0.648 OA
ENDBRANCH   7  19
TORSDOF 4
ENDMDL
