MODEL 20
REMARK VINA RESULT: -7.181999999      4.761      8.006
REMARK  4 active torsions:
REMARK  status: ('A' for Active; 'I' for Inactive)
REMARK    1  A    between atoms: C6_7  and  C7_8 
REMARK    2  A    between atoms: C8_11  and  O3_12 
REMARK    3  A    between atoms: O3_12  and  C9_13 
REMARK    4  A    between atoms: C9_13  and  C10_15 
ROOT
HETATM    1  C1  UNL     1      25.885 -11.007  19.145  1.00  0.00     0.310 C 
HETATM    2  N1  UNL     1      26.388  -9.829  19.783  1.00  0.00     0.094 N 
HETATM    3  C2  UNL     1      25.431  -9.261  20.730  1.00  0.00     0.225 C 
HETATM    4  C3  UNL     1      25.545 -10.073  21.977  1.00  0.00     0.038 C 
HETATM    5  C4  UNL     1      26.824 -10.887  21.778  1.00  0.00     0.039 C 
HETATM    6  C5  UNL     1      27.500 -10.122  20.671  1.00  0.00     0.239 C 
HETATM    7  C6  UNL     1      28.149  -8.875  21.160  1.00  0.00     0.149 C 
HETATM    8  C8  UNL     1      27.190  -7.828  21.650  1.00  0.00     0.150 C 
HETATM    9  C16 UNL     1      25.884  -7.820  20.925  1.00  0.00     0.069 C 
ENDROOT
BRANCH   8  10
HETATM   10  O3  UNL     1      27.855  -6.590  21.640  1.00  0.00    -0.311 OA
BRANCH  10  11
HETATM   11  C9  UNL     1      28.134  -5.850  22.780  1.00  0.00     0.293 C 
HETATM   12  O4  UNL     1      29.181  -6.176  23.395  1.00  0.00    -0.259 OA
BRANCH  11  13
HETATM   13  C10 UNL     1      27.324  -4.779  23.274  1.00  0.00     0.039 A 
HETATM   14  C11 UNL     1      27.892  -3.617  23.732  1.00  0.00     0.017 A 
HETATM   15  C12 UNL     1      27.109  -2.568  24.215  1.00  0.00     0.001 A 
HETATM   16  C13 UNL     1      25.744  -2.689  24.237  1.00  0.00     0.000 A 
HETATM   17  C14 UNL     1      25.158  -3.842  23.784  1.00  0.00     0.001 A 
HETATM   18  C15 UNL     1      25.956  -4.886  23.302  1.00  0.00     0.017 A 
ENDBRANCH  11  13
ENDBRANCH  10  11
ENDBRANCH   8  10
BRANCH   7  19
HETATM   19  C7  UNL     1      28.969  -8.275  20.085  1.00  0.00     0.181 C 
HETATM   20  O1  UNL     1      28.527  -8.129  18.901  1.00  0.00    -0.648 OA
HETATM   21  O2  UNL     1      30.260  -7.851  20.360  1.00  0.00    -0.648 OA
ENDBRANCH   7  19
TORSDOF 4
ENDMDL
