MODEL 1
REMARK VINA RESULT: -8.706897902      0.000      0.000
REMARK  4 active torsions:
REMARK  status: ('A' for Active; 'I' for Inactive)
REMARK    1  A    between atoms: C6_7  and  C7_8 
REMARK    2  A    between atoms: C8_11  and  O3_12 
REMARK    3  A    between atoms: O3_12  and  C9_13 
REMARK    4  A    between atoms: C9_13  and  C10_15 
ROOT
HETATM    1  C1  UNL     1      20.419  -1.975  26.620  1.00  0.00     0.310 C 
HETATM    2  N1  UNL     1      21.694  -2.368  26.103  1.00  0.00     0.094 N 
HETATM    3  C2  UNL     1      21.679  -2.522  24.649  1.00  0.00     0.225 C 
HETATM    4  C3  UNL     1      21.791  -1.146  24.082  1.00  0.00     0.038 C 
HETATM    5  C4  UNL     1      22.196  -0.281  25.276  1.00  0.00     0.039 C 
HETATM    6  C5  UNL     1      22.690  -1.320  26.250  1.00  0.00     0.239 C 
HETATM    7  C6  UNL     1      24.052  -1.812  25.909  1.00  0.00     0.149 C 
HETATM    8  C8  UNL     1      24.125  -2.598  24.631  1.00  0.00     0.150 C 
HETATM    9  C16 UNL     1      22.892  -3.387  24.336  1.00  0.00     0.069 C 
ENDROOT
BRANCH   8  10
HETATM   10  O3  UNL     1      25.301  -3.367  24.660  1.00  0.00    -0.311 OA
BRANCH  10  11
HETATM   11  C9  UNL     1      26.497  -2.979  24.072  1.00  0.00     0.293 C 
HETATM   12  O4  UNL     1      26.685  -1.739  23.992  1.00  0.00    -0.259 OA
BRANCH  11  13
HETATM   13  C10 UNL     1      27.488  -3.882  23.571  1.00  0.00     0.039 A 
HETATM   14  C11 UNL     1      28.813  -3.525  23.533  1.00  0.00     0.017 A 
HETATM   15  C12 UNL     1      29.785  -4.399  23.045  1.00  0.00     0.001 A 
HETATM   16  C13 UNL     1      29.422  -5.642  22.595  1.00  0.00     0.000 A 
HETATM   17  C14 UNL     1      28.104  -6.016  22.625  1.00  0.00     0.001 A 
HETATM   18  C15 UNL     1      27.139  -5.129  23.116  1.00  0.00     0.017 A 
ENDBRANCH  11  13
ENDBRANCH  10  11
ENDBRANCH   8  10
BRANCH   7  19
HETATM   19  C7  UNL     1      24.571  -2.666  26.999  1.00  0.00     0.181 C 
HETATM   20  O1  UNL     1      24.103  -3.826  27.228  1.00  0.00    -0.648 OA
HETATM   21  O2  UNL     1      25.599  -2.202  27.806  1.00  0.00    -0.648 OA
ENDBRANCH   7  19
TORSDOF 4
ENDMDL
