MODEL 18
REMARK VINA RESULT: -7.305312416      3.744      7.286
REMARK  12 active torsions:
REMARK  status: ('A' for Active; 'I' for Inactive)
REMARK    1  A    between atoms: O1_2  and  C2_3 
REMARK    2  A    between atoms: C2_3  and  C3_4 
REMARK    3  A    between atoms: C2_3  and  C10_19 
REMARK       I    between atoms: C3_4  and  N1_6 
REMARK    4  A    between atoms: N1_6  and  C4_8 
REMARK    5  A    between atoms: C7_11  and  O3_12 
REMARK    6  A    between atoms: C10_19  and  O5_20 
REMARK    7  A    between atoms: C10_19  and  C11_22 
REMARK    8  A    between atoms: C11_22  and  O6_23 
REMARK    9  A    between atoms: C11_22  and  C12_25 
REMARK   10  A    between atoms: C12_25  and  O7_26 
REMARK   11  A    between atoms: C12_25  and  C13_28 
REMARK   12  A    between atoms: C14_29  and  C15_30 
ROOT
HETATM    1  C2  UNL     1      22.516  29.152  17.692  1.00  0.00     0.243 C 
ENDROOT
BRANCH   1   2
HETATM    2  O1  UNL     1      23.839  28.856  17.699  1.00  0.00    -0.379 OA
HETATM    3  C1  UNL     1      24.502  29.095  18.885  1.00  0.00     0.202 C 
ENDBRANCH   1   2
BRANCH   1   4
HETATM    4  C3  UNL     1      22.250  30.550  17.184  1.00  0.00     0.250 C 
HETATM    5  O2  UNL     1      23.129  31.074  16.472  1.00  0.00    -0.271 OA
HETATM    6  N1  UNL     1      21.045  31.203  17.523  1.00  0.00    -0.346 N 
ATOM      7  H1  UNL     1      20.365  30.719  18.110  1.00  0.00     0.163 HD
BRANCH   6   8
HETATM    8  C4  UNL     1      20.743  32.561  17.053  1.00  0.00     0.176 C 
HETATM    9  C5  UNL     1      21.319  32.786  15.698  1.00  0.00     0.037 C 
HETATM   10  C6  UNL     1      21.574  34.217  15.358  1.00  0.00     0.036 C 
HETATM   11  C7  UNL     1      20.451  35.135  15.777  1.00  0.00     0.136 C 
HETATM   12  C8  UNL     1      19.113  34.660  15.266  1.00  0.00     0.154 C 
HETATM   13  N2  UNL     1      18.555  33.745  16.234  1.00  0.00    -0.357 N 
HETATM   14  C9  UNL     1      19.276  32.781  16.992  1.00  0.00     0.240 C 
ATOM     15  H2  UNL     1      17.548  33.794  16.389  1.00  0.00     0.162 HD
HETATM   16  O4  UNL     1      18.522  32.046  17.680  1.00  0.00    -0.271 OA
BRANCH  11  17
HETATM   17  O3  UNL     1      20.670  36.401  15.252  1.00  0.00    -0.394 OA
ATOM     18  H3  UNL     1      21.531  36.707  15.511  1.00  0.00     0.210 HD
ENDBRANCH  11  17
ENDBRANCH   6   8
ENDBRANCH   1   4
BRANCH   1  19
HETATM   19  C10 UNL     1      21.579  28.232  17.006  1.00  0.00     0.187 C 
BRANCH  19  20
HETATM   20  O5  UNL     1      21.097  28.955  15.871  1.00  0.00    -0.390 OA
ATOM     21  H5  UNL     1      21.424  28.485  15.114  1.00  0.00     0.210 HD
ENDBRANCH  19  20
BRANCH  19  22
HETATM   22  C11 UNL     1      20.341  27.849  17.760  1.00  0.00     0.182 C 
BRANCH  22  23
HETATM   23  O6  UNL     1      20.164  26.462  17.476  1.00  0.00    -0.390 OA
ATOM     24  H6  UNL     1      19.256  26.289  17.694  1.00  0.00     0.210 HD
ENDBRANCH  22  23
BRANCH  22  25
HETATM   25  C12 UNL     1      20.560  27.875  19.262  1.00  0.00     0.172 C 
BRANCH  25  26
HETATM   26  O7  UNL     1      21.136  26.636  19.626  1.00  0.00    -0.389 OA
ATOM     27  H7  UNL     1      21.911  26.515  19.090  1.00  0.00     0.210 HD
ENDBRANCH  25  26
BRANCH  25  28
HETATM   28  C13 UNL     1      19.244  27.907  19.936  1.00  0.00     0.004 C 
HETATM   29  C14 UNL     1      18.203  28.631  19.572  1.00  0.00    -0.020 C 
BRANCH  29  30
HETATM   30  C15 UNL     1      16.913  28.601  20.310  1.00  0.00    -0.034 C 
HETATM   31  C16 UNL     1      16.541  30.053  20.594  1.00  0.00     0.018 C 
HETATM   32  C17 UNL     1      17.048  27.849  21.625  1.00  0.00     0.018 C 
HETATM   33  C18 UNL     1      15.815  27.924  19.521  1.00  0.00     0.018 C 
ENDBRANCH  29  30
ENDBRANCH  25  28
ENDBRANCH  22  25
ENDBRANCH  19  22
ENDBRANCH   1  19
TORSDOF 12
ENDMDL
