MODEL 6
REMARK VINA RESULT: -8.455881253      1.674      2.016
REMARK  12 active torsions:
REMARK  status: ('A' for Active; 'I' for Inactive)
REMARK    1  A    between atoms: O1_2  and  C2_3 
REMARK    2  A    between atoms: C2_3  and  C3_4 
REMARK    3  A    between atoms: C2_3  and  C10_19 
REMARK       I    between atoms: C3_4  and  N1_6 
REMARK    4  A    between atoms: N1_6  and  C4_8 
REMARK    5  A    between atoms: C7_11  and  O3_12 
REMARK    6  A    between atoms: C10_19  and  O5_20 
REMARK    7  A    between atoms: C10_19  and  C11_22 
REMARK    8  A    between atoms: C11_22  and  O6_23 
REMARK    9  A    between atoms: C11_22  and  C12_25 
REMARK   10  A    between atoms: C12_25  and  O7_26 
REMARK   11  A    between atoms: C12_25  and  C13_28 
REMARK   12  A    between atoms: C14_29  and  C15_30 
ROOT
HETATM    1  C2  UNL     1      18.624  27.780  20.089  1.00  0.00     0.243 C 
ENDROOT
BRANCH   1   2
HETATM    2  O1  UNL     1      19.633  28.098  20.936  1.00  0.00    -0.379 OA
HETATM    3  C1  UNL     1      19.323  28.061  22.281  1.00  0.00     0.202 C 
ENDBRANCH   1   2
BRANCH   1   4
HETATM    4  C3  UNL     1      17.273  28.160  20.649  1.00  0.00     0.250 C 
HETATM    5  O2  UNL     1      16.806  27.437  21.552  1.00  0.00    -0.271 OA
HETATM    6  N1  UNL     1      16.598  29.294  20.147  1.00  0.00    -0.346 N 
ATOM      7  H1  UNL     1      17.035  29.845  19.408  1.00  0.00     0.163 HD
BRANCH   6   8
HETATM    8  C4  UNL     1      15.285  29.702  20.659  1.00  0.00     0.176 C 
HETATM    9  C5  UNL     1      15.211  31.185  20.786  1.00  0.00     0.037 C 
HETATM   10  C6  UNL     1      14.209  31.677  21.777  1.00  0.00     0.036 C 
HETATM   11  C7  UNL     1      12.894  30.938  21.708  1.00  0.00     0.136 C 
HETATM   12  C8  UNL     1      12.338  30.905  20.305  1.00  0.00     0.154 C 
HETATM   13  N2  UNL     1      12.878  29.750  19.628  1.00  0.00    -0.357 N 
HETATM   14  C9  UNL     1      14.202  29.246  19.751  1.00  0.00     0.240 C 
ATOM     15  H2  UNL     1      12.249  29.247  19.001  1.00  0.00     0.162 HD
HETATM   16  O4  UNL     1      14.431  28.291  18.965  1.00  0.00    -0.271 OA
BRANCH  11  17
HETATM   17  O3  UNL     1      11.961  31.579  22.510  1.00  0.00    -0.394 OA
ATOM     18  H3  UNL     1      11.205  31.015  22.630  1.00  0.00     0.210 HD
ENDBRANCH  11  17
ENDBRANCH   6   8
ENDBRANCH   1   4
BRANCH   1  19
HETATM   19  C10 UNL     1      18.688  28.257  18.688  1.00  0.00     0.187 C 
BRANCH  19  20
HETATM   20  O5  UNL     1      17.743  27.459  17.971  1.00  0.00    -0.390 OA
ATOM     21  H5  UNL     1      17.304  28.058  17.379  1.00  0.00     0.210 HD
ENDBRANCH  19  20
BRANCH  19  22
HETATM   22  C11 UNL     1      19.984  28.043  17.965  1.00  0.00     0.182 C 
BRANCH  22  23
HETATM   23  O6  UNL     1      20.109  26.625  17.866  1.00  0.00    -0.390 OA
ATOM     24  H6  UNL     1      20.623  26.486  17.079  1.00  0.00     0.210 HD
ENDBRANCH  22  23
BRANCH  22  25
HETATM   25  C12 UNL     1      19.907  28.491  16.515  1.00  0.00     0.172 C 
BRANCH  25  26
HETATM   26  O7  UNL     1      20.921  27.806  15.807  1.00  0.00    -0.389 OA
ATOM     27  H7  UNL     1      20.781  27.970  14.882  1.00  0.00     0.210 HD
ENDBRANCH  25  26
BRANCH  25  28
HETATM   28  C13 UNL     1      20.273  29.921  16.438  1.00  0.00     0.004 C 
HETATM   29  C14 UNL     1      19.478  30.907  16.069  1.00  0.00    -0.020 C 
BRANCH  29  30
HETATM   30  C15 UNL     1      19.932  32.322  16.020  1.00  0.00    -0.034 C 
HETATM   31  C16 UNL     1      18.833  33.107  15.310  1.00  0.00     0.018 C 
HETATM   32  C17 UNL     1      21.231  32.457  15.242  1.00  0.00     0.018 C 
HETATM   33  C18 UNL     1      20.177  32.894  17.398  1.00  0.00     0.018 C 
ENDBRANCH  29  30
ENDBRANCH  25  28
ENDBRANCH  22  25
ENDBRANCH  19  22
ENDBRANCH   1  19
TORSDOF 12
ENDMDL
