MODEL 4
REMARK VINA RESULT: -8.775868793      1.376      1.853
REMARK  12 active torsions:
REMARK  status: ('A' for Active; 'I' for Inactive)
REMARK    1  A    between atoms: O1_2  and  C2_3 
REMARK    2  A    between atoms: C2_3  and  C3_4 
REMARK    3  A    between atoms: C2_3  and  C10_19 
REMARK       I    between atoms: C3_4  and  N1_6 
REMARK    4  A    between atoms: N1_6  and  C4_8 
REMARK    5  A    between atoms: C7_11  and  O3_12 
REMARK    6  A    between atoms: C10_19  and  O5_20 
REMARK    7  A    between atoms: C10_19  and  C11_22 
REMARK    8  A    between atoms: C11_22  and  O6_23 
REMARK    9  A    between atoms: C11_22  and  C12_25 
REMARK   10  A    between atoms: C12_25  and  O7_26 
REMARK   11  A    between atoms: C12_25  and  C13_28 
REMARK   12  A    between atoms: C14_29  and  C15_30 
ROOT
HETATM    1  C2  UNL     1      18.590  27.917  19.807  1.00  0.00     0.243 C 
ENDROOT
BRANCH   1   2
HETATM    2  O1  UNL     1      19.564  28.155  20.719  1.00  0.00    -0.379 OA
HETATM    3  C1  UNL     1      19.243  27.868  22.030  1.00  0.00     0.202 C 
ENDBRANCH   1   2
BRANCH   1   4
HETATM    4  C3  UNL     1      17.292  28.597  20.173  1.00  0.00     0.250 C 
HETATM    5  O2  UNL     1      17.235  29.834  20.024  1.00  0.00    -0.271 OA
HETATM    6  N1  UNL     1      16.210  27.831  20.659  1.00  0.00    -0.346 N 
ATOM      7  H1  UNL     1      16.320  26.822  20.756  1.00  0.00     0.163 HD
BRANCH   6   8
HETATM    8  C4  UNL     1      14.929  28.447  21.027  1.00  0.00     0.176 C 
HETATM    9  C5  UNL     1      15.155  29.700  21.801  1.00  0.00     0.037 C 
HETATM   10  C6  UNL     1      14.021  30.101  22.684  1.00  0.00     0.036 C 
HETATM   11  C7  UNL     1      12.672  29.949  22.023  1.00  0.00     0.136 C 
HETATM   12  C8  UNL     1      12.620  30.639  20.682  1.00  0.00     0.154 C 
HETATM   13  N2  UNL     1      13.077  29.711  19.674  1.00  0.00    -0.357 N 
HETATM   14  C9  UNL     1      14.135  28.771  19.815  1.00  0.00     0.240 C 
ATOM     15  H2  UNL     1      12.595  29.732  18.775  1.00  0.00     0.162 HD
HETATM   16  O4  UNL     1      14.389  28.165  18.742  1.00  0.00    -0.271 OA
BRANCH  11  17
HETATM   17  O3  UNL     1      11.697  30.524  22.824  1.00  0.00    -0.394 OA
ATOM     18  H3  UNL     1      11.046  30.948  22.276  1.00  0.00     0.210 HD
ENDBRANCH  11  17
ENDBRANCH   6   8
ENDBRANCH   1   4
BRANCH   1  19
HETATM   19  C10 UNL     1      18.864  28.194  18.378  1.00  0.00     0.187 C 
BRANCH  19  20
HETATM   20  O5  UNL     1      17.899  27.431  17.650  1.00  0.00    -0.390 OA
ATOM     21  H5  UNL     1      17.754  27.910  16.843  1.00  0.00     0.210 HD
ENDBRANCH  19  20
BRANCH  19  22
HETATM   22  C11 UNL     1      20.187  27.730  17.845  1.00  0.00     0.182 C 
BRANCH  22  23
HETATM   23  O6  UNL     1      20.023  26.326  17.654  1.00  0.00    -0.390 OA
ATOM     24  H6  UNL     1      19.860  25.985  18.525  1.00  0.00     0.210 HD
ENDBRANCH  22  23
BRANCH  22  25
HETATM   25  C12 UNL     1      20.447  28.248  16.442  1.00  0.00     0.172 C 
BRANCH  25  26
HETATM   26  O7  UNL     1      21.730  27.793  16.055  1.00  0.00    -0.389 OA
ATOM     27  H7  UNL     1      21.617  27.249  15.285  1.00  0.00     0.210 HD
ENDBRANCH  25  26
BRANCH  25  28
HETATM   28  C13 UNL     1      20.553  29.723  16.489  1.00  0.00     0.004 C 
HETATM   29  C14 UNL     1      20.105  30.562  15.576  1.00  0.00    -0.020 C 
BRANCH  29  30
HETATM   30  C15 UNL     1      20.255  32.036  15.706  1.00  0.00    -0.034 C 
HETATM   31  C16 UNL     1      21.668  32.372  15.241  1.00  0.00     0.018 C 
HETATM   32  C17 UNL     1      20.079  32.483  17.148  1.00  0.00     0.018 C 
HETATM   33  C18 UNL     1      19.238  32.791  14.880  1.00  0.00     0.018 C 
ENDBRANCH  29  30
ENDBRANCH  25  28
ENDBRANCH  22  25
ENDBRANCH  19  22
ENDBRANCH   1  19
TORSDOF 12
ENDMDL
