MODEL 1
REMARK VINA RESULT: -10.259645744      0.000      0.000
REMARK  12 active torsions:
REMARK  status: ('A' for Active; 'I' for Inactive)
REMARK    1  A    between atoms: O1_2  and  C2_3 
REMARK    2  A    between atoms: C2_3  and  C3_4 
REMARK    3  A    between atoms: C2_3  and  C10_19 
REMARK       I    between atoms: C3_4  and  N1_6 
REMARK    4  A    between atoms: N1_6  and  C4_8 
REMARK    5  A    between atoms: C7_11  and  O3_12 
REMARK    6  A    between atoms: C10_19  and  O5_20 
REMARK    7  A    between atoms: C10_19  and  C11_22 
REMARK    8  A    between atoms: C11_22  and  O6_23 
REMARK    9  A    between atoms: C11_22  and  C12_25 
REMARK   10  A    between atoms: C12_25  and  O7_26 
REMARK   11  A    between atoms: C12_25  and  C13_28 
REMARK   12  A    between atoms: C14_29  and  C15_30 
ROOT
HETATM    1  C2  UNL     1      18.373  28.016  19.553  1.00  0.00     0.243 C 
ENDROOT
BRANCH   1   2
HETATM    2  O1  UNL     1      19.232  28.166  20.592  1.00  0.00    -0.379 OA
HETATM    3  C1  UNL     1      18.781  27.709  21.814  1.00  0.00     0.202 C 
ENDBRANCH   1   2
BRANCH   1   4
HETATM    4  C3  UNL     1      17.069  28.743  19.788  1.00  0.00     0.250 C 
HETATM    5  O2  UNL     1      17.134  29.957  20.065  1.00  0.00    -0.271 OA
HETATM    6  N1  UNL     1      15.847  28.042  19.686  1.00  0.00    -0.346 N 
ATOM      7  H1  UNL     1      15.862  27.048  19.455  1.00  0.00     0.163 HD
BRANCH   6   8
HETATM    8  C4  UNL     1      14.555  28.704  19.904  1.00  0.00     0.176 C 
HETATM    9  C5  UNL     1      13.530  28.174  18.962  1.00  0.00     0.037 C 
HETATM   10  C6  UNL     1      12.392  29.102  18.692  1.00  0.00     0.036 C 
HETATM   11  C7  UNL     1      11.878  29.788  19.935  1.00  0.00     0.136 C 
HETATM   12  C8  UNL     1      11.560  28.803  21.033  1.00  0.00     0.154 C 
HETATM   13  N2  UNL     1      12.759  28.578  21.806  1.00  0.00    -0.357 N 
HETATM   14  C9  UNL     1      14.083  28.488  21.296  1.00  0.00     0.240 C 
ATOM     15  H2  UNL     1      12.645  28.475  22.815  1.00  0.00     0.162 HD
HETATM   16  O4  UNL     1      14.922  28.182  22.181  1.00  0.00    -0.271 OA
BRANCH  11  17
HETATM   17  O3  UNL     1      10.707  30.469  19.637  1.00  0.00    -0.394 OA
ATOM     18  H3  UNL     1      10.904  31.203  19.065  1.00  0.00     0.210 HD
ENDBRANCH  11  17
ENDBRANCH   6   8
ENDBRANCH   1   4
BRANCH   1  19
HETATM   19  C10 UNL     1      18.839  28.345  18.186  1.00  0.00     0.187 C 
BRANCH  19  20
HETATM   20  O5  UNL     1      18.011  27.581  17.307  1.00  0.00    -0.390 OA
ATOM     21  H5  UNL     1      17.118  27.790  17.556  1.00  0.00     0.210 HD
ENDBRANCH  19  20
BRANCH  19  22
HETATM   22  C11 UNL     1      20.238  27.932  17.836  1.00  0.00     0.182 C 
BRANCH  22  23
HETATM   23  O6  UNL     1      20.228  26.509  17.945  1.00  0.00    -0.390 OA
ATOM     24  H6  UNL     1      21.136  26.277  18.101  1.00  0.00     0.210 HD
ENDBRANCH  22  23
BRANCH  22  25
HETATM   25  C12 UNL     1      20.550  28.169  16.369  1.00  0.00     0.172 C 
BRANCH  25  26
HETATM   26  O7  UNL     1      21.893  27.780  16.155  1.00  0.00    -0.389 OA
ATOM     27  H7  UNL     1      21.928  27.331  15.319  1.00  0.00     0.210 HD
ENDBRANCH  25  26
BRANCH  25  28
HETATM   28  C13 UNL     1      20.517  29.624  16.104  1.00  0.00     0.004 C 
HETATM   29  C14 UNL     1      20.084  30.202  15.000  1.00  0.00    -0.020 C 
BRANCH  29  30
HETATM   30  C15 UNL     1      20.087  31.678  14.818  1.00  0.00    -0.034 C 
HETATM   31  C16 UNL     1      19.836  31.933  13.335  1.00  0.00     0.018 C 
HETATM   32  C17 UNL     1      21.426  32.278  15.214  1.00  0.00     0.018 C 
HETATM   33  C18 UNL     1      19.028  32.361  15.654  1.00  0.00     0.018 C 
ENDBRANCH  29  30
ENDBRANCH  25  28
ENDBRANCH  22  25
ENDBRANCH  19  22
ENDBRANCH   1  19
TORSDOF 12
ENDMDL
