MODEL 15
REMARK VINA RESULT: -7.360692433      3.849      7.738
REMARK  12 active torsions:
REMARK  status: ('A' for Active; 'I' for Inactive)
REMARK    1  A    between atoms: O1_2  and  C2_3 
REMARK    2  A    between atoms: C2_3  and  C3_4 
REMARK    3  A    between atoms: C2_3  and  C10_19 
REMARK       I    between atoms: C3_4  and  N1_6 
REMARK    4  A    between atoms: N1_6  and  C4_8 
REMARK    5  A    between atoms: C7_11  and  O3_12 
REMARK    6  A    between atoms: C10_19  and  O5_20 
REMARK    7  A    between atoms: C10_19  and  C11_22 
REMARK    8  A    between atoms: C11_22  and  O6_23 
REMARK    9  A    between atoms: C11_22  and  C12_25 
REMARK   10  A    between atoms: C12_25  and  O7_26 
REMARK   11  A    between atoms: C12_25  and  C13_28 
REMARK   12  A    between atoms: C14_29  and  C15_30 
ROOT
HETATM    1  C2  UNL     1      14.083  29.026  21.188  1.00  0.00     0.243 C 
ENDROOT
BRANCH   1   2
HETATM    2  O1  UNL     1      13.221  29.828  20.517  1.00  0.00    -0.379 OA
HETATM    3  C1  UNL     1      11.900  29.428  20.523  1.00  0.00     0.202 C 
ENDBRANCH   1   2
BRANCH   1   4
HETATM    4  C3  UNL     1      15.188  28.509  20.295  1.00  0.00     0.250 C 
HETATM    5  O2  UNL     1      14.863  28.110  19.159  1.00  0.00    -0.271 OA
HETATM    6  N1  UNL     1      16.521  28.496  20.763  1.00  0.00    -0.346 N 
ATOM      7  H1  UNL     1      16.720  28.838  21.703  1.00  0.00     0.163 HD
BRANCH   6   8
HETATM    8  C4  UNL     1      17.627  28.004  19.932  1.00  0.00     0.176 C 
HETATM    9  C5  UNL     1      18.081  29.062  18.986  1.00  0.00     0.037 C 
HETATM   10  C6  UNL     1      18.766  28.551  17.762  1.00  0.00     0.036 C 
HETATM   11  C7  UNL     1      19.742  27.437  18.050  1.00  0.00     0.136 C 
HETATM   12  C8  UNL     1      20.722  27.811  19.135  1.00  0.00     0.154 C 
HETATM   13  N2  UNL     1      20.144  27.463  20.412  1.00  0.00    -0.357 N 
HETATM   14  C9  UNL     1      18.776  27.594  20.778  1.00  0.00     0.240 C 
ATOM     15  H2  UNL     1      20.777  27.086  21.117  1.00  0.00     0.162 HD
HETATM   16  O4  UNL     1      18.571  27.315  21.987  1.00  0.00    -0.271 OA
BRANCH  11  17
HETATM   17  O3  UNL     1      20.476  27.158  16.906  1.00  0.00    -0.394 OA
ATOM     18  H3  UNL     1      21.347  26.866  17.151  1.00  0.00     0.210 HD
ENDBRANCH  11  17
ENDBRANCH   6   8
ENDBRANCH   1   4
BRANCH   1  19
HETATM   19  C10 UNL     1      14.703  29.526  22.437  1.00  0.00     0.187 C 
BRANCH  19  20
HETATM   20  O5  UNL     1      13.999  28.876  23.498  1.00  0.00    -0.390 OA
ATOM     21  H5  UNL     1      13.260  29.440  23.694  1.00  0.00     0.210 HD
ENDBRANCH  19  20
BRANCH  19  22
HETATM   22  C11 UNL     1      14.546  30.990  22.725  1.00  0.00     0.182 C 
BRANCH  22  23
HETATM   23  O6  UNL     1      13.286  31.090  23.388  1.00  0.00    -0.390 OA
ATOM     24  H6  UNL     1      12.655  31.190  22.685  1.00  0.00     0.210 HD
ENDBRANCH  22  23
BRANCH  22  25
HETATM   25  C12 UNL     1      15.534  31.472  23.773  1.00  0.00     0.172 C 
BRANCH  25  26
HETATM   26  O7  UNL     1      14.960  31.220  25.041  1.00  0.00    -0.389 OA
ATOM     27  H7  UNL     1      15.567  31.545  25.696  1.00  0.00     0.210 HD
ENDBRANCH  25  26
BRANCH  25  28
HETATM   28  C13 UNL     1      15.647  32.943  23.680  1.00  0.00     0.004 C 
HETATM   29  C14 UNL     1      16.623  33.611  23.095  1.00  0.00    -0.020 C 
BRANCH  29  30
HETATM   30  C15 UNL     1      16.657  35.097  23.049  1.00  0.00    -0.034 C 
HETATM   31  C16 UNL     1      18.077  35.487  22.654  1.00  0.00     0.018 C 
HETATM   32  C17 UNL     1      16.328  35.697  24.406  1.00  0.00     0.018 C 
HETATM   33  C18 UNL     1      15.664  35.662  22.059  1.00  0.00     0.018 C 
ENDBRANCH  29  30
ENDBRANCH  25  28
ENDBRANCH  22  25
ENDBRANCH  19  22
ENDBRANCH   1  19
TORSDOF 12
ENDMDL
