MODEL 3
REMARK VINA RESULT: -8.810645692      1.304      1.728
REMARK  12 active torsions:
REMARK  status: ('A' for Active; 'I' for Inactive)
REMARK    1  A    between atoms: O1_2  and  C2_3 
REMARK    2  A    between atoms: C2_3  and  C3_4 
REMARK    3  A    between atoms: C2_3  and  C10_19 
REMARK       I    between atoms: C3_4  and  N1_6 
REMARK    4  A    between atoms: N1_6  and  C4_8 
REMARK    5  A    between atoms: C7_11  and  O3_12 
REMARK    6  A    between atoms: C10_19  and  O5_20 
REMARK    7  A    between atoms: C10_19  and  C11_22 
REMARK    8  A    between atoms: C11_22  and  O6_23 
REMARK    9  A    between atoms: C11_22  and  C12_25 
REMARK   10  A    between atoms: C12_25  and  O7_26 
REMARK   11  A    between atoms: C12_25  and  C13_28 
REMARK   12  A    between atoms: C14_29  and  C15_30 
ROOT
HETATM    1  C2  UNL     1      18.272  27.931  19.379  1.00  0.00     0.243 C 
ENDROOT
BRANCH   1   2
HETATM    2  O1  UNL     1      18.880  28.317  20.528  1.00  0.00    -0.379 OA
HETATM    3  C1  UNL     1      18.666  27.505  21.623  1.00  0.00     0.202 C 
ENDBRANCH   1   2
BRANCH   1   4
HETATM    4  C3  UNL     1      16.780  28.172  19.419  1.00  0.00     0.250 C 
HETATM    5  O2  UNL     1      16.063  27.424  18.724  1.00  0.00    -0.271 OA
HETATM    6  N1  UNL     1      16.258  29.209  20.222  1.00  0.00    -0.346 N 
ATOM      7  H1  UNL     1      16.898  29.785  20.767  1.00  0.00     0.163 HD
BRANCH   6   8
HETATM    8  C4  UNL     1      14.817  29.481  20.293  1.00  0.00     0.176 C 
HETATM    9  C5  UNL     1      14.151  28.530  21.227  1.00  0.00     0.037 C 
HETATM   10  C6  UNL     1      12.694  28.325  20.974  1.00  0.00     0.036 C 
HETATM   11  C7  UNL     1      11.957  29.607  20.676  1.00  0.00     0.136 C 
HETATM   12  C8  UNL     1      12.208  30.661  21.727  1.00  0.00     0.154 C 
HETATM   13  N2  UNL     1      13.390  31.403  21.356  1.00  0.00    -0.357 N 
HETATM   14  C9  UNL     1      14.567  30.867  20.762  1.00  0.00     0.240 C 
ATOM     15  H2  UNL     1      13.381  32.407  21.537  1.00  0.00     0.162 HD
HETATM   16  O4  UNL     1      15.481  31.723  20.644  1.00  0.00    -0.271 OA
BRANCH  11  17
HETATM   17  O3  UNL     1      10.592  29.362  20.653  1.00  0.00    -0.394 OA
ATOM     18  H3  UNL     1      10.215  29.739  19.866  1.00  0.00     0.210 HD
ENDBRANCH  11  17
ENDBRANCH   6   8
ENDBRANCH   1   4
BRANCH   1  19
HETATM   19  C10 UNL     1      18.784  28.448  18.089  1.00  0.00     0.187 C 
BRANCH  19  20
HETATM   20  O5  UNL     1      18.177  27.632  17.084  1.00  0.00    -0.390 OA
ATOM     21  H5  UNL     1      18.151  28.171  16.303  1.00  0.00     0.210 HD
ENDBRANCH  19  20
BRANCH  19  22
HETATM   22  C11 UNL     1      20.257  28.308  17.846  1.00  0.00     0.182 C 
BRANCH  22  23
HETATM   23  O6  UNL     1      20.566  26.984  18.279  1.00  0.00    -0.390 OA
ATOM     24  H6  UNL     1      20.523  26.460  17.488  1.00  0.00     0.210 HD
ENDBRANCH  22  23
BRANCH  22  25
HETATM   25  C12 UNL     1      20.589  28.280  16.365  1.00  0.00     0.172 C 
BRANCH  25  26
HETATM   26  O7  UNL     1      21.878  27.714  16.232  1.00  0.00    -0.389 OA
ATOM     27  H7  UNL     1      21.891  27.225  15.417  1.00  0.00     0.210 HD
ENDBRANCH  25  26
BRANCH  25  28
HETATM   28  C13 UNL     1      20.719  29.670  15.878  1.00  0.00     0.004 C 
HETATM   29  C14 UNL     1      19.771  30.383  15.302  1.00  0.00    -0.020 C 
BRANCH  29  30
HETATM   30  C15 UNL     1      19.990  31.780  14.842  1.00  0.00    -0.034 C 
HETATM   31  C16 UNL     1      18.928  32.635  15.526  1.00  0.00     0.018 C 
HETATM   32  C17 UNL     1      19.835  31.894  13.334  1.00  0.00     0.018 C 
HETATM   33  C18 UNL     1      21.372  32.287  15.187  1.00  0.00     0.018 C 
ENDBRANCH  29  30
ENDBRANCH  25  28
ENDBRANCH  22  25
ENDBRANCH  19  22
ENDBRANCH   1  19
TORSDOF 12
ENDMDL
