MODEL 11
REMARK VINA RESULT: -7.539035925      3.717      7.256
REMARK  12 active torsions:
REMARK  status: ('A' for Active; 'I' for Inactive)
REMARK    1  A    between atoms: O1_2  and  C2_3 
REMARK    2  A    between atoms: C2_3  and  C3_4 
REMARK    3  A    between atoms: C2_3  and  C10_19 
REMARK       I    between atoms: C3_4  and  N1_6 
REMARK    4  A    between atoms: N1_6  and  C4_8 
REMARK    5  A    between atoms: C7_11  and  O3_12 
REMARK    6  A    between atoms: C10_19  and  O5_20 
REMARK    7  A    between atoms: C10_19  and  C11_22 
REMARK    8  A    between atoms: C11_22  and  O6_23 
REMARK    9  A    between atoms: C11_22  and  C12_25 
REMARK   10  A    between atoms: C12_25  and  O7_26 
REMARK   11  A    between atoms: C12_25  and  C13_28 
REMARK   12  A    between atoms: C14_29  and  C15_30 
ROOT
HETATM    1  C2  UNL     1      13.816  28.782  21.187  1.00  0.00     0.243 C 
ENDROOT
BRANCH   1   2
HETATM    2  O1  UNL     1      12.687  28.080  20.921  1.00  0.00    -0.379 OA
HETATM    3  C1  UNL     1      11.501  28.769  21.072  1.00  0.00     0.202 C 
ENDBRANCH   1   2
BRANCH   1   4
HETATM    4  C3  UNL     1      14.974  28.342  20.321  1.00  0.00     0.250 C 
HETATM    5  O2  UNL     1      14.725  28.075  19.128  1.00  0.00    -0.271 OA
HETATM    6  N1  UNL     1      16.270  28.251  20.875  1.00  0.00    -0.346 N 
ATOM      7  H1  UNL     1      16.407  28.484  21.858  1.00  0.00     0.163 HD
BRANCH   6   8
HETATM    8  C4  UNL     1      17.425  27.829  20.073  1.00  0.00     0.176 C 
HETATM    9  C5  UNL     1      17.862  28.928  19.167  1.00  0.00     0.037 C 
HETATM   10  C6  UNL     1      18.612  28.478  17.958  1.00  0.00     0.036 C 
HETATM   11  C7  UNL     1      19.628  27.402  18.255  1.00  0.00     0.136 C 
HETATM   12  C8  UNL     1      20.552  27.794  19.382  1.00  0.00     0.154 C 
HETATM   13  N2  UNL     1      19.946  27.390  20.630  1.00  0.00    -0.357 N 
HETATM   14  C9  UNL     1      18.562  27.451  20.950  1.00  0.00     0.240 C 
ATOM     15  H2  UNL     1      20.571  27.026  21.349  1.00  0.00     0.162 HD
HETATM   16  O4  UNL     1      18.329  27.134  22.145  1.00  0.00    -0.271 OA
BRANCH  11  17
HETATM   17  O3  UNL     1      20.413  27.184  17.132  1.00  0.00    -0.394 OA
ATOM     18  H3  UNL     1      19.882  26.799  16.444  1.00  0.00     0.210 HD
ENDBRANCH  11  17
ENDBRANCH   6   8
ENDBRANCH   1   4
BRANCH   1  19
HETATM   19  C10 UNL     1      13.762  30.262  21.160  1.00  0.00     0.187 C 
BRANCH  19  20
HETATM   20  O5  UNL     1      14.528  30.650  20.018  1.00  0.00    -0.390 OA
ATOM     21  H5  UNL     1      14.205  31.510  19.776  1.00  0.00     0.210 HD
ENDBRANCH  19  20
BRANCH  19  22
HETATM   22  C11 UNL     1      14.410  30.978  22.307  1.00  0.00     0.182 C 
BRANCH  22  23
HETATM   23  O6  UNL     1      14.714  29.947  23.246  1.00  0.00    -0.390 OA
ATOM     24  H6  UNL     1      13.879  29.530  23.420  1.00  0.00     0.210 HD
ENDBRANCH  22  23
BRANCH  22  25
HETATM   25  C12 UNL     1      15.775  31.528  21.934  1.00  0.00     0.172 C 
BRANCH  25  26
HETATM   26  O7  UNL     1      16.745  30.654  22.478  1.00  0.00    -0.389 OA
ATOM     27  H7  UNL     1      17.402  31.190  22.906  1.00  0.00     0.210 HD
ENDBRANCH  25  26
BRANCH  25  28
HETATM   28  C13 UNL     1      15.977  32.817  22.632  1.00  0.00     0.004 C 
HETATM   29  C14 UNL     1      16.633  33.860  22.161  1.00  0.00    -0.020 C 
BRANCH  29  30
HETATM   30  C15 UNL     1      16.787  35.121  22.933  1.00  0.00    -0.034 C 
HETATM   31  C16 UNL     1      15.973  36.182  22.199  1.00  0.00     0.018 C 
HETATM   32  C17 UNL     1      18.243  35.555  22.995  1.00  0.00     0.018 C 
HETATM   33  C18 UNL     1      16.303  34.983  24.359  1.00  0.00     0.018 C 
ENDBRANCH  29  30
ENDBRANCH  25  28
ENDBRANCH  22  25
ENDBRANCH  19  22
ENDBRANCH   1  19
TORSDOF 12
ENDMDL
