MODEL 3
REMARK VINA RESULT: -8.948685945      6.204      8.798
REMARK  10 active torsions:
REMARK  status: ('A' for Active; 'I' for Inactive)
REMARK    1  A    between atoms: N5_13  and  C6_14 
REMARK    2  A    between atoms: C7_16  and  C8_17 
REMARK    3  A    between atoms: C8_17  and  O2_18 
REMARK    4  A    between atoms: O2_18  and  P1_19 
REMARK    5  A    between atoms: P1_19  and  O5_22 
REMARK    6  A    between atoms: O5_22  and  P2_23 
REMARK    7  A    between atoms: P2_23  and  O8_26 
REMARK    8  A    between atoms: O8_26  and  P3_27 
REMARK    9  A    between atoms: C9_31  and  O12_32 
REMARK   10  A    between atoms: C10_34  and  O13_35 
ROOT
HETATM    1  C6  UNL     1     160.457   6.741  36.080  1.00  0.00     0.159 C 
HETATM    2  O1  UNL     1     160.064   7.911  35.409  1.00  0.00    -0.326 OA
HETATM    3  C7  UNL     1     161.157   8.671  35.481  1.00  0.00     0.186 C 
HETATM    4  C9  UNL     1     162.363   7.922  36.065  1.00  0.00     0.186 C 
HETATM    5  C10 UNL     1     161.857   6.514  35.635  1.00  0.00     0.224 C 
ENDROOT
BRANCH   3   6
HETATM    6  C8  UNL     1     161.709   9.513  34.404  1.00  0.00     0.216 C 
BRANCH   6   7
HETATM    7  O2  UNL     1     161.059   9.191  33.186  1.00  0.00    -0.287 OA
BRANCH   7   8
HETATM    8  P1  UNL     1     160.487  10.762  32.687  1.00  0.00     0.417 P 
HETATM    9  O3  UNL     1     159.180  11.000  33.250  1.00  0.00    -0.624 OA
HETATM   10  O4  UNL     1     161.703  11.797  33.466  1.00  0.00    -0.624 OA
BRANCH   8  11
HETATM   11  O5  UNL     1     160.694  11.017  31.048  1.00  0.00    -0.180 OA
BRANCH  11  12
HETATM   12  P2  UNL     1     160.460   9.499  30.235  1.00  0.00     0.428 P 
HETATM   13  O6  UNL     1     160.418   9.818  28.771  1.00  0.00    -0.624 OA
HETATM   14  O7  UNL     1     159.101   8.692  30.752  1.00  0.00    -0.624 OA
BRANCH  12  15
HETATM   15  O8  UNL     1     161.869   8.577  30.543  1.00  0.00    -0.173 OA
BRANCH  15  16
HETATM   16  P3  UNL     1     161.544   6.953  30.280  1.00  0.00     0.431 P 
HETATM   17  O9  UNL     1     161.152   6.227  31.519  1.00  0.00    -0.616 OA
HETATM   18  O10 UNL     1     160.264   6.868  29.164  1.00  0.00    -0.616 OA
HETATM   19  O11 UNL     1     162.946   6.262  29.618  1.00  0.00    -0.616 OA
ENDBRANCH  15  16
ENDBRANCH  12  15
ENDBRANCH  11  12
ENDBRANCH   8  11
ENDBRANCH   7   8
ENDBRANCH   6   7
ENDBRANCH   3   6
BRANCH   4  20
HETATM   20  O12 UNL     1     162.340   8.052  37.417  1.00  0.00    -0.390 OA
ATOM     21  H12 UNL     1     163.059   7.550  37.781  1.00  0.00     0.210 HD
ENDBRANCH   4  20
BRANCH   1  22
HETATM   22  N5  UNL     1     159.554   5.703  36.179  1.00  0.00    -0.273 N 
HETATM   23  C3  UNL     1     158.268   5.793  36.556  1.00  0.00     0.146 A 
HETATM   24  N3  UNL     1     157.602   6.809  37.082  1.00  0.00    -0.336 N 
HETATM   25  C4  UNL     1     157.619   4.623  36.336  1.00  0.00     0.120 A 
HETATM   26  C2  UNL     1     156.301   6.664  37.386  1.00  0.00     0.183 A 
ATOM     27  H3  UNL     1     158.074   7.696  37.257  1.00  0.00     0.168 HD
HETATM   28  N2  UNL     1     155.637   5.515  37.165  1.00  0.00    -0.339 N 
HETATM   29  C1  UNL     1     156.289   4.480  36.638  1.00  0.00     0.148 A 
ATOM     30  H2  UNL     1     154.647   5.437  37.398  1.00  0.00     0.167 HD
HETATM   31  N1  UNL     1     155.555   3.329  36.276  1.00  0.00    -0.080 NA
HETATM   32  N4  UNL     1     158.539   3.781  35.825  1.00  0.00    -0.346 N 
HETATM   33  C5  UNL     1     159.709   4.440  35.737  1.00  0.00     0.192 A 
ATOM     34  H4  UNL     1     158.376   2.812  35.552  1.00  0.00     0.167 HD
ENDBRANCH   1  22
BRANCH   5  35
HETATM   35  O13 UNL     1     162.631   5.680  36.430  1.00  0.00    -0.385 OA
ATOM     36  H13 UNL     1     163.451   5.381  36.056  1.00  0.00     0.210 HD
ENDBRANCH   5  35
TORSDOF 10
ENDMDL
