MODEL 2
REMARK VINA RESULT: -8.958953788      0.855      1.695
REMARK  10 active torsions:
REMARK  status: ('A' for Active; 'I' for Inactive)
REMARK    1  A    between atoms: N5_13  and  C6_14 
REMARK    2  A    between atoms: C7_16  and  C8_17 
REMARK    3  A    between atoms: C8_17  and  O2_18 
REMARK    4  A    between atoms: O2_18  and  P1_19 
REMARK    5  A    between atoms: P1_19  and  O5_22 
REMARK    6  A    between atoms: O5_22  and  P2_23 
REMARK    7  A    between atoms: P2_23  and  O8_26 
REMARK    8  A    between atoms: O8_26  and  P3_27 
REMARK    9  A    between atoms: C9_31  and  O12_32 
REMARK   10  A    between atoms: C10_34  and  O13_35 
ROOT
HETATM    1  C6  UNL     1     162.879  12.248  32.734  1.00  0.00     0.159 C 
HETATM    2  O1  UNL     1     161.830  12.035  31.824  1.00  0.00    -0.326 OA
HETATM    3  C7  UNL     1     161.462  10.781  32.090  1.00  0.00     0.186 C 
HETATM    4  C9  UNL     1     162.170  10.204  33.324  1.00  0.00     0.186 C 
HETATM    5  C10 UNL     1     162.419  11.591  33.985  1.00  0.00     0.224 C 
ENDROOT
BRANCH   3   6
HETATM    6  C8  UNL     1     160.080  10.273  32.163  1.00  0.00     0.216 C 
BRANCH   6   7
HETATM    7  O2  UNL     1     159.430  10.521  30.928  1.00  0.00    -0.287 OA
BRANCH   7   8
HETATM    8  P1  UNL     1     160.001   9.176  29.973  1.00  0.00     0.417 P 
HETATM    9  O3  UNL     1     158.953   8.193  29.849  1.00  0.00    -0.624 OA
HETATM   10  O4  UNL     1     160.282   9.995  28.421  1.00  0.00    -0.624 OA
BRANCH   8  11
HETATM   11  O5  UNL     1     161.512   8.654  30.460  1.00  0.00    -0.180 OA
BRANCH  11  12
HETATM   12  P2  UNL     1     161.553   6.923  30.316  1.00  0.00     0.428 P 
HETATM   13  O6  UNL     1     161.204   6.388  31.672  1.00  0.00    -0.624 OA
HETATM   14  O7  UNL     1     163.015   6.356  29.763  1.00  0.00    -0.624 OA
BRANCH  12  15
HETATM   15  O8  UNL     1     160.292   6.509  29.235  1.00  0.00    -0.173 OA
BRANCH  15  16
HETATM   16  P3  UNL     1     160.416   4.889  28.823  1.00  0.00     0.431 P 
HETATM   17  O9  UNL     1     161.072   4.067  29.877  1.00  0.00    -0.616 OA
HETATM   18  O10 UNL     1     158.838   4.307  28.575  1.00  0.00    -0.616 OA
HETATM   19  O11 UNL     1     161.306   4.805  27.380  1.00  0.00    -0.616 OA
ENDBRANCH  15  16
ENDBRANCH  12  15
ENDBRANCH  11  12
ENDBRANCH   8  11
ENDBRANCH   7   8
ENDBRANCH   6   7
ENDBRANCH   3   6
BRANCH   4  20
HETATM   20  O12 UNL     1     163.339   9.640  32.927  1.00  0.00    -0.390 OA
ATOM     21  H12 UNL     1     163.965   9.709  33.638  1.00  0.00     0.210 HD
ENDBRANCH   4  20
BRANCH   1  22
HETATM   22  N5  UNL     1     163.497  13.482  32.751  1.00  0.00    -0.273 N 
HETATM   23  C3  UNL     1     163.167  14.553  32.012  1.00  0.00     0.146 A 
HETATM   24  N3  UNL     1     162.331  14.661  30.991  1.00  0.00    -0.336 N 
HETATM   25  C4  UNL     1     163.838  15.653  32.434  1.00  0.00     0.120 A 
HETATM   26  C2  UNL     1     162.162  15.853  30.395  1.00  0.00     0.183 A 
ATOM     27  H3  UNL     1     161.820  13.844  30.658  1.00  0.00     0.168 HD
HETATM   28  N2  UNL     1     162.809  16.959  30.806  1.00  0.00    -0.339 N 
HETATM   29  C1  UNL     1     163.656  16.871  31.830  1.00  0.00     0.148 A 
ATOM     30  H2  UNL     1     162.654  17.852  30.339  1.00  0.00     0.167 HD
HETATM   31  N1  UNL     1     164.221  18.058  32.346  1.00  0.00    -0.080 NA
HETATM   32  N4  UNL     1     164.618  15.242  33.453  1.00  0.00    -0.346 N 
HETATM   33  C5  UNL     1     164.410  13.925  33.637  1.00  0.00     0.192 A 
ATOM     34  H4  UNL     1     165.256  15.828  33.991  1.00  0.00     0.167 HD
ENDBRANCH   1  22
BRANCH   5  35
HETATM   35  O13 UNL     1     163.400  11.286  34.920  1.00  0.00    -0.385 OA
ATOM     36  H13 UNL     1     163.294  11.667  35.784  1.00  0.00     0.210 HD
ENDBRANCH   5  35
TORSDOF 10
ENDMDL
