MODEL 1
REMARK VINA RESULT: -9.202902819      0.000      0.000
REMARK  10 active torsions:
REMARK  status: ('A' for Active; 'I' for Inactive)
REMARK    1  A    between atoms: N5_13  and  C6_14 
REMARK    2  A    between atoms: C7_16  and  C8_17 
REMARK    3  A    between atoms: C8_17  and  O2_18 
REMARK    4  A    between atoms: O2_18  and  P1_19 
REMARK    5  A    between atoms: P1_19  and  O5_22 
REMARK    6  A    between atoms: O5_22  and  P2_23 
REMARK    7  A    between atoms: P2_23  and  O8_26 
REMARK    8  A    between atoms: O8_26  and  P3_27 
REMARK    9  A    between atoms: C9_31  and  O12_32 
REMARK   10  A    between atoms: C10_34  and  O13_35 
ROOT
HETATM    1  C6  UNL     1     162.299  13.262  32.248  1.00  0.00     0.159 C 
HETATM    2  O1  UNL     1     161.443  12.539  31.400  1.00  0.00    -0.326 OA
HETATM    3  C7  UNL     1     161.436  11.327  31.956  1.00  0.00     0.186 C 
HETATM    4  C9  UNL     1     162.168  11.288  33.303  1.00  0.00     0.186 C 
HETATM    5  C10 UNL     1     161.942  12.796  33.614  1.00  0.00     0.224 C 
ENDROOT
BRANCH   3   6
HETATM    6  C8  UNL     1     160.262  10.452  32.128  1.00  0.00     0.216 C 
BRANCH   6   7
HETATM    7  O2  UNL     1     159.442  10.545  30.975  1.00  0.00    -0.287 OA
BRANCH   7   8
HETATM    8  P1  UNL     1     160.025   9.192  30.040  1.00  0.00     0.417 P 
HETATM    9  O3  UNL     1     158.973   8.213  29.901  1.00  0.00    -0.624 OA
HETATM   10  O4  UNL     1     160.339   9.999  28.488  1.00  0.00    -0.624 OA
BRANCH   8  11
HETATM   11  O5  UNL     1     161.523   8.665  30.559  1.00  0.00    -0.180 OA
BRANCH  11  12
HETATM   12  P2  UNL     1     161.583   6.940  30.360  1.00  0.00     0.428 P 
HETATM   13  O6  UNL     1     161.222   6.359  31.695  1.00  0.00    -0.624 OA
HETATM   14  O7  UNL     1     163.058   6.404  29.809  1.00  0.00    -0.624 OA
BRANCH  12  15
HETATM   15  O8  UNL     1     160.340   6.548  29.250  1.00  0.00    -0.173 OA
BRANCH  15  16
HETATM   16  P3  UNL     1     160.419   4.917  28.874  1.00  0.00     0.431 P 
HETATM   17  O9  UNL     1     161.064   4.101  29.940  1.00  0.00    -0.616 OA
HETATM   18  O10 UNL     1     158.824   4.370  28.653  1.00  0.00    -0.616 OA
HETATM   19  O11 UNL     1     161.293   4.778  27.425  1.00  0.00    -0.616 OA
ENDBRANCH  15  16
ENDBRANCH  12  15
ENDBRANCH  11  12
ENDBRANCH   8  11
ENDBRANCH   7   8
ENDBRANCH   6   7
ENDBRANCH   3   6
BRANCH   4  20
HETATM   20  O12 UNL     1     163.482  11.032  33.075  1.00  0.00    -0.390 OA
ATOM     21  H12 UNL     1     164.003  11.638  33.589  1.00  0.00     0.210 HD
ENDBRANCH   4  20
BRANCH   1  22
HETATM   22  N5  UNL     1     162.526  14.595  31.976  1.00  0.00    -0.273 N 
HETATM   23  C3  UNL     1     163.571  15.330  32.387  1.00  0.00     0.146 A 
HETATM   24  N3  UNL     1     164.519  15.047  33.268  1.00  0.00    -0.336 N 
HETATM   25  C4  UNL     1     163.588  16.534  31.764  1.00  0.00     0.120 A 
HETATM   26  C2  UNL     1     165.478  15.953  33.525  1.00  0.00     0.183 A 
ATOM     27  H3  UNL     1     164.522  14.148  33.748  1.00  0.00     0.168 HD
HETATM   28  N2  UNL     1     165.518  17.149  32.909  1.00  0.00    -0.339 N 
HETATM   29  C1  UNL     1     164.573  17.453  32.021  1.00  0.00     0.148 A 
ATOM     30  H2  UNL     1     166.263  17.814  33.119  1.00  0.00     0.167 HD
HETATM   31  N1  UNL     1     164.702  18.646  31.276  1.00  0.00    -0.080 NA
HETATM   32  N4  UNL     1     162.509  16.547  30.957  1.00  0.00    -0.346 N 
HETATM   33  C5  UNL     1     161.868  15.371  31.093  1.00  0.00     0.192 A 
ATOM     34  H4  UNL     1     162.228  17.315  30.348  1.00  0.00     0.167 HD
ENDBRANCH   1  22
BRANCH   5  35
HETATM   35  O13 UNL     1     162.882  13.024  34.610  1.00  0.00    -0.385 OA
ATOM     36  H13 UNL     1     162.734  12.587  35.440  1.00  0.00     0.210 HD
ENDBRANCH   5  35
TORSDOF 10
ENDMDL
