MODEL 12
REMARK VINA RESULT: -8.207696480      2.923      8.107
REMARK  10 active torsions:
REMARK  status: ('A' for Active; 'I' for Inactive)
REMARK    1  A    between atoms: C2_2  and  N1_3 
REMARK    2  A    between atoms: C2_2  and  C21_31 
REMARK       I    between atoms: N1_3  and  C3_5 
REMARK    3  A    between atoms: C3_5  and  C4_7 
REMARK    4  A    between atoms: C4_7  and  C5_8 
REMARK    5  A    between atoms: C4_7  and  C18_21 
REMARK    6  A    between atoms: C5_8  and  C6_9 
REMARK    7  A    between atoms: C9_12  and  C10_13 
REMARK    8  A    between atoms: C18_21  and  P1_22 
REMARK    9  A    between atoms: P1_22  and  C19_25 
REMARK   10  A    between atoms: C19_25  and  N2_27 
ROOT
HETATM    1  C4  UNL     1      29.719  44.841  35.987  1.00  0.00     0.111 C 
ENDROOT
BRANCH   1   2
HETATM    2  C3  UNL     1      30.769  46.000  36.134  1.00  0.00     0.226 C 
HETATM    3  N1  UNL     1      32.134  45.743  35.990  1.00  0.00    -0.346 N 
ATOM      4  H1  UNL     1      32.429  44.788  35.785  1.00  0.00     0.163 HD
HETATM    5  O1  UNL     1      30.367  47.145  36.382  1.00  0.00    -0.273 OA
BRANCH   3   6
HETATM    6  C2  UNL     1      33.151  46.769  36.116  1.00  0.00     0.181 C 
HETATM    7  C1  UNL     1      33.419  47.147  37.550  1.00  0.00     0.043 C 
BRANCH   6   8
HETATM    8  C21 UNL     1      34.399  46.394  35.404  1.00  0.00     0.196 C 
HETATM    9  O4  UNL     1      34.567  46.598  34.171  1.00  0.00    -0.646 OA
HETATM   10  O5  UNL     1      35.408  45.797  36.140  1.00  0.00    -0.646 OA
ENDBRANCH   6   8
ENDBRANCH   3   6
ENDBRANCH   1   2
BRANCH   1  11
HETATM   11  C5  UNL     1      30.388  43.679  36.616  1.00  0.00    -0.001 C 
BRANCH  11  12
HETATM   12  C6  UNL     1      29.833  42.366  36.689  1.00  0.00    -0.039 A 
HETATM   13  C7  UNL     1      30.567  41.218  36.769  1.00  0.00     0.012 A 
HETATM   14  C8  UNL     1      30.041  39.950  36.851  1.00  0.00     0.013 A 
HETATM   15  C9  UNL     1      28.673  39.799  36.855  1.00  0.00    -0.026 A 
HETATM   16  C16 UNL     1      27.891  40.929  36.777  1.00  0.00     0.013 A 
HETATM   17  C17 UNL     1      28.441  42.194  36.695  1.00  0.00     0.012 A 
BRANCH  15  18
HETATM   18  C10 UNL     1      28.076  38.456  36.944  1.00  0.00    -0.026 A 
HETATM   19  C11 UNL     1      28.012  37.707  35.804  1.00  0.00     0.012 A 
HETATM   20  C12 UNL     1      27.459  36.452  35.857  1.00  0.00     0.001 A 
HETATM   21  C13 UNL     1      26.962  35.911  37.016  1.00  0.00     0.000 A 
HETATM   22  C14 UNL     1      27.039  36.690  38.146  1.00  0.00     0.001 A 
HETATM   23  C15 UNL     1      27.590  37.953  38.123  1.00  0.00     0.012 A 
ENDBRANCH  15  18
ENDBRANCH  11  12
ENDBRANCH   1  11
BRANCH   1  24
HETATM   24  C18 UNL     1      29.361  44.827  34.549  1.00  0.00     0.123 C 
BRANCH  24  25
HETATM   25  P1  UNL     1      30.187  43.923  33.351  1.00  0.00     0.138 P 
HETATM   26  O2  UNL     1      30.678  45.041  32.450  1.00  0.00    -0.666 OA
HETATM   27  O3  UNL     1      31.804  43.474  33.496  1.00  0.00    -0.666 OA
BRANCH  25  28
HETATM   28  C19 UNL     1      29.211  43.119  32.092  1.00  0.00     0.270 C 
HETATM   29  C20 UNL     1      29.198  43.817  30.742  1.00  0.00     0.051 C 
BRANCH  28  30
HETATM   30  N2  UNL     1      27.842  43.067  32.560  1.00  0.00    -0.066 N 
ATOM     31  H23 UNL     1      27.765  43.167  33.572  1.00  0.00     0.275 HD
ATOM     32  H22 UNL     1      27.304  43.893  32.301  1.00  0.00     0.275 HD
ATOM     33  H21 UNL     1      27.428  42.200  32.215  1.00  0.00     0.275 HD
ENDBRANCH  28  30
ENDBRANCH  25  28
ENDBRANCH  24  25
ENDBRANCH   1  24
TORSDOF 10
ENDMDL
