MODEL 9
REMARK VINA RESULT: -8.271487026      2.212      5.080
REMARK  10 active torsions:
REMARK  status: ('A' for Active; 'I' for Inactive)
REMARK    1  A    between atoms: C2_2  and  N1_3 
REMARK    2  A    between atoms: C2_2  and  C21_31 
REMARK       I    between atoms: N1_3  and  C3_5 
REMARK    3  A    between atoms: C3_5  and  C4_7 
REMARK    4  A    between atoms: C4_7  and  C5_8 
REMARK    5  A    between atoms: C4_7  and  C18_21 
REMARK    6  A    between atoms: C5_8  and  C6_9 
REMARK    7  A    between atoms: C9_12  and  C10_13 
REMARK    8  A    between atoms: C18_21  and  P1_22 
REMARK    9  A    between atoms: P1_22  and  C19_25 
REMARK   10  A    between atoms: C19_25  and  N2_27 
ROOT
HETATM    1  C4  UNL     1      28.943  43.339  36.238  1.00  0.00     0.111 C 
ENDROOT
BRANCH   1   2
HETATM    2  C3  UNL     1      29.484  42.918  34.825  1.00  0.00     0.226 C 
HETATM    3  N1  UNL     1      28.682  43.055  33.690  1.00  0.00    -0.346 N 
ATOM      4  H1  UNL     1      27.742  43.434  33.802  1.00  0.00     0.163 HD
HETATM    5  O1  UNL     1      30.632  42.463  34.734  1.00  0.00    -0.273 OA
BRANCH   3   6
HETATM    6  C2  UNL     1      29.123  42.682  32.359  1.00  0.00     0.181 C 
HETATM    7  C1  UNL     1      28.018  42.084  31.527  1.00  0.00     0.043 C 
BRANCH   6   8
HETATM    8  C21 UNL     1      29.784  43.816  31.664  1.00  0.00     0.196 C 
HETATM    9  O4  UNL     1      30.352  44.756  32.282  1.00  0.00    -0.646 OA
HETATM   10  O5  UNL     1      29.764  43.823  30.279  1.00  0.00    -0.646 OA
ENDBRANCH   6   8
ENDBRANCH   3   6
ENDBRANCH   1   2
BRANCH   1  11
HETATM   11  C5  UNL     1      29.161  44.804  36.274  1.00  0.00    -0.001 C 
BRANCH  11  12
HETATM   12  C6  UNL     1      30.426  45.430  36.489  1.00  0.00    -0.039 A 
HETATM   13  C7  UNL     1      31.394  45.567  35.537  1.00  0.00     0.012 A 
HETATM   14  C8  UNL     1      32.610  46.178  35.731  1.00  0.00     0.013 A 
HETATM   15  C9  UNL     1      32.898  46.701  36.972  1.00  0.00    -0.026 A 
HETATM   16  C16 UNL     1      31.951  46.588  37.964  1.00  0.00     0.013 A 
HETATM   17  C17 UNL     1      30.735  45.969  37.746  1.00  0.00     0.012 A 
BRANCH  15  18
HETATM   18  C10 UNL     1      34.190  47.365  37.214  1.00  0.00    -0.026 A 
HETATM   19  C11 UNL     1      35.329  46.692  36.874  1.00  0.00     0.012 A 
HETATM   20  C12 UNL     1      36.547  47.285  37.090  1.00  0.00     0.001 A 
HETATM   21  C13 UNL     1      36.674  48.537  37.639  1.00  0.00     0.000 A 
HETATM   22  C14 UNL     1      35.509  49.188  37.972  1.00  0.00     0.001 A 
HETATM   23  C15 UNL     1      34.272  48.617  37.766  1.00  0.00     0.012 A 
ENDBRANCH  15  18
ENDBRANCH  11  12
ENDBRANCH   1  11
BRANCH   1  24
HETATM   24  C18 UNL     1      29.632  42.443  37.197  1.00  0.00     0.123 C 
BRANCH  24  25
HETATM   25  P1  UNL     1      29.069  40.890  37.650  1.00  0.00     0.138 P 
HETATM   26  O2  UNL     1      29.987  40.593  38.821  1.00  0.00    -0.666 OA
HETATM   27  O3  UNL     1      27.796  40.657  38.727  1.00  0.00    -0.666 OA
BRANCH  25  28
HETATM   28  C19 UNL     1      29.597  39.494  36.673  1.00  0.00     0.270 C 
HETATM   29  C20 UNL     1      28.627  38.324  36.641  1.00  0.00     0.051 C 
BRANCH  28  30
HETATM   30  N2  UNL     1      30.839  39.004  37.235  1.00  0.00    -0.066 N 
ATOM     31  H23 UNL     1      31.394  39.742  37.668  1.00  0.00     0.275 HD
ATOM     32  H22 UNL     1      30.698  38.434  38.068  1.00  0.00     0.275 HD
ATOM     33  H21 UNL     1      31.342  38.511  36.498  1.00  0.00     0.275 HD
ENDBRANCH  28  30
ENDBRANCH  25  28
ENDBRANCH  24  25
ENDBRANCH   1  24
TORSDOF 10
ENDMDL
