MODEL 2
REMARK VINA RESULT: -9.668737817      1.123      1.711
REMARK  10 active torsions:
REMARK  status: ('A' for Active; 'I' for Inactive)
REMARK    1  A    between atoms: C2_2  and  N1_3 
REMARK    2  A    between atoms: C2_2  and  C21_31 
REMARK       I    between atoms: N1_3  and  C3_5 
REMARK    3  A    between atoms: C3_5  and  C4_7 
REMARK    4  A    between atoms: C4_7  and  C5_8 
REMARK    5  A    between atoms: C4_7  and  C18_21 
REMARK    6  A    between atoms: C5_8  and  C6_9 
REMARK    7  A    between atoms: C9_12  and  C10_13 
REMARK    8  A    between atoms: C18_21  and  P1_22 
REMARK    9  A    between atoms: P1_22  and  C19_25 
REMARK   10  A    between atoms: C19_25  and  N2_27 
ROOT
HETATM    1  C4  UNL     1      29.814  44.305  33.002  1.00  0.00     0.111 C 
ENDROOT
BRANCH   1   2
HETATM    2  C3  UNL     1      30.070  43.278  34.162  1.00  0.00     0.226 C 
HETATM    3  N1  UNL     1      29.005  42.773  34.909  1.00  0.00    -0.346 N 
ATOM      4  H1  UNL     1      28.061  43.085  34.683  1.00  0.00     0.163 HD
HETATM    5  O1  UNL     1      31.233  42.924  34.403  1.00  0.00    -0.273 OA
BRANCH   3   6
HETATM    6  C2  UNL     1      29.177  41.824  35.993  1.00  0.00     0.181 C 
HETATM    7  C1  UNL     1      29.701  42.468  37.251  1.00  0.00     0.043 C 
BRANCH   6   8
HETATM    8  C21 UNL     1      27.934  41.052  36.248  1.00  0.00     0.196 C 
HETATM    9  O4  UNL     1      27.265  40.515  35.324  1.00  0.00    -0.646 OA
HETATM   10  O5  UNL     1      27.509  40.927  37.559  1.00  0.00    -0.646 OA
ENDBRANCH   6   8
ENDBRANCH   3   6
ENDBRANCH   1   2
BRANCH   1  11
HETATM   11  C5  UNL     1      29.865  45.621  33.681  1.00  0.00    -0.001 C 
BRANCH  11  12
HETATM   12  C6  UNL     1      30.989  46.113  34.410  1.00  0.00    -0.039 A 
HETATM   13  C7  UNL     1      32.202  46.410  33.857  1.00  0.00     0.012 A 
HETATM   14  C8  UNL     1      33.286  46.896  34.549  1.00  0.00     0.013 A 
HETATM   15  C9  UNL     1      33.167  47.108  35.904  1.00  0.00    -0.026 A 
HETATM   16  C16 UNL     1      31.962  46.824  36.506  1.00  0.00     0.013 A 
HETATM   17  C17 UNL     1      30.885  46.336  35.791  1.00  0.00     0.012 A 
BRANCH  15  18
HETATM   18  C10 UNL     1      34.307  47.630  36.675  1.00  0.00    -0.026 A 
HETATM   19  C11 UNL     1      35.461  46.900  36.683  1.00  0.00     0.012 A 
HETATM   20  C12 UNL     1      36.541  47.360  37.396  1.00  0.00     0.001 A 
HETATM   21  C13 UNL     1      36.511  48.533  38.108  1.00  0.00     0.000 A 
HETATM   22  C14 UNL     1      35.334  49.244  38.081  1.00  0.00     0.001 A 
HETATM   23  C15 UNL     1      34.236  48.806  37.374  1.00  0.00     0.012 A 
ENDBRANCH  15  18
ENDBRANCH  11  12
ENDBRANCH   1  11
BRANCH   1  24
HETATM   24  C18 UNL     1      28.574  43.837  32.340  1.00  0.00     0.123 C 
BRANCH  24  25
HETATM   25  P1  UNL     1      28.531  42.744  31.022  1.00  0.00     0.138 P 
HETATM   26  O2  UNL     1      27.606  43.486  30.076  1.00  0.00    -0.666 OA
HETATM   27  O3  UNL     1      29.658  42.773  29.771  1.00  0.00    -0.666 OA
BRANCH  25  28
HETATM   28  C19 UNL     1      27.489  41.303  31.168  1.00  0.00     0.270 C 
HETATM   29  C20 UNL     1      26.224  41.333  30.326  1.00  0.00     0.051 C 
BRANCH  28  30
HETATM   30  N2  UNL     1      27.079  41.191  32.552  1.00  0.00    -0.066 N 
ATOM     31  H23 UNL     1      27.798  41.504  33.204  1.00  0.00     0.275 HD
ATOM     32  H22 UNL     1      26.361  41.868  32.807  1.00  0.00     0.275 HD
ATOM     33  H21 UNL     1      26.790  40.226  32.714  1.00  0.00     0.275 HD
ENDBRANCH  28  30
ENDBRANCH  25  28
ENDBRANCH  24  25
ENDBRANCH   1  24
TORSDOF 10
ENDMDL
