MODEL 1
REMARK VINA RESULT: -10.086578095      0.000      0.000
REMARK  10 active torsions:
REMARK  status: ('A' for Active; 'I' for Inactive)
REMARK    1  A    between atoms: C2_2  and  N1_3 
REMARK    2  A    between atoms: C2_2  and  C21_31 
REMARK       I    between atoms: N1_3  and  C3_5 
REMARK    3  A    between atoms: C3_5  and  C4_7 
REMARK    4  A    between atoms: C4_7  and  C5_8 
REMARK    5  A    between atoms: C4_7  and  C18_21 
REMARK    6  A    between atoms: C5_8  and  C6_9 
REMARK    7  A    between atoms: C9_12  and  C10_13 
REMARK    8  A    between atoms: C18_21  and  P1_22 
REMARK    9  A    between atoms: P1_22  and  C19_25 
REMARK   10  A    between atoms: C19_25  and  N2_27 
ROOT
HETATM    1  C4  UNL     1      29.868  44.321  33.145  1.00  0.00     0.111 C 
ENDROOT
BRANCH   1   2
HETATM    2  C3  UNL     1      30.082  43.262  34.285  1.00  0.00     0.226 C 
HETATM    3  N1  UNL     1      28.988  42.701  34.946  1.00  0.00    -0.346 N 
ATOM      4  H1  UNL     1      28.051  42.994  34.671  1.00  0.00     0.163 HD
HETATM    5  O1  UNL     1      31.237  42.933  34.588  1.00  0.00    -0.273 OA
BRANCH   3   6
HETATM    6  C2  UNL     1      29.121  41.721  36.008  1.00  0.00     0.181 C 
HETATM    7  C1  UNL     1      29.600  42.328  37.302  1.00  0.00     0.043 C 
BRANCH   6   8
HETATM    8  C21 UNL     1      27.869  40.943  36.195  1.00  0.00     0.196 C 
HETATM    9  O4  UNL     1      27.195  40.497  35.228  1.00  0.00    -0.646 OA
HETATM   10  O5  UNL     1      27.443  40.710  37.491  1.00  0.00    -0.646 OA
ENDBRANCH   6   8
ENDBRANCH   3   6
ENDBRANCH   1   2
BRANCH   1  11
HETATM   11  C5  UNL     1      29.857  45.615  33.865  1.00  0.00    -0.001 C 
BRANCH  11  12
HETATM   12  C6  UNL     1      30.961  46.140  34.604  1.00  0.00    -0.039 A 
HETATM   13  C7  UNL     1      30.950  46.379  35.948  1.00  0.00     0.012 A 
HETATM   14  C8  UNL     1      32.010  46.874  36.669  1.00  0.00     0.013 A 
HETATM   15  C9  UNL     1      33.185  47.158  36.010  1.00  0.00    -0.026 A 
HETATM   16  C16 UNL     1      33.244  46.931  34.654  1.00  0.00     0.013 A 
HETATM   17  C17 UNL     1      32.165  46.434  33.949  1.00  0.00     0.012 A 
BRANCH  15  18
HETATM   18  C10 UNL     1      34.342  47.686  36.752  1.00  0.00    -0.026 A 
HETATM   19  C11 UNL     1      34.220  48.914  37.337  1.00  0.00     0.012 A 
HETATM   20  C12 UNL     1      35.283  49.433  38.033  1.00  0.00     0.001 A 
HETATM   21  C13 UNL     1      36.474  48.766  38.170  1.00  0.00     0.000 A 
HETATM   22  C14 UNL     1      36.566  47.533  37.569  1.00  0.00     0.001 A 
HETATM   23  C15 UNL     1      35.515  46.987  36.865  1.00  0.00     0.012 A 
ENDBRANCH  15  18
ENDBRANCH  11  12
ENDBRANCH   1  11
BRANCH   1  24
HETATM   24  C18 UNL     1      28.674  43.851  32.403  1.00  0.00     0.123 C 
BRANCH  24  25
HETATM   25  P1  UNL     1      28.723  43.046  30.893  1.00  0.00     0.138 P 
HETATM   26  O2  UNL     1      29.832  43.818  30.203  1.00  0.00    -0.666 OA
HETATM   27  O3  UNL     1      29.657  41.671  30.619  1.00  0.00    -0.666 OA
BRANCH  25  28
HETATM   28  C19 UNL     1      27.471  43.452  29.689  1.00  0.00     0.270 C 
HETATM   29  C20 UNL     1      26.400  42.392  29.489  1.00  0.00     0.051 C 
BRANCH  28  30
HETATM   30  N2  UNL     1      28.128  43.643  28.413  1.00  0.00    -0.066 N 
ATOM     31  H23 UNL     1      28.302  44.625  28.200  1.00  0.00     0.275 HD
ATOM     32  H22 UNL     1      29.099  43.331  28.418  1.00  0.00     0.275 HD
ATOM     33  H21 UNL     1      27.566  43.177  27.701  1.00  0.00     0.275 HD
ENDBRANCH  28  30
ENDBRANCH  25  28
ENDBRANCH  24  25
ENDBRANCH   1  24
TORSDOF 10
ENDMDL
