MODEL 10
REMARK VINA RESULT: -8.252508787      2.915      8.056
REMARK  10 active torsions:
REMARK  status: ('A' for Active; 'I' for Inactive)
REMARK    1  A    between atoms: C2_2  and  N1_3 
REMARK    2  A    between atoms: C2_2  and  C21_31 
REMARK       I    between atoms: N1_3  and  C3_5 
REMARK    3  A    between atoms: C3_5  and  C4_7 
REMARK    4  A    between atoms: C4_7  and  C5_8 
REMARK    5  A    between atoms: C4_7  and  C18_21 
REMARK    6  A    between atoms: C5_8  and  C6_9 
REMARK    7  A    between atoms: C9_12  and  C10_13 
REMARK    8  A    between atoms: C18_21  and  P1_22 
REMARK    9  A    between atoms: P1_22  and  C19_25 
REMARK   10  A    between atoms: C19_25  and  N2_27 
ROOT
HETATM    1  C4  UNL     1      30.070  44.051  34.564  1.00  0.00     0.111 C 
ENDROOT
BRANCH   1   2
HETATM    2  C3  UNL     1      30.964  45.327  34.756  1.00  0.00     0.226 C 
HETATM    3  N1  UNL     1      31.905  45.385  35.785  1.00  0.00    -0.346 N 
ATOM      4  H1  UNL     1      31.998  44.581  36.405  1.00  0.00     0.163 HD
HETATM    5  O1  UNL     1      30.820  46.282  33.980  1.00  0.00    -0.273 OA
BRANCH   3   6
HETATM    6  C2  UNL     1      32.759  46.536  36.015  1.00  0.00     0.181 C 
HETATM    7  C1  UNL     1      32.855  46.906  37.473  1.00  0.00     0.043 C 
BRANCH   6   8
HETATM    8  C21 UNL     1      34.100  46.354  35.404  1.00  0.00     0.196 C 
HETATM    9  O4  UNL     1      34.330  46.586  34.186  1.00  0.00    -0.646 OA
HETATM   10  O5  UNL     1      35.126  45.911  36.220  1.00  0.00    -0.646 OA
ENDBRANCH   6   8
ENDBRANCH   3   6
ENDBRANCH   1   2
BRANCH   1  11
HETATM   11  C5  UNL     1      30.278  43.285  35.815  1.00  0.00    -0.001 C 
BRANCH  11  12
HETATM   12  C6  UNL     1      29.761  41.978  36.060  1.00  0.00    -0.039 A 
HETATM   13  C7  UNL     1      30.440  40.984  36.705  1.00  0.00     0.012 A 
HETATM   14  C8  UNL     1      29.945  39.726  36.956  1.00  0.00     0.013 A 
HETATM   15  C9  UNL     1      28.671  39.419  36.536  1.00  0.00    -0.026 A 
HETATM   16  C16 UNL     1      27.947  40.390  35.882  1.00  0.00     0.013 A 
HETATM   17  C17 UNL     1      28.464  41.648  35.640  1.00  0.00     0.012 A 
BRANCH  15  18
HETATM   18  C10 UNL     1      28.109  38.082  36.791  1.00  0.00    -0.026 A 
HETATM   19  C11 UNL     1      27.860  37.277  35.716  1.00  0.00     0.012 A 
HETATM   20  C12 UNL     1      27.334  36.026  35.922  1.00  0.00     0.001 A 
HETATM   21  C13 UNL     1      27.044  35.544  37.174  1.00  0.00     0.000 A 
HETATM   22  C14 UNL     1      27.305  36.377  38.235  1.00  0.00     0.001 A 
HETATM   23  C15 UNL     1      27.833  37.638  38.057  1.00  0.00     0.012 A 
ENDBRANCH  15  18
ENDBRANCH  11  12
ENDBRANCH   1  11
BRANCH   1  24
HETATM   24  C18 UNL     1      30.474  43.492  33.252  1.00  0.00     0.123 C 
BRANCH  24  25
HETATM   25  P1  UNL     1      29.434  43.341  31.900  1.00  0.00     0.138 P 
HETATM   26  O2  UNL     1      28.597  44.597  32.053  1.00  0.00    -0.666 OA
HETATM   27  O3  UNL     1      29.833  43.922  30.370  1.00  0.00    -0.666 OA
BRANCH  25  28
HETATM   28  C19 UNL     1      28.057  42.214  32.028  1.00  0.00     0.270 C 
HETATM   29  C20 UNL     1      27.973  41.170  30.926  1.00  0.00     0.051 C 
BRANCH  28  30
HETATM   30  N2  UNL     1      26.839  42.995  31.970  1.00  0.00    -0.066 N 
ATOM     31  H23 UNL     1      26.870  43.724  31.257  1.00  0.00     0.275 HD
ATOM     32  H22 UNL     1      26.051  42.470  31.592  1.00  0.00     0.275 HD
ATOM     33  H21 UNL     1      26.659  43.361  32.904  1.00  0.00     0.275 HD
ENDBRANCH  28  30
ENDBRANCH  25  28
ENDBRANCH  24  25
ENDBRANCH   1  24
TORSDOF 10
ENDMDL
