MODEL 4
REMARK VINA RESULT: -8.576316905      2.072      2.922
REMARK  9 active torsions:
REMARK  status: ('A' for Active; 'I' for Inactive)
REMARK    1  A    between atoms: C2_2  and  N1_3 
REMARK    2  A    between atoms: C2_2  and  C21_28 
REMARK       I    between atoms: N1_3  and  C3_5 
REMARK    3  A    between atoms: C3_5  and  C4_7 
REMARK    4  A    between atoms: C4_7  and  C5_8 
REMARK    5  A    between atoms: C4_7  and  N2_15 
REMARK    6  A    between atoms: C5_8  and  C6_9 
REMARK       I    between atoms: N2_15  and  C12_17 
REMARK    7  A    between atoms: C12_17  and  C13_19 
REMARK    8  A    between atoms: C13_19  and  C14_21 
REMARK    9  A    between atoms: C14_21  and  C15_22 
ROOT
HETATM    1  C4  UNL     1      29.538  43.471  33.493  1.00  0.00     0.180 C 
ENDROOT
BRANCH   1   2
HETATM    2  C3  UNL     1      29.667  42.635  34.707  1.00  0.00     0.241 C 
HETATM    3  N1  UNL     1      28.598  42.131  35.491  1.00  0.00    -0.345 N 
ATOM      4  H1  UNL     1      27.640  42.347  35.213  1.00  0.00     0.163 HD
HETATM    5  O1  UNL     1      30.832  42.302  35.148  1.00  0.00    -0.271 OA
BRANCH   3   6
HETATM    6  C2  UNL     1      28.815  41.321  36.671  1.00  0.00     0.181 C 
HETATM    7  C1  UNL     1      29.268  42.183  37.848  1.00  0.00     0.043 C 
BRANCH   6   8
HETATM    8  C21 UNL     1      27.680  40.530  37.114  1.00  0.00     0.196 C 
HETATM    9  O3  UNL     1      26.616  40.554  36.454  1.00  0.00    -0.646 OA
HETATM   10  O4  UNL     1      27.700  39.730  38.245  1.00  0.00    -0.646 OA
ENDBRANCH   6   8
ENDBRANCH   3   6
ENDBRANCH   1   2
BRANCH   1  11
HETATM   11  C5  UNL     1      29.215  44.910  33.724  1.00  0.00     0.073 C 
BRANCH  11  12
HETATM   12  C6  UNL     1      30.143  45.698  34.520  1.00  0.00    -0.056 A 
HETATM   13  C7  UNL     1      29.755  46.435  35.627  1.00  0.00     0.007 A 
HETATM   14  C8  UNL     1      30.587  47.192  36.397  1.00  0.00     0.001 A 
HETATM   15  C9  UNL     1      31.925  47.238  36.066  1.00  0.00     0.000 A 
HETATM   16  C10 UNL     1      32.375  46.525  34.971  1.00  0.00     0.001 A 
HETATM   17  C11 UNL     1      31.509  45.771  34.213  1.00  0.00     0.007 A 
ENDBRANCH  11  12
ENDBRANCH   1  11
BRANCH   1  18
HETATM   18  N2  UNL     1      28.474  42.870  32.654  1.00  0.00    -0.346 N 
HETATM   19  C12 UNL     1      28.677  42.624  31.284  1.00  0.00     0.233 C 
HETATM   20  O2  UNL     1      29.802  42.935  30.800  1.00  0.00    -0.272 OA
ATOM     21  H2  UNL     1      27.578  42.630  33.078  1.00  0.00     0.163 HD
BRANCH  19  22
HETATM   22  C13 UNL     1      27.606  42.015  30.428  1.00  0.00     0.154 C 
HETATM   23  S1  UNL     1      27.213  43.099  29.058  1.00  0.00    -0.082 SA
BRANCH  22  24
HETATM   24  C14 UNL     1      26.408  41.760  31.318  1.00  0.00     0.064 C 
BRANCH  24  25
HETATM   25  C15 UNL     1      26.333  40.347  31.725  1.00  0.00    -0.057 A 
HETATM   26  C16 UNL     1      25.882  39.998  32.982  1.00  0.00     0.007 A 
HETATM   27  C17 UNL     1      25.836  38.651  33.301  1.00  0.00     0.001 A 
HETATM   28  C18 UNL     1      26.231  37.695  32.386  1.00  0.00     0.000 A 
HETATM   29  C19 UNL     1      26.679  38.055  31.137  1.00  0.00     0.001 A 
HETATM   30  C20 UNL     1      26.725  39.392  30.818  1.00  0.00     0.007 A 
ENDBRANCH  24  25
ENDBRANCH  22  24
ENDBRANCH  19  22
ENDBRANCH   1  18
TORSDOF 9
ENDMDL
