MODEL 6
REMARK VINA RESULT: -8.407667884      2.800      6.264
REMARK  9 active torsions:
REMARK  status: ('A' for Active; 'I' for Inactive)
REMARK    1  A    between atoms: C2_2  and  N1_3 
REMARK    2  A    between atoms: C2_2  and  C21_28 
REMARK       I    between atoms: N1_3  and  C3_5 
REMARK    3  A    between atoms: C3_5  and  C4_7 
REMARK    4  A    between atoms: C4_7  and  C5_8 
REMARK    5  A    between atoms: C4_7  and  N2_15 
REMARK    6  A    between atoms: C5_8  and  C6_9 
REMARK       I    between atoms: N2_15  and  C12_17 
REMARK    7  A    between atoms: C12_17  and  C13_19 
REMARK    8  A    between atoms: C13_19  and  C14_21 
REMARK    9  A    between atoms: C14_21  and  C15_22 
ROOT
HETATM    1  C4  UNL     1      27.720  42.678  30.667  1.00  0.00     0.180 C 
ENDROOT
BRANCH   1   2
HETATM    2  C3  UNL     1      28.803  43.239  31.502  1.00  0.00     0.241 C 
HETATM    3  N1  UNL     1      28.647  44.193  32.541  1.00  0.00    -0.345 N 
ATOM      4  H1  UNL     1      27.711  44.537  32.755  1.00  0.00     0.163 HD
HETATM    5  O1  UNL     1      30.025  42.873  31.317  1.00  0.00    -0.271 OA
BRANCH   3   6
HETATM    6  C2  UNL     1      29.766  44.694  33.309  1.00  0.00     0.181 C 
HETATM    7  C1  UNL     1      29.496  46.115  33.802  1.00  0.00     0.043 C 
BRANCH   6   8
HETATM    8  C21 UNL     1      30.156  43.895  34.459  1.00  0.00     0.196 C 
HETATM    9  O3  UNL     1      29.558  44.050  35.548  1.00  0.00    -0.646 OA
HETATM   10  O4  UNL     1      31.168  42.950  34.424  1.00  0.00    -0.646 OA
ENDBRANCH   6   8
ENDBRANCH   3   6
ENDBRANCH   1   2
BRANCH   1  11
HETATM   11  C5  UNL     1      26.768  41.761  31.362  1.00  0.00     0.073 C 
BRANCH  11  12
HETATM   12  C6  UNL     1      26.439  40.500  30.716  1.00  0.00    -0.056 A 
HETATM   13  C7  UNL     1      27.202  39.353  30.863  1.00  0.00     0.007 A 
HETATM   14  C8  UNL     1      26.937  38.153  30.274  1.00  0.00     0.001 A 
HETATM   15  C9  UNL     1      25.824  38.052  29.465  1.00  0.00     0.000 A 
HETATM   16  C10 UNL     1      25.022  39.162  29.277  1.00  0.00     0.001 A 
HETATM   17  C11 UNL     1      25.318  40.360  29.886  1.00  0.00     0.007 A 
ENDBRANCH  11  12
ENDBRANCH   1  11
BRANCH   1  18
HETATM   18  N2  UNL     1      28.359  41.944  29.548  1.00  0.00    -0.346 N 
HETATM   19  C12 UNL     1      27.999  42.193  28.212  1.00  0.00     0.233 C 
HETATM   20  O2  UNL     1      27.109  43.067  28.005  1.00  0.00    -0.272 OA
ATOM     21  H2  UNL     1      29.074  41.246  29.752  1.00  0.00     0.163 HD
BRANCH  19  22
HETATM   22  C13 UNL     1      28.642  41.456  27.074  1.00  0.00     0.154 C 
HETATM   23  S1  UNL     1      28.560  42.430  25.574  1.00  0.00    -0.082 SA
BRANCH  22  24
HETATM   24  C14 UNL     1      27.926  40.129  26.935  1.00  0.00     0.064 C 
BRANCH  24  25
HETATM   25  C15 UNL     1      28.872  39.035  26.662  1.00  0.00    -0.057 A 
HETATM   26  C16 UNL     1      28.455  37.719  26.682  1.00  0.00     0.007 A 
HETATM   27  C17 UNL     1      29.396  36.738  26.416  1.00  0.00     0.001 A 
HETATM   28  C18 UNL     1      30.707  37.074  26.139  1.00  0.00     0.000 A 
HETATM   29  C19 UNL     1      31.110  38.388  26.122  1.00  0.00     0.001 A 
HETATM   30  C20 UNL     1      30.178  39.363  26.386  1.00  0.00     0.007 A 
ENDBRANCH  24  25
ENDBRANCH  22  24
ENDBRANCH  19  22
ENDBRANCH   1  18
TORSDOF 9
ENDMDL
