MODEL 9
REMARK VINA RESULT: -7.975827406      2.350      3.025
REMARK  9 active torsions:
REMARK  status: ('A' for Active; 'I' for Inactive)
REMARK    1  A    between atoms: C2_2  and  N1_3 
REMARK    2  A    between atoms: C2_2  and  C21_28 
REMARK       I    between atoms: N1_3  and  C3_5 
REMARK    3  A    between atoms: C3_5  and  C4_7 
REMARK    4  A    between atoms: C4_7  and  C5_8 
REMARK    5  A    between atoms: C4_7  and  N2_15 
REMARK    6  A    between atoms: C5_8  and  C6_9 
REMARK       I    between atoms: N2_15  and  C12_17 
REMARK    7  A    between atoms: C12_17  and  C13_19 
REMARK    8  A    between atoms: C13_19  and  C14_21 
REMARK    9  A    between atoms: C14_21  and  C15_22 
ROOT
HETATM    1  C4  UNL     1      29.350  43.029  34.166  1.00  0.00     0.180 C 
ENDROOT
BRANCH   1   2
HETATM    2  C3  UNL     1      29.114  42.044  35.243  1.00  0.00     0.241 C 
HETATM    3  N1  UNL     1      30.098  41.503  36.111  1.00  0.00    -0.345 N 
ATOM      4  H1  UNL     1      31.066  41.807  36.006  1.00  0.00     0.163 HD
HETATM    5  O1  UNL     1      27.927  41.590  35.464  1.00  0.00    -0.271 OA
BRANCH   3   6
HETATM    6  C2  UNL     1      29.779  40.536  37.139  1.00  0.00     0.181 C 
HETATM    7  C1  UNL     1      31.023  39.752  37.555  1.00  0.00     0.043 C 
BRANCH   6   8
HETATM    8  C21 UNL     1      29.170  41.070  38.346  1.00  0.00     0.196 C 
HETATM    9  O3  UNL     1      29.834  41.833  39.085  1.00  0.00    -0.646 OA
HETATM   10  O4  UNL     1      27.873  40.785  38.738  1.00  0.00    -0.646 OA
ENDBRANCH   6   8
ENDBRANCH   3   6
ENDBRANCH   1   2
BRANCH   1  11
HETATM   11  C5  UNL     1      29.064  44.453  34.510  1.00  0.00     0.073 C 
BRANCH  11  12
HETATM   12  C6  UNL     1      30.187  45.311  34.853  1.00  0.00    -0.056 A 
HETATM   13  C7  UNL     1      30.210  46.115  35.981  1.00  0.00     0.007 A 
HETATM   14  C8  UNL     1      31.236  46.938  36.339  1.00  0.00     0.001 A 
HETATM   15  C9  UNL     1      32.350  46.985  35.528  1.00  0.00     0.000 A 
HETATM   16  C10 UNL     1      32.390  46.207  34.386  1.00  0.00     0.001 A 
HETATM   17  C11 UNL     1      31.336  45.387  34.053  1.00  0.00     0.007 A 
ENDBRANCH  11  12
ENDBRANCH   1  11
BRANCH   1  18
HETATM   18  N2  UNL     1      28.503  42.636  33.014  1.00  0.00    -0.346 N 
HETATM   19  C12 UNL     1      28.980  42.726  31.694  1.00  0.00     0.233 C 
HETATM   20  O2  UNL     1      30.158  43.156  31.532  1.00  0.00    -0.272 OA
ATOM     21  H2  UNL     1      27.558  42.293  33.182  1.00  0.00     0.163 HD
BRANCH  19  22
HETATM   22  C13 UNL     1      28.130  42.330  30.523  1.00  0.00     0.154 C 
HETATM   23  S1  UNL     1      28.216  43.576  29.240  1.00  0.00    -0.082 SA
BRANCH  22  24
HETATM   24  C14 UNL     1      26.719  42.133  31.036  1.00  0.00     0.064 C 
BRANCH  24  25
HETATM   25  C15 UNL     1      26.426  40.708  31.267  1.00  0.00    -0.057 A 
HETATM   26  C16 UNL     1      25.660  40.311  32.344  1.00  0.00     0.007 A 
HETATM   27  C17 UNL     1      25.422  38.956  32.503  1.00  0.00     0.001 A 
HETATM   28  C18 UNL     1      25.938  38.039  31.609  1.00  0.00     0.000 A 
HETATM   29  C19 UNL     1      26.700  38.447  30.539  1.00  0.00     0.001 A 
HETATM   30  C20 UNL     1      26.937  39.792  30.379  1.00  0.00     0.007 A 
ENDBRANCH  24  25
ENDBRANCH  22  24
ENDBRANCH  19  22
ENDBRANCH   1  18
TORSDOF 9
ENDMDL
