MODEL 10
REMARK VINA RESULT: -7.886702575      2.991      6.505
REMARK  9 active torsions:
REMARK  status: ('A' for Active; 'I' for Inactive)
REMARK    1  A    between atoms: C2_2  and  N1_3 
REMARK    2  A    between atoms: C2_2  and  C21_28 
REMARK       I    between atoms: N1_3  and  C3_5 
REMARK    3  A    between atoms: C3_5  and  C4_7 
REMARK    4  A    between atoms: C4_7  and  C5_8 
REMARK    5  A    between atoms: C4_7  and  N2_15 
REMARK    6  A    between atoms: C5_8  and  C6_9 
REMARK       I    between atoms: N2_15  and  C12_17 
REMARK    7  A    between atoms: C12_17  and  C13_19 
REMARK    8  A    between atoms: C13_19  and  C14_21 
REMARK    9  A    between atoms: C14_21  and  C15_22 
ROOT
HETATM    1  C4  UNL     1      28.118  42.459  30.882  1.00  0.00     0.180 C 
ENDROOT
BRANCH   1   2
HETATM    2  C3  UNL     1      29.062  43.212  31.736  1.00  0.00     0.241 C 
HETATM    3  N1  UNL     1      28.712  44.135  32.755  1.00  0.00    -0.345 N 
ATOM      4  H1  UNL     1      27.724  44.312  32.939  1.00  0.00     0.163 HD
HETATM    5  O1  UNL     1      30.335  43.065  31.587  1.00  0.00    -0.271 OA
BRANCH   3   6
HETATM    6  C2  UNL     1      29.704  44.836  33.542  1.00  0.00     0.181 C 
HETATM    7  C1  UNL     1      29.165  46.181  34.027  1.00  0.00     0.043 C 
BRANCH   6   8
HETATM    8  C21 UNL     1      30.215  44.121  34.699  1.00  0.00     0.196 C 
HETATM    9  O3  UNL     1      31.332  43.559  34.633  1.00  0.00    -0.646 OA
HETATM   10  O4  UNL     1      29.531  44.022  35.900  1.00  0.00    -0.646 OA
ENDBRANCH   6   8
ENDBRANCH   3   6
ENDBRANCH   1   2
BRANCH   1  11
HETATM   11  C5  UNL     1      27.512  43.220  29.750  1.00  0.00     0.073 C 
BRANCH  11  12
HETATM   12  C6  UNL     1      27.388  42.549  28.466  1.00  0.00    -0.056 A 
HETATM   13  C7  UNL     1      28.369  42.596  27.489  1.00  0.00     0.007 A 
HETATM   14  C8  UNL     1      28.295  41.989  26.271  1.00  0.00     0.001 A 
HETATM   15  C9  UNL     1      27.161  41.263  25.969  1.00  0.00     0.000 A 
HETATM   16  C10 UNL     1      26.145  41.178  26.902  1.00  0.00     0.001 A 
HETATM   17  C11 UNL     1      26.251  41.804  28.123  1.00  0.00     0.007 A 
ENDBRANCH  11  12
ENDBRANCH   1  11
BRANCH   1  18
HETATM   18  N2  UNL     1      27.032  41.959  31.759  1.00  0.00    -0.346 N 
HETATM   19  C12 UNL     1      26.610  40.619  31.707  1.00  0.00     0.233 C 
HETATM   20  O2  UNL     1      27.195  39.859  30.883  1.00  0.00    -0.272 OA
ATOM     21  H2  UNL     1      26.582  42.600  32.412  1.00  0.00     0.163 HD
BRANCH  19  22
HETATM   22  C13 UNL     1      25.512  40.105  32.591  1.00  0.00     0.154 C 
HETATM   23  S1  UNL     1      26.175  39.593  34.174  1.00  0.00    -0.082 SA
BRANCH  22  24
HETATM   24  C14 UNL     1      24.839  38.965  31.857  1.00  0.00     0.064 C 
BRANCH  24  25
HETATM   25  C15 UNL     1      23.612  39.415  31.178  1.00  0.00    -0.057 A 
HETATM   26  C16 UNL     1      22.445  39.613  31.887  1.00  0.00     0.007 A 
HETATM   27  C17 UNL     1      21.327  40.037  31.188  1.00  0.00     0.001 A 
HETATM   28  C18 UNL     1      21.387  40.254  29.825  1.00  0.00     0.000 A 
HETATM   29  C19 UNL     1      22.556  40.054  29.129  1.00  0.00     0.001 A 
HETATM   30  C20 UNL     1      23.667  39.633  29.822  1.00  0.00     0.007 A 
ENDBRANCH  24  25
ENDBRANCH  22  24
ENDBRANCH  19  22
ENDBRANCH   1  18
TORSDOF 9
ENDMDL
