MODEL 8
REMARK VINA RESULT: -8.081121263      4.789      9.061
REMARK  9 active torsions:
REMARK  status: ('A' for Active; 'I' for Inactive)
REMARK    1  A    between atoms: C2_2  and  N1_3 
REMARK    2  A    between atoms: C2_2  and  C21_28 
REMARK       I    between atoms: N1_3  and  C3_5 
REMARK    3  A    between atoms: C3_5  and  C4_7 
REMARK    4  A    between atoms: C4_7  and  C5_8 
REMARK    5  A    between atoms: C4_7  and  N2_15 
REMARK    6  A    between atoms: C5_8  and  C6_9 
REMARK       I    between atoms: N2_15  and  C12_17 
REMARK    7  A    between atoms: C12_17  and  C13_19 
REMARK    8  A    between atoms: C13_19  and  C14_21 
REMARK    9  A    between atoms: C14_21  and  C15_22 
ROOT
HETATM    1  C4  UNL     1      26.630  41.276  26.388  1.00  0.00     0.180 C 
ENDROOT
BRANCH   1   2
HETATM    2  C3  UNL     1      26.787  42.006  27.665  1.00  0.00     0.241 C 
HETATM    3  N1  UNL     1      27.281  41.466  28.880  1.00  0.00    -0.345 N 
ATOM      4  H1  UNL     1      27.565  40.486  28.903  1.00  0.00     0.163 HD
HETATM    5  O1  UNL     1      26.459  43.250  27.749  1.00  0.00    -0.271 OA
BRANCH   3   6
HETATM    6  C2  UNL     1      27.398  42.254  30.089  1.00  0.00     0.181 C 
HETATM    7  C1  UNL     1      27.069  41.413  31.322  1.00  0.00     0.043 C 
BRANCH   6   8
HETATM    8  C21 UNL     1      28.688  42.882  30.315  1.00  0.00     0.196 C 
HETATM    9  O3  UNL     1      29.163  43.644  29.442  1.00  0.00    -0.646 OA
HETATM   10  O4  UNL     1      29.442  42.691  31.461  1.00  0.00    -0.646 OA
ENDBRANCH   6   8
ENDBRANCH   3   6
ENDBRANCH   1   2
BRANCH   1  11
HETATM   11  C5  UNL     1      25.370  40.489  26.238  1.00  0.00     0.073 C 
BRANCH  11  12
HETATM   12  C6  UNL     1      24.170  41.196  25.823  1.00  0.00    -0.056 A 
HETATM   13  C7  UNL     1      23.703  41.194  24.518  1.00  0.00     0.007 A 
HETATM   14  C8  UNL     1      22.588  41.845  24.082  1.00  0.00     0.001 A 
HETATM   15  C9  UNL     1      21.851  42.568  24.997  1.00  0.00     0.000 A 
HETATM   16  C10 UNL     1      22.265  42.610  26.315  1.00  0.00     0.001 A 
HETATM   17  C11 UNL     1      23.396  41.942  26.724  1.00  0.00     0.007 A 
ENDBRANCH  11  12
ENDBRANCH   1  11
BRANCH   1  18
HETATM   18  N2  UNL     1      27.787  40.357  26.260  1.00  0.00    -0.346 N 
HETATM   19  C12 UNL     1      28.991  40.778  25.668  1.00  0.00     0.233 C 
HETATM   20  O2  UNL     1      29.045  41.971  25.251  1.00  0.00    -0.272 OA
ATOM     21  H2  UNL     1      27.708  39.402  26.608  1.00  0.00     0.163 HD
BRANCH  19  22
HETATM   22  C13 UNL     1      30.166  39.856  25.534  1.00  0.00     0.154 C 
HETATM   23  S1  UNL     1      30.596  39.639  23.810  1.00  0.00    -0.082 SA
BRANCH  22  24
HETATM   24  C14 UNL     1      29.790  38.548  26.199  1.00  0.00     0.064 C 
BRANCH  24  25
HETATM   25  C15 UNL     1      30.885  37.567  26.112  1.00  0.00    -0.057 A 
HETATM   26  C16 UNL     1      32.132  37.854  26.629  1.00  0.00     0.007 A 
HETATM   27  C17 UNL     1      33.118  36.888  26.514  1.00  0.00     0.001 A 
HETATM   28  C18 UNL     1      32.853  35.680  25.901  1.00  0.00     0.000 A 
HETATM   29  C19 UNL     1      31.607  35.405  25.389  1.00  0.00     0.001 A 
HETATM   30  C20 UNL     1      30.627  36.363  25.503  1.00  0.00     0.007 A 
ENDBRANCH  24  25
ENDBRANCH  22  24
ENDBRANCH  19  22
ENDBRANCH   1  18
TORSDOF 9
ENDMDL
