MODEL 3
REMARK VINA RESULT: -3.224054376      1.511      1.742
REMARK  4 active torsions:
REMARK  status: ('A' for Active; 'I' for Inactive)
REMARK    1  A    between atoms: C2_2  and  O1_3 
REMARK    2  A    between atoms: O1_3  and  C3_4 
REMARK    3  A    between atoms: C3_4  and  C4_5 
REMARK    4  A    between atoms: C4_5  and  O2_6 
ROOT
HETATM    1  C3  UNL     1      75.566  11.293  13.001  1.00  0.00     0.193 C 
ENDROOT
BRANCH   1   2
HETATM    2  O1  UNL     1      74.261  11.735  13.021  1.00  0.00    -0.389 OA
BRANCH   2   3
HETATM    3  C2  UNL     1      73.921  12.288  14.246  1.00  0.00     0.163 C 
HETATM    4  C1  UNL     1      75.129  12.822  14.967  1.00  0.00     0.033 C 
ENDBRANCH   2   3
ENDBRANCH   1   2
BRANCH   1   5
HETATM    5  C4  UNL     1      76.126  11.533  11.601  1.00  0.00     0.190 C 
BRANCH   5   6
HETATM    6  O2  UNL     1      75.043  11.762  10.771  1.00  0.00    -0.399 OA
ATOM      7  H2  UNL     1      74.934  12.703  10.714  1.00  0.00     0.209 HD
ENDBRANCH   5   6
ENDBRANCH   1   5
TORSDOF 4
ENDMDL
