MODEL 7
REMARK VINA RESULT: -3.176208310      6.322      7.217
REMARK  4 active torsions:
REMARK  status: ('A' for Active; 'I' for Inactive)
REMARK    1  A    between atoms: C2_2  and  O1_3 
REMARK    2  A    between atoms: O1_3  and  C3_4 
REMARK    3  A    between atoms: C3_4  and  C4_5 
REMARK    4  A    between atoms: C4_5  and  O2_6 
ROOT
HETATM    1  C3  UNL     1      72.012  17.820  15.693  1.00  0.00     0.193 C 
ENDROOT
BRANCH   1   2
HETATM    2  O1  UNL     1      71.610  17.221  14.519  1.00  0.00    -0.389 OA
BRANCH   2   3
HETATM    3  C2  UNL     1      70.231  17.108  14.441  1.00  0.00     0.163 C 
HETATM    4  C1  UNL     1      69.563  18.457  14.469  1.00  0.00     0.033 C 
ENDBRANCH   2   3
ENDBRANCH   1   2
BRANCH   1   5
HETATM    5  C4  UNL     1      72.390  16.718  16.680  1.00  0.00     0.190 C 
BRANCH   5   6
HETATM    6  O2  UNL     1      73.680  16.326  16.369  1.00  0.00    -0.399 OA
ATOM      7  H2  UNL     1      73.879  16.691  15.515  1.00  0.00     0.209 HD
ENDBRANCH   5   6
ENDBRANCH   1   5
TORSDOF 4
ENDMDL
