MODEL 5
REMARK VINA RESULT: -6.236564519      2.561      4.011
REMARK  0 active torsions:
REMARK  status: ('A' for Active; 'I' for Inactive)
ROOT
HETATM    1  N1  UNL     1      18.057  16.995  16.504  1.00  0.00    -0.102 NA
HETATM    2  C1  UNL     1      17.397  16.818  17.740  1.00  0.00     0.047 A 
HETATM    3  C2  UNL     1      16.055  16.468  17.804  1.00  0.00     0.029 A 
HETATM    4  C3  UNL     1      15.442  16.304  19.021  1.00  0.00     0.032 A 
HETATM    5  C4  UNL     1      16.103  16.470  20.218  1.00  0.00     0.050 A 
HETATM    6  N2  UNL     1      15.511  16.310  21.416  1.00  0.00    -0.330 N 
ATOM      7  H2  UNL     1      14.524  16.053  21.439  1.00  0.00     0.168 HD
HETATM    8  C5  UNL     1      16.158  16.473  22.585  1.00  0.00     0.195 A 
HETATM    9  N3  UNL     1      15.499  16.295  23.845  1.00  0.00    -0.063 NA
HETATM   10  N4  UNL     1      17.456  16.810  22.509  1.00  0.00    -0.297 N 
ATOM     11  H4  UNL     1      17.976  16.941  23.377  1.00  0.00     0.171 HD
HETATM   12  C6  UNL     1      18.103  16.984  21.345  1.00  0.00     0.260 A 
HETATM   13  O1  UNL     1      19.319  17.301  21.299  1.00  0.00    -0.267 OA
HETATM   14  C7  UNL     1      17.439  16.817  20.147  1.00  0.00     0.060 A 
HETATM   15  C8  UNL     1      18.081  16.989  18.930  1.00  0.00     0.045 A 
ENDROOT
TORSDOF 0
ENDMDL
