MODEL 6
REMARK VINA RESULT: -6.236300461      2.182      3.536
REMARK  0 active torsions:
REMARK  status: ('A' for Active; 'I' for Inactive)
ROOT
HETATM    1  N1  UNL     1      15.777  16.329  23.576  1.00  0.00    -0.102 NA
HETATM    2  C1  UNL     1      16.553  16.543  22.416  1.00  0.00     0.047 A 
HETATM    3  C2  UNL     1      17.900  16.874  22.493  1.00  0.00     0.029 A 
HETATM    4  C3  UNL     1      18.628  17.076  21.347  1.00  0.00     0.032 A 
HETATM    5  C4  UNL     1      18.082  16.965  20.087  1.00  0.00     0.050 A 
HETATM    6  N2  UNL     1      18.788  17.160  18.958  1.00  0.00    -0.330 N 
ATOM      7  H2  UNL     1      19.776  17.402  19.039  1.00  0.00     0.168 HD
HETATM    8  C5  UNL     1      18.253  17.052  17.727  1.00  0.00     0.195 A 
HETATM    9  N3  UNL     1      19.031  17.266  16.543  1.00  0.00    -0.063 NA
HETATM   10  N4  UNL     1      16.950  16.731  17.666  1.00  0.00    -0.297 N 
ATOM     11  H4  UNL     1      16.514  16.640  16.748  1.00  0.00     0.171 HD
HETATM   12  C6  UNL     1      16.193  16.523  18.756  1.00  0.00     0.260 A 
HETATM   13  O1  UNL     1      14.974  16.224  18.674  1.00  0.00    -0.267 OA
HETATM   14  C7  UNL     1      16.742  16.635  20.017  1.00  0.00     0.060 A 
HETATM   15  C8  UNL     1      15.985  16.426  21.160  1.00  0.00     0.045 A 
ENDROOT
TORSDOF 0
ENDMDL
