MODEL 7
REMARK VINA RESULT: -5.896228347      3.120      4.339
REMARK  0 active torsions:
REMARK  status: ('A' for Active; 'I' for Inactive)
ROOT
HETATM    1  N1  UNL     1      16.267  15.276  18.376  1.00  0.00    -0.102 NA
HETATM    2  C1  UNL     1      14.932  15.288  17.914  1.00  0.00     0.047 A 
HETATM    3  C2  UNL     1      13.950  14.508  18.511  1.00  0.00     0.029 A 
HETATM    4  C3  UNL     1      12.661  14.541  18.039  1.00  0.00     0.032 A 
HETATM    5  C4  UNL     1      12.276  15.328  16.976  1.00  0.00     0.050 A 
HETATM    6  N2  UNL     1      11.015  15.366  16.507  1.00  0.00    -0.330 N 
ATOM      7  H2  UNL     1      10.310  14.785  16.960  1.00  0.00     0.168 HD
HETATM    8  C5  UNL     1      10.639  16.136  15.468  1.00  0.00     0.195 A 
HETATM    9  N3  UNL     1       9.288  16.156  14.992  1.00  0.00    -0.063 NA
HETATM   10  N4  UNL     1      11.598  16.886  14.900  1.00  0.00    -0.297 N 
ATOM     11  H4  UNL     1      11.347  17.481  14.111  1.00  0.00     0.171 HD
HETATM   12  C6  UNL     1      12.873  16.891  15.323  1.00  0.00     0.260 A 
HETATM   13  O1  UNL     1      13.755  17.602  14.775  1.00  0.00    -0.267 OA
HETATM   14  C7  UNL     1      13.258  16.102  16.388  1.00  0.00     0.060 A 
HETATM   15  C8  UNL     1      14.567  16.087  16.845  1.00  0.00     0.045 A 
ENDROOT
TORSDOF 0
ENDMDL
