MODEL 2
REMARK VINA RESULT: -6.559687009      1.592      4.346
REMARK  0 active torsions:
REMARK  status: ('A' for Active; 'I' for Inactive)
ROOT
HETATM    1  N1  UNL     1      13.822  16.380  15.595  1.00  0.00    -0.102 NA
HETATM    2  C1  UNL     1      14.715  16.412  16.688  1.00  0.00     0.047 A 
HETATM    3  C2  UNL     1      14.317  16.035  17.964  1.00  0.00     0.029 A 
HETATM    4  C3  UNL     1      15.209  16.078  19.006  1.00  0.00     0.032 A 
HETATM    5  C4  UNL     1      16.516  16.486  18.854  1.00  0.00     0.050 A 
HETATM    6  N2  UNL     1      17.397  16.531  19.870  1.00  0.00    -0.330 N 
ATOM      7  H2  UNL     1      17.082  16.249  20.798  1.00  0.00     0.168 HD
HETATM    8  C5  UNL     1      18.675  16.931  19.720  1.00  0.00     0.195 A 
HETATM    9  N3  UNL     1      19.589  16.968  20.822  1.00  0.00    -0.063 NA
HETATM   10  N4  UNL     1      19.047  17.293  18.481  1.00  0.00    -0.297 N 
ATOM     11  H4  UNL     1      20.008  17.600  18.332  1.00  0.00     0.171 HD
HETATM   12  C6  UNL     1      18.214  17.269  17.427  1.00  0.00     0.260 A 
HETATM   13  O1  UNL     1      18.586  17.613  16.276  1.00  0.00    -0.267 OA
HETATM   14  C7  UNL     1      16.906  16.860  17.582  1.00  0.00     0.060 A 
HETATM   15  C8  UNL     1      16.024  16.825  16.512  1.00  0.00     0.045 A 
ENDROOT
TORSDOF 0
ENDMDL
