MODEL 3
REMARK VINA RESULT: -4.419087208      0.081      1.444
REMARK  2 active torsions:
REMARK  status: ('A' for Active; 'I' for Inactive)
REMARK    1  A    between atoms: N1_2  and  C4_5 
REMARK    2  A    between atoms: C4_5  and  C5_6 
ROOT
HETATM    1  C1  UNL     1      26.390  24.215  73.348  1.00  0.00     0.272 C 
HETATM    2  N1  UNL     1      26.520  23.016  72.516  1.00  0.00    -0.069 N 
HETATM    3  C2  UNL     1      27.340  23.329  71.382  1.00  0.00     0.272 C 
HETATM    4  C3  UNL     1      27.109  21.942  73.284  1.00  0.00     0.272 C 
ENDROOT
BRANCH   2   5
HETATM    5  C4  UNL     1      25.173  22.621  72.165  1.00  0.00     0.348 C 
BRANCH   5   6
HETATM    6  C5  UNL     1      24.248  22.804  73.318  1.00  0.00     0.199 C 
HETATM    7  O1  UNL     1      23.271  23.595  73.250  1.00  0.00    -0.647 OA
HETATM    8  O2  UNL     1      24.415  22.120  74.513  1.00  0.00    -0.647 OA
ENDBRANCH   5   6
ENDBRANCH   2   5
TORSDOF 2
ENDMDL
