MODEL 20
REMARK VINA RESULT: -2.314907735      5.329      6.527
REMARK  2 active torsions:
REMARK  status: ('A' for Active; 'I' for Inactive)
REMARK    1  A    between atoms: N1_2  and  C4_5 
REMARK    2  A    between atoms: C4_5  and  C5_6 
ROOT
HETATM    1  C1  UNL     1      28.517  24.111  66.481  1.00  0.00     0.272 C 
HETATM    2  N1  UNL     1      29.702  23.574  67.156  1.00  0.00    -0.069 N 
HETATM    3  C2  UNL     1      30.425  22.751  66.231  1.00  0.00     0.272 C 
HETATM    4  C3  UNL     1      30.536  24.656  67.630  1.00  0.00     0.272 C 
ENDROOT
BRANCH   2   5
HETATM    5  C4  UNL     1      29.214  22.854  68.312  1.00  0.00     0.348 C 
BRANCH   5   6
HETATM    6  C5  UNL     1      28.640  23.791  69.319  1.00  0.00     0.199 C 
HETATM    7  O1  UNL     1      29.351  24.673  69.868  1.00  0.00    -0.647 OA
HETATM    8  O2  UNL     1      27.307  23.739  69.698  1.00  0.00    -0.647 OA
ENDBRANCH   5   6
ENDBRANCH   2   5
TORSDOF 2
ENDMDL
