MODEL 1
REMARK VINA RESULT: -4.571517019      0.000      0.000
REMARK  2 active torsions:
REMARK  status: ('A' for Active; 'I' for Inactive)
REMARK    1  A    between atoms: N1_2  and  C4_5 
REMARK    2  A    between atoms: C4_5  and  C5_6 
ROOT
HETATM    1  C1  UNL     1      27.108  21.977  73.368  1.00  0.00     0.272 C 
HETATM    2  N1  UNL     1      26.529  23.079  72.596  1.00  0.00    -0.069 N 
HETATM    3  C2  UNL     1      26.517  24.258  73.412  1.00  0.00     0.272 C 
HETATM    4  C3  UNL     1      27.303  23.303  71.395  1.00  0.00     0.272 C 
ENDROOT
BRANCH   2   5
HETATM    5  C4  UNL     1      25.209  22.640  72.194  1.00  0.00     0.348 C 
BRANCH   5   6
HETATM    6  C5  UNL     1      24.233  22.805  73.308  1.00  0.00     0.199 C 
HETATM    7  O1  UNL     1      23.261  23.599  73.211  1.00  0.00    -0.647 OA
HETATM    8  O2  UNL     1      24.345  22.100  74.497  1.00  0.00    -0.647 OA
ENDBRANCH   5   6
ENDBRANCH   2   5
TORSDOF 2
ENDMDL
