MODEL 2
REMARK VINA RESULT: -4.537671047      0.082      1.425
REMARK  2 active torsions:
REMARK  status: ('A' for Active; 'I' for Inactive)
REMARK    1  A    between atoms: N1_2  and  C4_5 
REMARK    2  A    between atoms: C4_5  and  C5_6 
ROOT
HETATM    1  C1  UNL     1      27.313  23.192  71.422  1.00  0.00     0.272 C 
HETATM    2  N1  UNL     1      26.530  23.021  72.648  1.00  0.00    -0.069 N 
HETATM    3  C2  UNL     1      27.167  22.031  73.467  1.00  0.00     0.272 C 
HETATM    4  C3  UNL     1      26.436  24.279  73.356  1.00  0.00     0.272 C 
ENDROOT
BRANCH   2   5
HETATM    5  C4  UNL     1      25.196  22.651  72.226  1.00  0.00     0.348 C 
BRANCH   5   6
HETATM    6  C5  UNL     1      24.223  22.804  73.345  1.00  0.00     0.199 C 
HETATM    7  O1  UNL     1      23.233  23.576  73.247  1.00  0.00    -0.647 OA
HETATM    8  O2  UNL     1      24.359  22.110  74.539  1.00  0.00    -0.647 OA
ENDBRANCH   5   6
ENDBRANCH   2   5
TORSDOF 2
ENDMDL
