MODEL 19
REMARK VINA RESULT: -2.450001337      4.997      5.947
REMARK  2 active torsions:
REMARK  status: ('A' for Active; 'I' for Inactive)
REMARK    1  A    between atoms: N1_2  and  C4_5 
REMARK    2  A    between atoms: C4_5  and  C5_6 
ROOT
HETATM    1  C1  UNL     1      29.766  22.131  67.782  1.00  0.00     0.272 C 
HETATM    2  N1  UNL     1      29.478  23.547  67.541  1.00  0.00    -0.069 N 
HETATM    3  C2  UNL     1      30.580  24.330  68.020  1.00  0.00     0.272 C 
HETATM    4  C3  UNL     1      29.269  23.778  66.128  1.00  0.00     0.272 C 
ENDROOT
BRANCH   2   5
HETATM    5  C4  UNL     1      28.231  23.826  68.222  1.00  0.00     0.348 C 
BRANCH   5   6
HETATM    6  C5  UNL     1      28.444  23.943  69.692  1.00  0.00     0.199 C 
HETATM    7  O1  UNL     1      29.207  24.822  70.172  1.00  0.00    -0.647 OA
HETATM    8  O2  UNL     1      27.819  23.097  70.597  1.00  0.00    -0.647 OA
ENDBRANCH   5   6
ENDBRANCH   2   5
TORSDOF 2
ENDMDL
