MODEL 13
REMARK VINA RESULT: -6.924022676      2.148      7.242
REMARK  12 active torsions:
REMARK  status: ('A' for Active; 'I' for Inactive)
REMARK    1  A    between atoms: C1_2  and  C2_4 
REMARK    2  A    between atoms: C2_4  and  O3_5 
REMARK    3  A    between atoms: C2_4  and  C3_7 
REMARK    4  A    between atoms: C2_4  and  C4_13 
REMARK    5  A    between atoms: C3_7  and  O4_8 
REMARK    6  A    between atoms: O4_8  and  P1_9 
REMARK    7  A    between atoms: C4_13  and  O8_14 
REMARK    8  A    between atoms: C4_13  and  C5_16 
REMARK    9  A    between atoms: C5_16  and  O9_17 
REMARK   10  A    between atoms: C5_16  and  C6_19 
REMARK   11  A    between atoms: C6_19  and  O10_20 
REMARK   12  A    between atoms: O10_20  and  P2_21 
ROOT
HETATM    1  C2  UNL     1      -1.439  76.463  35.505  1.00  0.00     0.196 C 
ENDROOT
BRANCH   1   2
HETATM    2  C1  UNL     1      -0.095  76.207  35.887  1.00  0.00     0.214 C 
HETATM    3  O1  UNL     1       0.875  76.990  35.754  1.00  0.00    -0.646 OA
HETATM    4  O2  UNL     1       0.223  74.947  36.490  1.00  0.00    -0.646 OA
ENDBRANCH   1   2
BRANCH   1   5
HETATM    5  O3  UNL     1      -2.251  75.321  35.726  1.00  0.00    -0.375 OA
ATOM      6  H3  UNL     1      -1.868  74.551  35.323  1.00  0.00     0.211 HD
ENDBRANCH   1   5
BRANCH   1   7
HETATM    7  C3  UNL     1      -2.224  77.604  35.995  1.00  0.00     0.234 C 
BRANCH   7   8
HETATM    8  O4  UNL     1      -2.038  77.808  37.372  1.00  0.00    -0.279 OA
BRANCH   8   9
HETATM    9  P1  UNL     1      -2.018  79.492  37.690  1.00  0.00     0.422 P 
HETATM   10  O5  UNL     1      -3.180  80.251  37.195  1.00  0.00    -0.617 OA
HETATM   11  O6  UNL     1      -1.871  79.693  39.406  1.00  0.00    -0.617 OA
HETATM   12  O7  UNL     1      -0.524  80.061  37.075  1.00  0.00    -0.617 OA
ENDBRANCH   8   9
ENDBRANCH   7   8
ENDBRANCH   1   7
BRANCH   1  13
HETATM   13  C4  UNL     1      -1.619  76.531  33.929  1.00  0.00     0.196 C 
BRANCH  13  14
HETATM   14  O8  UNL     1      -0.534  76.920  33.298  1.00  0.00    -0.389 OA
ATOM     15  H8  UNL     1      -0.265  76.322  32.610  1.00  0.00     0.210 HD
ENDBRANCH  13  14
BRANCH  13  16
HETATM   16  C5  UNL     1      -2.921  76.858  33.548  1.00  0.00     0.174 C 
BRANCH  16  17
HETATM   17  O9  UNL     1      -3.832  75.805  33.438  1.00  0.00    -0.391 OA
ATOM     18  H9  UNL     1      -3.482  74.958  33.191  1.00  0.00     0.210 HD
ENDBRANCH  16  17
BRANCH  16  19
HETATM   19  C6  UNL     1      -3.128  77.487  32.092  1.00  0.00     0.217 C 
BRANCH  19  20
HETATM   20  O10 UNL     1      -2.675  76.435  31.272  1.00  0.00    -0.280 OA
BRANCH  20  21
HETATM   21  P2  UNL     1      -3.764  76.028  30.124  1.00  0.00     0.422 P 
HETATM   22  O11 UNL     1      -4.500  74.704  30.738  1.00  0.00    -0.617 OA
HETATM   23  O12 UNL     1      -4.992  77.120  29.931  1.00  0.00    -0.617 OA
HETATM   24  O13 UNL     1      -3.131  75.396  28.669  1.00  0.00    -0.617 OA
ENDBRANCH  20  21
ENDBRANCH  19  20
ENDBRANCH  16  19
ENDBRANCH  13  16
ENDBRANCH   1  13
TORSDOF 12
ENDMDL
