MODEL 4
REMARK VINA RESULT: -7.289998673      0.246      1.475
REMARK  12 active torsions:
REMARK  status: ('A' for Active; 'I' for Inactive)
REMARK    1  A    between atoms: C1_2  and  C2_4 
REMARK    2  A    between atoms: C2_4  and  O3_5 
REMARK    3  A    between atoms: C2_4  and  C3_7 
REMARK    4  A    between atoms: C2_4  and  C4_13 
REMARK    5  A    between atoms: C3_7  and  O4_8 
REMARK    6  A    between atoms: O4_8  and  P1_9 
REMARK    7  A    between atoms: C4_13  and  O8_14 
REMARK    8  A    between atoms: C4_13  and  C5_16 
REMARK    9  A    between atoms: C5_16  and  O9_17 
REMARK   10  A    between atoms: C5_16  and  C6_19 
REMARK   11  A    between atoms: C6_19  and  O10_20 
REMARK   12  A    between atoms: O10_20  and  P2_21 
ROOT
HETATM    1  C2  UNL     1      -4.081  76.310  31.315  1.00  0.00     0.196 C 
ENDROOT
BRANCH   1   2
HETATM    2  C1  UNL     1      -5.161  76.786  32.104  1.00  0.00     0.214 C 
HETATM    3  O1  UNL     1      -5.466  77.986  32.297  1.00  0.00    -0.646 OA
HETATM    4  O2  UNL     1      -6.010  75.834  32.758  1.00  0.00    -0.646 OA
ENDBRANCH   1   2
BRANCH   1   5
HETATM    5  O3  UNL     1      -4.412  75.073  30.702  1.00  0.00    -0.375 OA
ATOM      6  H3  UNL     1      -4.099  74.344  31.225  1.00  0.00     0.211 HD
ENDBRANCH   1   5
BRANCH   1   7
HETATM    7  C3  UNL     1      -3.425  77.103  30.267  1.00  0.00     0.234 C 
BRANCH   7   8
HETATM    8  O4  UNL     1      -4.361  77.764  29.454  1.00  0.00    -0.279 OA
BRANCH   8   9
HETATM    9  P1  UNL     1      -4.115  77.294  27.824  1.00  0.00     0.422 P 
HETATM   10  O5  UNL     1      -3.104  78.065  27.080  1.00  0.00    -0.617 OA
HETATM   11  O6  UNL     1      -3.687  75.613  27.829  1.00  0.00    -0.617 OA
HETATM   12  O7  UNL     1      -5.665  77.327  27.094  1.00  0.00    -0.617 OA
ENDBRANCH   8   9
ENDBRANCH   7   8
ENDBRANCH   1   7
BRANCH   1  13
HETATM   13  C4  UNL     1      -2.873  75.777  32.196  1.00  0.00     0.196 C 
BRANCH  13  14
HETATM   14  O8  UNL     1      -3.111  74.611  32.754  1.00  0.00    -0.389 OA
ATOM     15  H8  UNL     1      -3.826  74.137  32.344  1.00  0.00     0.210 HD
ENDBRANCH  13  14
BRANCH  13  16
HETATM   16  C5  UNL     1      -2.142  76.807  32.789  1.00  0.00     0.174 C 
BRANCH  16  17
HETATM   17  O9  UNL     1      -0.759  76.799  32.588  1.00  0.00    -0.391 OA
ATOM     18  H9  UNL     1      -0.212  76.787  33.364  1.00  0.00     0.210 HD
ENDBRANCH  16  17
BRANCH  16  19
HETATM   19  C6  UNL     1      -2.135  76.883  34.387  1.00  0.00     0.217 C 
BRANCH  19  20
HETATM   20  O10 UNL     1      -1.196  75.883  34.705  1.00  0.00    -0.280 OA
BRANCH  20  21
HETATM   21  P2  UNL     1      -0.487  76.134  36.155  1.00  0.00     0.422 P 
HETATM   22  O11 UNL     1      -1.589  77.016  36.979  1.00  0.00    -0.617 OA
HETATM   23  O12 UNL     1      -0.298  74.767  37.068  1.00  0.00    -0.617 OA
HETATM   24  O13 UNL     1       0.850  77.197  36.170  1.00  0.00    -0.617 OA
ENDBRANCH  20  21
ENDBRANCH  19  20
ENDBRANCH  16  19
ENDBRANCH  13  16
ENDBRANCH   1  13
TORSDOF 12
ENDMDL
