MODEL 2
REMARK VINA RESULT: -7.326302710      0.117      1.015
REMARK  12 active torsions:
REMARK  status: ('A' for Active; 'I' for Inactive)
REMARK    1  A    between atoms: C1_2  and  C2_4 
REMARK    2  A    between atoms: C2_4  and  O3_5 
REMARK    3  A    between atoms: C2_4  and  C3_7 
REMARK    4  A    between atoms: C2_4  and  C4_13 
REMARK    5  A    between atoms: C3_7  and  O4_8 
REMARK    6  A    between atoms: O4_8  and  P1_9 
REMARK    7  A    between atoms: C4_13  and  O8_14 
REMARK    8  A    between atoms: C4_13  and  C5_16 
REMARK    9  A    between atoms: C5_16  and  O9_17 
REMARK   10  A    between atoms: C5_16  and  C6_19 
REMARK   11  A    between atoms: C6_19  and  O10_20 
REMARK   12  A    between atoms: O10_20  and  P2_21 
ROOT
HETATM    1  C2  UNL     1      -4.053  76.305  31.362  1.00  0.00     0.196 C 
ENDROOT
BRANCH   1   2
HETATM    2  C1  UNL     1      -5.134  76.794  32.143  1.00  0.00     0.214 C 
HETATM    3  O1  UNL     1      -5.415  77.998  32.348  1.00  0.00    -0.646 OA
HETATM    4  O2  UNL     1      -6.013  75.853  32.772  1.00  0.00    -0.646 OA
ENDBRANCH   1   2
BRANCH   1   5
HETATM    5  O3  UNL     1      -4.386  75.060  30.767  1.00  0.00    -0.375 OA
ATOM      6  H3  UNL     1      -3.626  74.492  30.729  1.00  0.00     0.211 HD
ENDBRANCH   1   5
BRANCH   1   7
HETATM    7  C3  UNL     1      -3.394  77.082  30.304  1.00  0.00     0.234 C 
BRANCH   7   8
HETATM    8  O4  UNL     1      -4.327  77.750  29.493  1.00  0.00    -0.279 OA
BRANCH   8   9
HETATM    9  P1  UNL     1      -4.097  77.270  27.864  1.00  0.00     0.422 P 
HETATM   10  O5  UNL     1      -3.071  78.016  27.115  1.00  0.00    -0.617 OA
HETATM   11  O6  UNL     1      -3.707  75.580  27.873  1.00  0.00    -0.617 OA
HETATM   12  O7  UNL     1      -5.648  77.336  27.139  1.00  0.00    -0.617 OA
ENDBRANCH   8   9
ENDBRANCH   7   8
ENDBRANCH   1   7
BRANCH   1  13
HETATM   13  C4  UNL     1      -2.848  75.782  32.253  1.00  0.00     0.196 C 
BRANCH  13  14
HETATM   14  O8  UNL     1      -3.081  74.616  32.811  1.00  0.00    -0.389 OA
ATOM     15  H8  UNL     1      -3.378  74.683  33.712  1.00  0.00     0.210 HD
ENDBRANCH  13  14
BRANCH  13  16
HETATM   16  C5  UNL     1      -2.128  76.819  32.848  1.00  0.00     0.174 C 
BRANCH  16  17
HETATM   17  O9  UNL     1      -0.747  76.832  32.638  1.00  0.00    -0.391 OA
ATOM     18  H9  UNL     1      -0.198  76.577  33.370  1.00  0.00     0.210 HD
ENDBRANCH  16  17
BRANCH  16  19
HETATM   19  C6  UNL     1      -2.112  76.884  34.446  1.00  0.00     0.217 C 
BRANCH  19  20
HETATM   20  O10 UNL     1      -1.215  75.844  34.755  1.00  0.00    -0.280 OA
BRANCH  20  21
HETATM   21  P2  UNL     1      -0.477  76.065  36.196  1.00  0.00     0.422 P 
HETATM   22  O11 UNL     1       0.249  74.629  36.484  1.00  0.00    -0.617 OA
HETATM   23  O12 UNL     1       0.771  77.150  36.162  1.00  0.00    -0.617 OA
HETATM   24  O13 UNL     1      -1.499  76.187  37.559  1.00  0.00    -0.617 OA
ENDBRANCH  20  21
ENDBRANCH  19  20
ENDBRANCH  16  19
ENDBRANCH  13  16
ENDBRANCH   1  13
TORSDOF 12
ENDMDL
