MODEL 9
REMARK VINA RESULT: -7.041869509      2.337      7.299
REMARK  12 active torsions:
REMARK  status: ('A' for Active; 'I' for Inactive)
REMARK    1  A    between atoms: C1_2  and  C2_4 
REMARK    2  A    between atoms: C2_4  and  O3_5 
REMARK    3  A    between atoms: C2_4  and  C3_7 
REMARK    4  A    between atoms: C2_4  and  C4_13 
REMARK    5  A    between atoms: C3_7  and  O4_8 
REMARK    6  A    between atoms: O4_8  and  P1_9 
REMARK    7  A    between atoms: C4_13  and  O8_14 
REMARK    8  A    between atoms: C4_13  and  C5_16 
REMARK    9  A    between atoms: C5_16  and  O9_17 
REMARK   10  A    between atoms: C5_16  and  C6_19 
REMARK   11  A    between atoms: C6_19  and  O10_20 
REMARK   12  A    between atoms: O10_20  and  P2_21 
ROOT
HETATM    1  C2  UNL     1       0.288  77.882  35.116  1.00  0.00     0.196 C 
ENDROOT
BRANCH   1   2
HETATM    2  C1  UNL     1       1.372  78.639  34.596  1.00  0.00     0.214 C 
HETATM    3  O1  UNL     1       1.353  79.858  34.307  1.00  0.00    -0.646 OA
HETATM    4  O2  UNL     1       2.625  77.983  34.369  1.00  0.00    -0.646 OA
ENDBRANCH   1   2
BRANCH   1   5
HETATM    5  O3  UNL     1       0.762  76.777  35.870  1.00  0.00    -0.375 OA
ATOM      6  H3  UNL     1       0.038  76.287  36.241  1.00  0.00     0.211 HD
ENDBRANCH   1   5
BRANCH   1   7
HETATM    7  C3  UNL     1      -0.803  78.460  35.911  1.00  0.00     0.234 C 
BRANCH   7   8
HETATM    8  O4  UNL     1      -0.527  78.407  37.288  1.00  0.00    -0.279 OA
BRANCH   8   9
HETATM    9  P1  UNL     1      -1.812  77.602  38.085  1.00  0.00     0.422 P 
HETATM   10  O5  UNL     1      -1.967  77.903  39.519  1.00  0.00    -0.617 OA
HETATM   11  O6  UNL     1      -3.274  77.997  37.240  1.00  0.00    -0.617 OA
HETATM   12  O7  UNL     1      -1.584  75.935  37.763  1.00  0.00    -0.617 OA
ENDBRANCH   8   9
ENDBRANCH   7   8
ENDBRANCH   1   7
BRANCH   1  13
HETATM   13  C4  UNL     1      -0.463  77.048  33.995  1.00  0.00     0.196 C 
BRANCH  13  14
HETATM   14  O8  UNL     1      -0.120  77.390  32.774  1.00  0.00    -0.389 OA
ATOM     15  H8  UNL     1       0.285  76.684  32.284  1.00  0.00     0.210 HD
ENDBRANCH  13  14
BRANCH  13  16
HETATM   16  C5  UNL     1      -1.748  76.660  34.380  1.00  0.00     0.174 C 
BRANCH  16  17
HETATM   17  O9  UNL     1      -1.901  75.350  34.841  1.00  0.00    -0.391 OA
ATOM     18  H9  UNL     1      -2.613  74.844  34.469  1.00  0.00     0.210 HD
ENDBRANCH  16  17
BRANCH  16  19
HETATM   19  C6  UNL     1      -2.881  76.635  33.251  1.00  0.00     0.217 C 
BRANCH  19  20
HETATM   20  O10 UNL     1      -2.333  75.718  32.333  1.00  0.00    -0.280 OA
BRANCH  20  21
HETATM   21  P2  UNL     1      -3.472  75.035  31.381  1.00  0.00     0.422 P 
HETATM   22  O11 UNL     1      -3.252  73.431  31.603  1.00  0.00    -0.617 OA
HETATM   23  O12 UNL     1      -5.027  75.303  31.880  1.00  0.00    -0.617 OA
HETATM   24  O13 UNL     1      -3.227  75.162  29.696  1.00  0.00    -0.617 OA
ENDBRANCH  20  21
ENDBRANCH  19  20
ENDBRANCH  16  19
ENDBRANCH  13  16
ENDBRANCH   1  13
TORSDOF 12
ENDMDL
