MODEL 1
REMARK VINA RESULT: -7.341726961      0.000      0.000
REMARK  12 active torsions:
REMARK  status: ('A' for Active; 'I' for Inactive)
REMARK    1  A    between atoms: C1_2  and  C2_4 
REMARK    2  A    between atoms: C2_4  and  O3_5 
REMARK    3  A    between atoms: C2_4  and  C3_7 
REMARK    4  A    between atoms: C2_4  and  C4_13 
REMARK    5  A    between atoms: C3_7  and  O4_8 
REMARK    6  A    between atoms: O4_8  and  P1_9 
REMARK    7  A    between atoms: C4_13  and  O8_14 
REMARK    8  A    between atoms: C4_13  and  C5_16 
REMARK    9  A    between atoms: C5_16  and  O9_17 
REMARK   10  A    between atoms: C5_16  and  C6_19 
REMARK   11  A    between atoms: C6_19  and  O10_20 
REMARK   12  A    between atoms: O10_20  and  P2_21 
ROOT
HETATM    1  C2  UNL     1      -4.070  76.251  31.326  1.00  0.00     0.196 C 
ENDROOT
BRANCH   1   2
HETATM    2  C1  UNL     1      -5.133  76.779  32.107  1.00  0.00     0.214 C 
HETATM    3  O1  UNL     1      -5.383  77.993  32.294  1.00  0.00    -0.646 OA
HETATM    4  O2  UNL     1      -6.028  75.870  32.759  1.00  0.00    -0.646 OA
ENDBRANCH   1   2
BRANCH   1   5
HETATM    5  O3  UNL     1      -4.422  74.986  30.788  1.00  0.00    -0.375 OA
ATOM      6  H3  UNL     1      -3.696  74.613  30.303  1.00  0.00     0.211 HD
ENDBRANCH   1   5
BRANCH   1   7
HETATM    7  C3  UNL     1      -3.426  76.980  30.225  1.00  0.00     0.234 C 
BRANCH   7   8
HETATM    8  O4  UNL     1      -4.354  77.741  29.494  1.00  0.00    -0.279 OA
BRANCH   8   9
HETATM    9  P1  UNL     1      -4.332  77.226  27.859  1.00  0.00     0.422 P 
HETATM   10  O5  UNL     1      -5.598  77.381  27.122  1.00  0.00    -0.617 OA
HETATM   11  O6  UNL     1      -3.072  78.107  27.057  1.00  0.00    -0.617 OA
HETATM   12  O7  UNL     1      -3.758  75.612  27.890  1.00  0.00    -0.617 OA
ENDBRANCH   8   9
ENDBRANCH   7   8
ENDBRANCH   1   7
BRANCH   1  13
HETATM   13  C4  UNL     1      -2.851  75.756  32.214  1.00  0.00     0.196 C 
BRANCH  13  14
HETATM   14  O8  UNL     1      -3.078  74.609  32.815  1.00  0.00    -0.389 OA
ATOM     15  H8  UNL     1      -2.456  73.931  32.578  1.00  0.00     0.210 HD
ENDBRANCH  13  14
BRANCH  13  16
HETATM   16  C5  UNL     1      -2.120  76.810  32.763  1.00  0.00     0.174 C 
BRANCH  16  17
HETATM   17  O9  UNL     1      -0.740  76.803  32.547  1.00  0.00    -0.391 OA
ATOM     18  H9  UNL     1      -0.440  77.027  31.674  1.00  0.00     0.210 HD
ENDBRANCH  16  17
BRANCH  16  19
HETATM   19  C6  UNL     1      -2.096  76.941  34.357  1.00  0.00     0.217 C 
BRANCH  19  20
HETATM   20  O10 UNL     1      -1.209  75.904  34.705  1.00  0.00    -0.280 OA
BRANCH  20  21
HETATM   21  P2  UNL     1      -0.458  76.179  36.129  1.00  0.00     0.422 P 
HETATM   22  O11 UNL     1       0.181  74.726  36.518  1.00  0.00    -0.617 OA
HETATM   23  O12 UNL     1       0.852  77.184  36.026  1.00  0.00    -0.617 OA
HETATM   24  O13 UNL     1      -1.470  76.455  37.478  1.00  0.00    -0.617 OA
ENDBRANCH  20  21
ENDBRANCH  19  20
ENDBRANCH  16  19
ENDBRANCH  13  16
ENDBRANCH   1  13
TORSDOF 12
ENDMDL
