MODEL 3
REMARK VINA RESULT: -7.295409010      0.233      1.081
REMARK  12 active torsions:
REMARK  status: ('A' for Active; 'I' for Inactive)
REMARK    1  A    between atoms: C1_2  and  C2_4 
REMARK    2  A    between atoms: C2_4  and  O3_5 
REMARK    3  A    between atoms: C2_4  and  C3_7 
REMARK    4  A    between atoms: C2_4  and  C4_13 
REMARK    5  A    between atoms: C3_7  and  O4_8 
REMARK    6  A    between atoms: O4_8  and  P1_9 
REMARK    7  A    between atoms: C4_13  and  O8_14 
REMARK    8  A    between atoms: C4_13  and  C5_16 
REMARK    9  A    between atoms: C5_16  and  O9_17 
REMARK   10  A    between atoms: C5_16  and  C6_19 
REMARK   11  A    between atoms: C6_19  and  O10_20 
REMARK   12  A    between atoms: O10_20  and  P2_21 
ROOT
HETATM    1  C2  UNL     1      -4.088  76.258  31.308  1.00  0.00     0.196 C 
ENDROOT
BRANCH   1   2
HETATM    2  C1  UNL     1      -5.155  76.777  32.088  1.00  0.00     0.214 C 
HETATM    3  O1  UNL     1      -5.433  77.989  32.252  1.00  0.00    -0.646 OA
HETATM    4  O2  UNL     1      -6.022  75.861  32.768  1.00  0.00    -0.646 OA
ENDBRANCH   1   2
BRANCH   1   5
HETATM    5  O3  UNL     1      -4.438  75.000  30.751  1.00  0.00    -0.375 OA
ATOM      6  H3  UNL     1      -4.458  74.329  31.422  1.00  0.00     0.211 HD
ENDBRANCH   1   5
BRANCH   1   7
HETATM    7  C3  UNL     1      -3.436  77.000  30.221  1.00  0.00     0.234 C 
BRANCH   7   8
HETATM    8  O4  UNL     1      -4.361  77.755  29.480  1.00  0.00    -0.279 OA
BRANCH   8   9
HETATM    9  P1  UNL     1      -4.334  77.227  27.850  1.00  0.00     0.422 P 
HETATM   10  O5  UNL     1      -5.599  77.371  27.109  1.00  0.00    -0.617 OA
HETATM   11  O6  UNL     1      -3.076  78.106  27.042  1.00  0.00    -0.617 OA
HETATM   12  O7  UNL     1      -3.753  75.616  27.895  1.00  0.00    -0.617 OA
ENDBRANCH   8   9
ENDBRANCH   7   8
ENDBRANCH   1   7
BRANCH   1  13
HETATM   13  C4  UNL     1      -2.876  75.750  32.198  1.00  0.00     0.196 C 
BRANCH  13  14
HETATM   14  O8  UNL     1      -3.100  74.586  32.766  1.00  0.00    -0.389 OA
ATOM     15  H8  UNL     1      -2.397  73.960  32.631  1.00  0.00     0.210 HD
ENDBRANCH  13  14
BRANCH  13  16
HETATM   16  C5  UNL     1      -2.160  76.795  32.783  1.00  0.00     0.174 C 
BRANCH  16  17
HETATM   17  O9  UNL     1      -0.779  76.811  32.575  1.00  0.00    -0.391 OA
ATOM     18  H9  UNL     1      -0.435  77.501  32.020  1.00  0.00     0.210 HD
ENDBRANCH  16  17
BRANCH  16  19
HETATM   19  C6  UNL     1      -2.147  76.878  34.380  1.00  0.00     0.217 C 
BRANCH  19  20
HETATM   20  O10 UNL     1      -1.222  75.866  34.700  1.00  0.00    -0.280 OA
BRANCH  20  21
HETATM   21  P2  UNL     1      -0.485  76.127  36.135  1.00  0.00     0.422 P 
HETATM   22  O11 UNL     1      -1.569  77.021  36.971  1.00  0.00    -0.617 OA
HETATM   23  O12 UNL     1      -0.286  74.768  37.056  1.00  0.00    -0.617 OA
HETATM   24  O13 UNL     1       0.856  77.185  36.117  1.00  0.00    -0.617 OA
ENDBRANCH  20  21
ENDBRANCH  19  20
ENDBRANCH  16  19
ENDBRANCH  13  16
ENDBRANCH   1  13
TORSDOF 12
ENDMDL
