MODEL 5
REMARK VINA RESULT: -7.272916041      0.123      1.003
REMARK  12 active torsions:
REMARK  status: ('A' for Active; 'I' for Inactive)
REMARK    1  A    between atoms: C1_2  and  C2_4 
REMARK    2  A    between atoms: C2_4  and  O3_5 
REMARK    3  A    between atoms: C2_4  and  C3_7 
REMARK    4  A    between atoms: C2_4  and  C4_13 
REMARK    5  A    between atoms: C3_7  and  O4_8 
REMARK    6  A    between atoms: O4_8  and  P1_9 
REMARK    7  A    between atoms: C4_13  and  O8_14 
REMARK    8  A    between atoms: C4_13  and  C5_16 
REMARK    9  A    between atoms: C5_16  and  O9_17 
REMARK   10  A    between atoms: C5_16  and  C6_19 
REMARK   11  A    between atoms: C6_19  and  O10_20 
REMARK   12  A    between atoms: O10_20  and  P2_21 
ROOT
HETATM    1  C2  UNL     1      -4.039  76.309  31.392  1.00  0.00     0.196 C 
ENDROOT
BRANCH   1   2
HETATM    2  C1  UNL     1      -5.129  76.807  32.155  1.00  0.00     0.214 C 
HETATM    3  O1  UNL     1      -5.390  78.013  32.375  1.00  0.00    -0.646 OA
HETATM    4  O2  UNL     1      -6.043  75.873  32.744  1.00  0.00    -0.646 OA
ENDBRANCH   1   2
BRANCH   1   5
HETATM    5  O3  UNL     1      -4.365  75.058  30.806  1.00  0.00    -0.375 OA
ATOM      6  H3  UNL     1      -4.338  75.113  29.858  1.00  0.00     0.211 HD
ENDBRANCH   1   5
BRANCH   1   7
HETATM    7  C3  UNL     1      -3.366  77.074  30.334  1.00  0.00     0.234 C 
BRANCH   7   8
HETATM    8  O4  UNL     1      -4.289  77.740  29.509  1.00  0.00    -0.279 OA
BRANCH   8   9
HETATM    9  P1  UNL     1      -4.198  77.084  27.929  1.00  0.00     0.422 P 
HETATM   10  O5  UNL     1      -3.911  75.642  27.848  1.00  0.00    -0.617 OA
HETATM   11  O6  UNL     1      -5.704  77.429  27.139  1.00  0.00    -0.617 OA
HETATM   12  O7  UNL     1      -3.058  78.051  27.091  1.00  0.00    -0.617 OA
ENDBRANCH   8   9
ENDBRANCH   7   8
ENDBRANCH   1   7
BRANCH   1  13
HETATM   13  C4  UNL     1      -2.845  75.794  32.303  1.00  0.00     0.196 C 
BRANCH  13  14
HETATM   14  O8  UNL     1      -3.106  74.659  32.910  1.00  0.00    -0.389 OA
ATOM     15  H8  UNL     1      -2.499  73.964  32.685  1.00  0.00     0.210 HD
ENDBRANCH  13  14
BRANCH  13  16
HETATM   16  C5  UNL     1      -2.099  76.837  32.854  1.00  0.00     0.174 C 
BRANCH  16  17
HETATM   17  O9  UNL     1      -0.721  76.821  32.622  1.00  0.00    -0.391 OA
ATOM     18  H9  UNL     1      -0.199  77.466  33.085  1.00  0.00     0.210 HD
ENDBRANCH  16  17
BRANCH  16  19
HETATM   19  C6  UNL     1      -2.056  76.952  34.449  1.00  0.00     0.217 C 
BRANCH  19  20
HETATM   20  O10 UNL     1      -1.215  75.872  34.779  1.00  0.00    -0.280 OA
BRANCH  20  21
HETATM   21  P2  UNL     1      -0.458  76.087  36.211  1.00  0.00     0.422 P 
HETATM   22  O11 UNL     1       0.259  74.646  36.492  1.00  0.00    -0.617 OA
HETATM   23  O12 UNL     1       0.798  77.162  36.162  1.00  0.00    -0.617 OA
HETATM   24  O13 UNL     1      -1.463  76.219  37.586  1.00  0.00    -0.617 OA
ENDBRANCH  20  21
ENDBRANCH  19  20
ENDBRANCH  16  19
ENDBRANCH  13  16
ENDBRANCH   1  13
TORSDOF 12
ENDMDL
