MODEL 14
REMARK VINA RESULT: -6.886883944      2.116      7.308
REMARK  12 active torsions:
REMARK  status: ('A' for Active; 'I' for Inactive)
REMARK    1  A    between atoms: C1_2  and  C2_4 
REMARK    2  A    between atoms: C2_4  and  O3_5 
REMARK    3  A    between atoms: C2_4  and  C3_7 
REMARK    4  A    between atoms: C2_4  and  C4_13 
REMARK    5  A    between atoms: C3_7  and  O4_8 
REMARK    6  A    between atoms: O4_8  and  P1_9 
REMARK    7  A    between atoms: C4_13  and  O8_14 
REMARK    8  A    between atoms: C4_13  and  C5_16 
REMARK    9  A    between atoms: C5_16  and  O9_17 
REMARK   10  A    between atoms: C5_16  and  C6_19 
REMARK   11  A    between atoms: C6_19  and  O10_20 
REMARK   12  A    between atoms: O10_20  and  P2_21 
ROOT
HETATM    1  C2  UNL     1      -1.597  76.189  35.804  1.00  0.00     0.196 C 
ENDROOT
BRANCH   1   2
HETATM    2  C1  UNL     1      -0.229  76.014  36.142  1.00  0.00     0.214 C 
HETATM    3  O1  UNL     1       0.656  76.902  36.134  1.00  0.00    -0.646 OA
HETATM    4  O2  UNL     1       0.224  74.713  36.538  1.00  0.00    -0.646 OA
ENDBRANCH   1   2
BRANCH   1   5
HETATM    5  O3  UNL     1      -2.067  75.097  35.028  1.00  0.00    -0.375 OA
ATOM      6  H3  UNL     1      -2.149  74.316  35.562  1.00  0.00     0.211 HD
ENDBRANCH   1   5
BRANCH   1   7
HETATM    7  C3  UNL     1      -2.654  76.454  36.789  1.00  0.00     0.234 C 
BRANCH   7   8
HETATM    8  O4  UNL     1      -2.126  76.651  38.076  1.00  0.00    -0.279 OA
BRANCH   8   9
HETATM    9  P1  UNL     1      -2.395  78.276  38.547  1.00  0.00     0.422 P 
HETATM   10  O5  UNL     1      -2.381  78.534  39.998  1.00  0.00    -0.617 OA
HETATM   11  O6  UNL     1      -1.191  79.249  37.765  1.00  0.00    -0.617 OA
HETATM   12  O7  UNL     1      -3.861  78.740  37.791  1.00  0.00    -0.617 OA
ENDBRANCH   8   9
ENDBRANCH   7   8
ENDBRANCH   1   7
BRANCH   1  13
HETATM   13  C4  UNL     1      -1.812  77.317  34.707  1.00  0.00     0.196 C 
BRANCH  13  14
HETATM   14  O8  UNL     1      -2.909  78.016  34.889  1.00  0.00    -0.389 OA
ATOM     15  H8  UNL     1      -3.529  77.598  35.475  1.00  0.00     0.210 HD
ENDBRANCH  13  14
BRANCH  13  16
HETATM   16  C5  UNL     1      -1.291  76.964  33.461  1.00  0.00     0.174 C 
BRANCH  16  17
HETATM   17  O9  UNL     1      -0.051  77.508  33.117  1.00  0.00    -0.391 OA
ATOM     18  H9  UNL     1       0.211  77.440  32.207  1.00  0.00     0.210 HD
ENDBRANCH  16  17
BRANCH  16  19
HETATM   19  C6  UNL     1      -2.106  77.424  32.164  1.00  0.00     0.217 C 
BRANCH  19  20
HETATM   20  O10 UNL     1      -3.183  76.517  32.180  1.00  0.00    -0.280 OA
BRANCH  20  21
HETATM   21  P2  UNL     1      -3.932  76.415  30.732  1.00  0.00     0.422 P 
HETATM   22  O11 UNL     1      -4.297  74.828  30.594  1.00  0.00    -0.617 OA
HETATM   23  O12 UNL     1      -5.401  77.175  30.670  1.00  0.00    -0.617 OA
HETATM   24  O13 UNL     1      -2.949  76.639  29.353  1.00  0.00    -0.617 OA
ENDBRANCH  20  21
ENDBRANCH  19  20
ENDBRANCH  16  19
ENDBRANCH  13  16
ENDBRANCH   1  13
TORSDOF 12
ENDMDL
