MODEL 3
REMARK VINA RESULT: -9.226931280      1.550      2.089
REMARK  6 active torsions:
REMARK  status: ('A' for Active; 'I' for Inactive)
REMARK    1  A    between atoms: C3_3  and  C4_4 
REMARK    2  A    between atoms: C5_5  and  C6_6 
REMARK    3  A    between atoms: C8_8  and  C9_9 
REMARK    4  A    between atoms: C10_10  and  C11_11 
REMARK    5  A    between atoms: C13_13  and  C14_14 
REMARK    6  A    between atoms: C14_14  and  O1_15 
ROOT
HETATM    1  C4  UNL     1      31.223  19.107  48.058  1.00  0.00     0.009 C 
HETATM    2  C5  UNL     1      32.386  19.374  48.577  1.00  0.00     0.007 C 
ENDROOT
BRANCH   2   3
HETATM    3  C6  UNL     1      32.724  19.076  49.997  1.00  0.00    -0.062 C 
HETATM    4  C7  UNL     1      31.747  18.768  51.037  1.00  0.00     0.048 C 
HETATM    5  C8  UNL     1      34.005  19.088  50.360  1.00  0.00     0.007 C 
BRANCH   5   6
HETATM    6  C9  UNL     1      34.421  18.806  51.741  1.00  0.00     0.001 C 
HETATM    7  C10 UNL     1      35.674  18.501  51.996  1.00  0.00     0.006 C 
BRANCH   7   8
HETATM    8  C11 UNL     1      36.108  18.221  53.339  1.00  0.00    -0.064 C 
HETATM    9  C12 UNL     1      35.315  18.649  54.487  1.00  0.00     0.048 C 
HETATM   10  C13 UNL     1      37.243  17.575  53.505  1.00  0.00     0.005 C 
BRANCH  10  11
HETATM   11  C14 UNL     1      37.825  17.211  54.795  1.00  0.00     0.192 C 
BRANCH  11  12
HETATM   12  O1  UNL     1      37.598  15.820  54.949  1.00  0.00    -0.397 OA
ATOM     13  H1  UNL     1      37.077  15.554  54.200  1.00  0.00     0.209 HD
ENDBRANCH  11  12
ENDBRANCH  10  11
ENDBRANCH   7   8
ENDBRANCH   5   6
ENDBRANCH   2   3
BRANCH   1  14
HETATM   14  C3  UNL     1      30.851  19.381  46.677  1.00  0.00    -0.048 C 
HETATM   15  C2  UNL     1      31.289  18.524  45.762  1.00  0.00    -0.077 C 
HETATM   16  C1  UNL     1      32.111  17.364  46.204  1.00  0.00     0.044 C 
HETATM   17  C20 UNL     1      31.006  18.668  44.342  1.00  0.00     0.034 C 
HETATM   18  C19 UNL     1      30.649  20.081  43.945  1.00  0.00     0.005 C 
HETATM   19  C18 UNL     1      29.664  20.684  44.881  1.00  0.00     0.014 C 
HETATM   20  C15 UNL     1      30.033  20.551  46.351  1.00  0.00    -0.020 C 
HETATM   21  C16 UNL     1      30.758  21.799  46.810  1.00  0.00     0.020 C 
HETATM   22  C17 UNL     1      28.718  20.454  47.090  1.00  0.00     0.020 C 
ENDBRANCH   1  14
TORSDOF 6
ENDMDL
