MODEL 16
REMARK VINA RESULT: -7.033006505      2.670      4.942
REMARK  6 active torsions:
REMARK  status: ('A' for Active; 'I' for Inactive)
REMARK    1  A    between atoms: C3_3  and  C4_4 
REMARK    2  A    between atoms: C5_5  and  C6_6 
REMARK    3  A    between atoms: C8_8  and  C9_9 
REMARK    4  A    between atoms: C10_10  and  C11_11 
REMARK    5  A    between atoms: C13_13  and  C14_14 
REMARK    6  A    between atoms: C14_14  and  O1_15 
ROOT
HETATM    1  C4  UNL     1      32.883  18.547  50.194  1.00  0.00     0.009 C 
HETATM    2  C5  UNL     1      33.422  19.373  51.042  1.00  0.00     0.007 C 
ENDROOT
BRANCH   2   3
HETATM    3  C6  UNL     1      34.697  19.080  51.755  1.00  0.00    -0.062 C 
HETATM    4  C7  UNL     1      35.998  18.939  51.108  1.00  0.00     0.048 C 
HETATM    5  C8  UNL     1      34.664  18.934  53.078  1.00  0.00     0.007 C 
BRANCH   5   6
HETATM    6  C9  UNL     1      35.877  18.642  53.855  1.00  0.00     0.001 C 
HETATM    7  C10 UNL     1      36.212  17.395  54.098  1.00  0.00     0.006 C 
BRANCH   7   8
HETATM    8  C11 UNL     1      37.395  17.081  54.856  1.00  0.00    -0.064 C 
HETATM    9  C12 UNL     1      38.536  17.992  54.874  1.00  0.00     0.048 C 
HETATM   10  C13 UNL     1      37.424  15.948  55.525  1.00  0.00     0.005 C 
BRANCH  10  11
HETATM   11  C14 UNL     1      38.542  15.481  56.341  1.00  0.00     0.192 C 
BRANCH  11  12
HETATM   12  O1  UNL     1      38.075  14.329  57.025  1.00  0.00    -0.397 OA
ATOM     13  H1  UNL     1      38.207  13.599  56.431  1.00  0.00     0.209 HD
ENDBRANCH  11  12
ENDBRANCH  10  11
ENDBRANCH   7   8
ENDBRANCH   5   6
ENDBRANCH   2   3
BRANCH   1  14
HETATM   14  C3  UNL     1      31.640  18.793  49.476  1.00  0.00    -0.048 C 
HETATM   15  C2  UNL     1      30.525  18.782  50.197  1.00  0.00    -0.077 C 
HETATM   16  C1  UNL     1      30.621  18.525  51.660  1.00  0.00     0.044 C 
HETATM   17  C20 UNL     1      29.207  19.005  49.621  1.00  0.00     0.034 C 
HETATM   18  C19 UNL     1      29.151  18.732  48.136  1.00  0.00     0.005 C 
HETATM   19  C18 UNL     1      30.299  19.346  47.419  1.00  0.00     0.014 C 
HETATM   20  C15 UNL     1      31.658  19.040  48.032  1.00  0.00    -0.020 C 
HETATM   21  C16 UNL     1      32.272  17.842  47.339  1.00  0.00     0.020 C 
HETATM   22  C17 UNL     1      32.511  20.255  47.751  1.00  0.00     0.020 C 
ENDBRANCH   1  14
TORSDOF 6
ENDMDL
