MODEL 5
REMARK VINA RESULT: -8.928468585      1.078      1.358
REMARK  6 active torsions:
REMARK  status: ('A' for Active; 'I' for Inactive)
REMARK    1  A    between atoms: C3_3  and  C4_4 
REMARK    2  A    between atoms: C5_5  and  C6_6 
REMARK    3  A    between atoms: C8_8  and  C9_9 
REMARK    4  A    between atoms: C10_10  and  C11_11 
REMARK    5  A    between atoms: C13_13  and  C14_14 
REMARK    6  A    between atoms: C14_14  and  O1_15 
ROOT
HETATM    1  C4  UNL     1      30.573  20.295  46.894  1.00  0.00     0.009 C 
HETATM    2  C5  UNL     1      29.819  19.601  47.695  1.00  0.00     0.007 C 
ENDROOT
BRANCH   2   3
HETATM    3  C6  UNL     1      30.215  19.272  49.093  1.00  0.00    -0.062 C 
HETATM    4  C7  UNL     1      29.380  18.544  50.044  1.00  0.00     0.048 C 
HETATM    5  C8  UNL     1      31.414  19.663  49.521  1.00  0.00     0.007 C 
BRANCH   5   6
HETATM    6  C9  UNL     1      31.879  19.378  50.887  1.00  0.00     0.001 C 
HETATM    7  C10 UNL     1      33.112  19.676  51.231  1.00  0.00     0.006 C 
BRANCH   7   8
HETATM    8  C11 UNL     1      33.593  19.408  52.561  1.00  0.00    -0.064 C 
HETATM    9  C12 UNL     1      32.689  18.926  53.601  1.00  0.00     0.048 C 
HETATM   10  C13 UNL     1      34.867  19.618  52.815  1.00  0.00     0.005 C 
BRANCH  10  11
HETATM   11  C14 UNL     1      35.515  19.397  54.106  1.00  0.00     0.192 C 
BRANCH  11  12
HETATM   12  O1  UNL     1      36.484  18.384  53.891  1.00  0.00    -0.397 OA
ATOM     13  H1  UNL     1      36.012  17.559  53.917  1.00  0.00     0.209 HD
ENDBRANCH  11  12
ENDBRANCH  10  11
ENDBRANCH   7   8
ENDBRANCH   5   6
ENDBRANCH   2   3
BRANCH   1  14
HETATM   14  C3  UNL     1      30.226  20.639  45.523  1.00  0.00    -0.048 C 
HETATM   15  C2  UNL     1      30.492  19.727  44.595  1.00  0.00    -0.077 C 
HETATM   16  C1  UNL     1      31.114  18.441  45.014  1.00  0.00     0.044 C 
HETATM   17  C20 UNL     1      30.209  19.927  43.182  1.00  0.00     0.034 C 
HETATM   18  C19 UNL     1      30.089  21.383  42.798  1.00  0.00     0.005 C 
HETATM   19  C18 UNL     1      29.240  22.138  43.758  1.00  0.00     0.014 C 
HETATM   20  C15 UNL     1      29.611  21.933  45.219  1.00  0.00    -0.020 C 
HETATM   21  C16 UNL     1      30.547  23.036  45.667  1.00  0.00     0.020 C 
HETATM   22  C17 UNL     1      28.315  22.055  45.986  1.00  0.00     0.020 C 
ENDBRANCH   1  14
TORSDOF 6
ENDMDL
