MODEL 15
REMARK VINA RESULT: -7.336871903      3.151      8.770
REMARK  6 active torsions:
REMARK  status: ('A' for Active; 'I' for Inactive)
REMARK    1  A    between atoms: C3_3  and  C4_4 
REMARK    2  A    between atoms: C5_5  and  C6_6 
REMARK    3  A    between atoms: C8_8  and  C9_9 
REMARK    4  A    between atoms: C10_10  and  C11_11 
REMARK    5  A    between atoms: C13_13  and  C14_14 
REMARK    6  A    between atoms: C14_14  and  O1_15 
ROOT
HETATM    1  C4  UNL     1      33.698  18.917  50.960  1.00  0.00     0.009 C 
HETATM    2  C5  UNL     1      32.666  18.248  50.536  1.00  0.00     0.007 C 
ENDROOT
BRANCH   2   3
HETATM    3  C6  UNL     1      31.932  18.603  49.288  1.00  0.00    -0.062 C 
HETATM    4  C7  UNL     1      30.483  18.532  49.127  1.00  0.00     0.048 C 
HETATM    5  C8  UNL     1      32.635  19.016  48.235  1.00  0.00     0.007 C 
BRANCH   5   6
HETATM    6  C9  UNL     1      31.987  19.384  46.968  1.00  0.00     0.001 C 
HETATM    7  C10 UNL     1      32.029  18.555  45.950  1.00  0.00     0.006 C 
BRANCH   7   8
HETATM    8  C11 UNL     1      31.403  18.889  44.697  1.00  0.00    -0.064 C 
HETATM    9  C12 UNL     1      31.939  18.389  43.435  1.00  0.00     0.048 C 
HETATM   10  C13 UNL     1      30.339  19.663  44.721  1.00  0.00     0.005 C 
BRANCH  10  11
HETATM   11  C14 UNL     1      29.586  20.095  43.546  1.00  0.00     0.192 C 
BRANCH  11  12
HETATM   12  O1  UNL     1      30.105  21.366  43.192  1.00  0.00    -0.397 OA
ATOM     13  H1  UNL     1      29.891  21.492  42.274  1.00  0.00     0.209 HD
ENDBRANCH  11  12
ENDBRANCH  10  11
ENDBRANCH   7   8
ENDBRANCH   5   6
ENDBRANCH   2   3
BRANCH   1  14
HETATM   14  C3  UNL     1      34.442  18.605  52.173  1.00  0.00    -0.048 C 
HETATM   15  C2  UNL     1      33.803  18.778  53.324  1.00  0.00    -0.077 C 
HETATM   16  C1  UNL     1      32.398  19.268  53.296  1.00  0.00     0.044 C 
HETATM   17  C20 UNL     1      34.416  18.516  54.617  1.00  0.00     0.034 C 
HETATM   18  C19 UNL     1      35.926  18.544  54.578  1.00  0.00     0.005 C 
HETATM   19  C18 UNL     1      36.462  17.776  53.424  1.00  0.00     0.014 C 
HETATM   20  C15 UNL     1      35.823  18.124  52.088  1.00  0.00    -0.020 C 
HETATM   21  C16 UNL     1      36.661  19.167  51.378  1.00  0.00     0.020 C 
HETATM   22  C17 UNL     1      35.850  16.847  51.281  1.00  0.00     0.020 C 
ENDBRANCH   1  14
TORSDOF 6
ENDMDL
