MODEL 9
REMARK VINA RESULT: -8.392739662      1.180      1.557
REMARK  6 active torsions:
REMARK  status: ('A' for Active; 'I' for Inactive)
REMARK    1  A    between atoms: C3_3  and  C4_4 
REMARK    2  A    between atoms: C5_5  and  C6_6 
REMARK    3  A    between atoms: C8_8  and  C9_9 
REMARK    4  A    between atoms: C10_10  and  C11_11 
REMARK    5  A    between atoms: C13_13  and  C14_14 
REMARK    6  A    between atoms: C14_14  and  O1_15 
ROOT
HETATM    1  C4  UNL     1      31.201  20.006  46.528  1.00  0.00     0.009 C 
HETATM    2  C5  UNL     1      30.822  19.873  47.766  1.00  0.00     0.007 C 
ENDROOT
BRANCH   2   3
HETATM    3  C6  UNL     1      31.672  19.228  48.805  1.00  0.00    -0.062 C 
HETATM    4  C7  UNL     1      32.581  18.112  48.560  1.00  0.00     0.048 C 
HETATM    5  C8  UNL     1      31.610  19.691  50.052  1.00  0.00     0.007 C 
BRANCH   5   6
HETATM    6  C9  UNL     1      32.417  19.108  51.134  1.00  0.00     0.001 C 
HETATM    7  C10 UNL     1      33.575  19.645  51.446  1.00  0.00     0.006 C 
BRANCH   7   8
HETATM    8  C11 UNL     1      34.385  19.095  52.502  1.00  0.00    -0.064 C 
HETATM    9  C12 UNL     1      33.793  18.733  53.786  1.00  0.00     0.048 C 
HETATM   10  C13 UNL     1      35.672  18.936  52.281  1.00  0.00     0.005 C 
BRANCH  10  11
HETATM   11  C14 UNL     1      36.630  18.393  53.241  1.00  0.00     0.192 C 
BRANCH  11  12
HETATM   12  O1  UNL     1      36.753  17.014  52.936  1.00  0.00    -0.397 OA
ATOM     13  H1  UNL     1      36.476  16.919  52.032  1.00  0.00     0.209 HD
ENDBRANCH  11  12
ENDBRANCH  10  11
ENDBRANCH   7   8
ENDBRANCH   5   6
ENDBRANCH   2   3
BRANCH   1  14
HETATM   14  C3  UNL     1      30.402  20.629  45.482  1.00  0.00    -0.048 C 
HETATM   15  C2  UNL     1      30.289  19.959  44.341  1.00  0.00    -0.077 C 
HETATM   16  C1  UNL     1      30.970  18.642  44.215  1.00  0.00     0.044 C 
HETATM   17  C20 UNL     1      29.530  20.454  43.203  1.00  0.00     0.034 C 
HETATM   18  C19 UNL     1      29.336  21.953  43.222  1.00  0.00     0.005 C 
HETATM   19  C18 UNL     1      28.912  22.436  44.562  1.00  0.00     0.014 C 
HETATM   20  C15 UNL     1      29.769  21.929  45.712  1.00  0.00    -0.020 C 
HETATM   21  C16 UNL     1      30.843  22.947  46.035  1.00  0.00     0.020 C 
HETATM   22  C17 UNL     1      28.834  21.819  46.894  1.00  0.00     0.020 C 
ENDBRANCH   1  14
TORSDOF 6
ENDMDL
