MODEL 14
REMARK VINA RESULT: -7.363397596      3.174      8.796
REMARK  6 active torsions:
REMARK  status: ('A' for Active; 'I' for Inactive)
REMARK    1  A    between atoms: C3_3  and  C4_4 
REMARK    2  A    between atoms: C5_5  and  C6_6 
REMARK    3  A    between atoms: C8_8  and  C9_9 
REMARK    4  A    between atoms: C10_10  and  C11_11 
REMARK    5  A    between atoms: C13_13  and  C14_14 
REMARK    6  A    between atoms: C14_14  and  O1_15 
ROOT
HETATM    1  C4  UNL     1      33.868  19.041  50.760  1.00  0.00     0.009 C 
HETATM    2  C5  UNL     1      32.788  18.504  50.272  1.00  0.00     0.007 C 
ENDROOT
BRANCH   2   3
HETATM    3  C6  UNL     1      32.216  18.898  48.955  1.00  0.00    -0.062 C 
HETATM    4  C7  UNL     1      32.263  18.076  47.748  1.00  0.00     0.048 C 
HETATM    5  C8  UNL     1      31.614  20.081  48.853  1.00  0.00     0.007 C 
BRANCH   5   6
HETATM    6  C9  UNL     1      31.025  20.544  47.588  1.00  0.00     0.001 C 
HETATM    7  C10 UNL     1      31.165  21.799  47.224  1.00  0.00     0.006 C 
BRANCH   7   8
HETATM    8  C11 UNL     1      30.599  22.279  45.990  1.00  0.00    -0.064 C 
HETATM    9  C12 UNL     1      30.803  23.658  45.560  1.00  0.00     0.048 C 
HETATM   10  C13 UNL     1      29.886  21.442  45.266  1.00  0.00     0.005 C 
BRANCH  10  11
HETATM   11  C14 UNL     1      29.246  21.766  43.993  1.00  0.00     0.192 C 
BRANCH  11  12
HETATM   12  O1  UNL     1      30.072  21.209  42.985  1.00  0.00    -0.397 OA
ATOM     13  H1  UNL     1      29.862  21.676  42.184  1.00  0.00     0.209 HD
ENDBRANCH  11  12
ENDBRANCH  10  11
ENDBRANCH   7   8
ENDBRANCH   5   6
ENDBRANCH   2   3
BRANCH   1  14
HETATM   14  C3  UNL     1      34.461  18.687  52.042  1.00  0.00    -0.048 C 
HETATM   15  C2  UNL     1      33.705  18.871  53.118  1.00  0.00    -0.077 C 
HETATM   16  C1  UNL     1      32.330  19.414  52.942  1.00  0.00     0.044 C 
HETATM   17  C20 UNL     1      34.159  18.570  54.467  1.00  0.00     0.034 C 
HETATM   18  C19 UNL     1      35.665  18.539  54.596  1.00  0.00     0.005 C 
HETATM   19  C18 UNL     1      36.297  17.765  53.496  1.00  0.00     0.014 C 
HETATM   20  C15 UNL     1      35.824  18.154  52.103  1.00  0.00    -0.020 C 
HETATM   21  C16 UNL     1      36.774  19.171  51.508  1.00  0.00     0.020 C 
HETATM   22  C17 UNL     1      35.894  16.886  51.284  1.00  0.00     0.020 C 
ENDBRANCH   1  14
TORSDOF 6
ENDMDL
