MODEL 1
REMARK VINA RESULT: -9.825534535      0.000      0.000
REMARK  6 active torsions:
REMARK  status: ('A' for Active; 'I' for Inactive)
REMARK    1  A    between atoms: C3_3  and  C4_4 
REMARK    2  A    between atoms: C5_5  and  C6_6 
REMARK    3  A    between atoms: C8_8  and  C9_9 
REMARK    4  A    between atoms: C10_10  and  C11_11 
REMARK    5  A    between atoms: C13_13  and  C14_14 
REMARK    6  A    between atoms: C14_14  and  O1_15 
ROOT
HETATM    1  C4  UNL     1      31.123  20.010  46.918  1.00  0.00     0.009 C 
HETATM    2  C5  UNL     1      30.545  19.258  47.809  1.00  0.00     0.007 C 
ENDROOT
BRANCH   2   3
HETATM    3  C6  UNL     1      31.147  18.980  49.143  1.00  0.00    -0.062 C 
HETATM    4  C7  UNL     1      30.385  18.705  50.358  1.00  0.00     0.048 C 
HETATM    5  C8  UNL     1      32.474  18.979  49.253  1.00  0.00     0.007 C 
BRANCH   5   6
HETATM    6  C9  UNL     1      33.145  18.715  50.534  1.00  0.00     0.001 C 
HETATM    7  C10 UNL     1      34.392  19.092  50.706  1.00  0.00     0.006 C 
BRANCH   7   8
HETATM    8  C11 UNL     1      35.074  18.846  51.951  1.00  0.00    -0.064 C 
HETATM    9  C12 UNL     1      36.381  18.198  51.972  1.00  0.00     0.048 C 
HETATM   10  C13 UNL     1      34.482  19.214  53.067  1.00  0.00     0.005 C 
BRANCH  10  11
HETATM   11  C14 UNL     1      35.034  19.041  54.409  1.00  0.00     0.192 C 
BRANCH  11  12
HETATM   12  O1  UNL     1      34.147  18.166  55.088  1.00  0.00    -0.397 OA
ATOM     13  H1  UNL     1      33.999  17.434  54.500  1.00  0.00     0.209 HD
ENDBRANCH  11  12
ENDBRANCH  10  11
ENDBRANCH   7   8
ENDBRANCH   5   6
ENDBRANCH   2   3
BRANCH   1  14
HETATM   14  C3  UNL     1      30.571  20.307  45.604  1.00  0.00    -0.048 C 
HETATM   15  C2  UNL     1      30.793  19.410  44.650  1.00  0.00    -0.077 C 
HETATM   16  C1  UNL     1      31.573  18.187  44.984  1.00  0.00     0.044 C 
HETATM   17  C20 UNL     1      30.311  19.569  43.286  1.00  0.00     0.034 C 
HETATM   18  C19 UNL     1      30.017  21.006  42.921  1.00  0.00     0.005 C 
HETATM   19  C18 UNL     1      29.239  21.696  43.983  1.00  0.00     0.014 C 
HETATM   20  C15 UNL     1      29.813  21.540  45.383  1.00  0.00    -0.020 C 
HETATM   21  C16 UNL     1      30.700  22.724  45.705  1.00  0.00     0.020 C 
HETATM   22  C17 UNL     1      28.622  21.559  46.313  1.00  0.00     0.020 C 
ENDBRANCH   1  14
TORSDOF 6
ENDMDL
