MODEL 2
REMARK VINA RESULT: -9.540366589      1.010      1.299
REMARK  6 active torsions:
REMARK  status: ('A' for Active; 'I' for Inactive)
REMARK    1  A    between atoms: C3_3  and  C4_4 
REMARK    2  A    between atoms: C5_5  and  C6_6 
REMARK    3  A    between atoms: C8_8  and  C9_9 
REMARK    4  A    between atoms: C10_10  and  C11_11 
REMARK    5  A    between atoms: C13_13  and  C14_14 
REMARK    6  A    between atoms: C14_14  and  O1_15 
ROOT
HETATM    1  C4  UNL     1      31.059  19.597  47.126  1.00  0.00     0.009 C 
HETATM    2  C5  UNL     1      30.496  18.862  48.040  1.00  0.00     0.007 C 
ENDROOT
BRANCH   2   3
HETATM    3  C6  UNL     1      31.067  18.696  49.406  1.00  0.00    -0.062 C 
HETATM    4  C7  UNL     1      30.279  18.618  50.633  1.00  0.00     0.048 C 
HETATM    5  C8  UNL     1      32.390  18.612  49.535  1.00  0.00     0.007 C 
BRANCH   5   6
HETATM    6  C9  UNL     1      33.031  18.448  50.848  1.00  0.00     0.001 C 
HETATM    7  C10 UNL     1      34.253  18.894  51.037  1.00  0.00     0.006 C 
BRANCH   7   8
HETATM    8  C11 UNL     1      34.904  18.748  52.312  1.00  0.00    -0.064 C 
HETATM    9  C12 UNL     1      34.184  19.009  53.555  1.00  0.00     0.048 C 
HETATM   10  C13 UNL     1      36.168  18.381  52.327  1.00  0.00     0.005 C 
BRANCH  10  11
HETATM   11  C14 UNL     1      36.974  18.186  53.530  1.00  0.00     0.192 C 
BRANCH  11  12
HETATM   12  O1  UNL     1      37.115  16.784  53.685  1.00  0.00    -0.397 OA
ATOM     13  H1  UNL     1      37.177  16.627  54.621  1.00  0.00     0.209 HD
ENDBRANCH  11  12
ENDBRANCH  10  11
ENDBRANCH   7   8
ENDBRANCH   5   6
ENDBRANCH   2   3
BRANCH   1  14
HETATM   14  C3  UNL     1      30.536  19.786  45.780  1.00  0.00    -0.048 C 
HETATM   15  C2  UNL     1      30.926  18.910  44.862  1.00  0.00    -0.077 C 
HETATM   16  C1  UNL     1      31.851  17.815  45.265  1.00  0.00     0.044 C 
HETATM   17  C20 UNL     1      30.495  18.971  43.474  1.00  0.00     0.034 C 
HETATM   18  C19 UNL     1      30.022  20.344  43.056  1.00  0.00     0.005 C 
HETATM   19  C18 UNL     1      29.104  20.940  44.063  1.00  0.00     0.014 C 
HETATM   20  C15 UNL     1      29.625  20.896  45.491  1.00  0.00    -0.020 C 
HETATM   21  C16 UNL     1      30.323  22.199  45.820  1.00  0.00     0.020 C 
HETATM   22  C17 UNL     1      28.399  20.767  46.365  1.00  0.00     0.020 C 
ENDBRANCH   1  14
TORSDOF 6
ENDMDL
