MODEL 20
REMARK VINA RESULT: -8.858373587      3.499     10.373
REMARK  7 active torsions:
REMARK  status: ('A' for Active; 'I' for Inactive)
REMARK    1  A    between atoms: C2_2  and  O1_3 
REMARK    2  A    between atoms: O1_3  and  C3_4 
REMARK    3  A    between atoms: C8_9  and  S1_10 
REMARK    4  A    between atoms: S1_10  and  C9_11 
REMARK    5  A    between atoms: C12_14  and  C13_15 
REMARK    6  A    between atoms: C16_20  and  N2_21 
REMARK       I    between atoms: N3_24  and  C19_25 
REMARK    7  A    between atoms: C25_32  and  N4_33 
ROOT
HETATM    1  C9  UNL     1      -0.810 -11.347 -10.337  1.00  0.00     0.038 A 
HETATM    2  C10 UNL     1       0.388 -10.780 -10.716  1.00  0.00     0.022 A 
HETATM    3  C11 UNL     1       0.949  -9.767  -9.935  1.00  0.00     0.014 A 
HETATM    4  C12 UNL     1       0.333  -9.320  -8.794  1.00  0.00    -0.023 A 
HETATM    5  C24 UNL     1      -0.862  -9.889  -8.423  1.00  0.00     0.049 A 
HETATM    6  C25 UNL     1      -1.433 -10.903  -9.198  1.00  0.00     0.120 A 
ENDROOT
BRANCH   4   7
HETATM    7  C13 UNL     1       0.869  -8.276  -7.942  1.00  0.00    -0.021 A 
HETATM    8  C14 UNL     1       0.107  -7.534  -7.078  1.00  0.00     0.029 A 
HETATM    9  C15 UNL     1       0.678  -6.552  -6.277  1.00  0.00     0.090 A 
HETATM   10  N1  UNL     1       1.988  -6.341  -6.363  1.00  0.00    -0.352 N 
HETATM   11  C16 UNL     1       2.806  -7.045  -7.205  1.00  0.00     0.103 A 
ATOM     12  H1  UNL     1       2.403  -5.619  -5.774  1.00  0.00     0.166 HD
HETATM   13  C23 UNL     1       2.235  -8.016  -7.994  1.00  0.00     0.060 A 
BRANCH  11  14
HETATM   14  N2  UNL     1       4.185  -6.745  -7.201  1.00  0.00    -0.364 N 
HETATM   15  C17 UNL     1       4.659  -5.502  -6.665  1.00  0.00     0.144 C 
HETATM   16  C18 UNL     1       5.622  -5.854  -5.522  1.00  0.00     0.145 C 
HETATM   17  N3  UNL     1       6.398  -7.003  -5.891  1.00  0.00    -0.349 N 
HETATM   18  C19 UNL     1       7.011  -7.750  -4.851  1.00  0.00     0.215 C 
HETATM   19  C21 UNL     1       6.543  -7.387  -7.276  1.00  0.00     0.145 C 
HETATM   20  C20 UNL     1       7.817  -8.941  -5.228  1.00  0.00     0.117 C 
HETATM   21  O2  UNL     1       6.879  -7.415  -3.630  1.00  0.00    -0.274 OA
HETATM   22  C22 UNL     1       5.115  -7.698  -7.758  1.00  0.00     0.144 C 
ENDBRANCH  11  14
ENDBRANCH   4   7
BRANCH   6  23
HETATM   23  N4  UNL     1      -2.675 -11.401  -8.735  1.00  0.00    -0.114 N 
HETATM   24  O3  UNL     1      -2.693 -12.328  -7.909  1.00  0.00    -0.532 OA
HETATM   25  O4  UNL     1      -3.824 -10.816  -9.243  1.00  0.00    -0.532 OA
ENDBRANCH   6  23
BRANCH   1  26
HETATM   26  S1  UNL     1      -1.547 -12.665 -11.302  1.00  0.00    -0.085 SA
BRANCH  26  27
HETATM   27  C8  UNL     1      -2.512 -11.963 -12.655  1.00  0.00     0.039 A 
HETATM   28  C3  UNL     1      -3.028 -12.703 -13.685  1.00  0.00     0.085 A 
HETATM   29  C4  UNL     1      -3.736 -12.064 -14.677  1.00  0.00     0.038 A 
HETATM   30  C5  UNL     1      -3.948 -10.698 -14.676  1.00  0.00     0.003 A 
HETATM   31  C6  UNL     1      -3.432  -9.941 -13.639  1.00  0.00     0.002 A 
HETATM   32  C7  UNL     1      -2.736 -10.589 -12.668  1.00  0.00     0.021 A 
BRANCH  28  33
HETATM   33  O1  UNL     1      -2.859 -14.045 -13.745  1.00  0.00    -0.350 OA
BRANCH  33  34
HETATM   34  C2  UNL     1      -2.218 -14.812 -14.714  1.00  0.00     0.171 C 
HETATM   35  C1  UNL     1      -0.717 -14.641 -14.767  1.00  0.00     0.034 C 
ENDBRANCH  33  34
ENDBRANCH  28  33
ENDBRANCH  26  27
ENDBRANCH   1  26
TORSDOF 7
ENDMDL
