MODEL 19
REMARK VINA RESULT: -8.915513433      3.360      9.854
REMARK  7 active torsions:
REMARK  status: ('A' for Active; 'I' for Inactive)
REMARK    1  A    between atoms: C2_2  and  O1_3 
REMARK    2  A    between atoms: O1_3  and  C3_4 
REMARK    3  A    between atoms: C8_9  and  S1_10 
REMARK    4  A    between atoms: S1_10  and  C9_11 
REMARK    5  A    between atoms: C12_14  and  C13_15 
REMARK    6  A    between atoms: C16_20  and  N2_21 
REMARK       I    between atoms: N3_24  and  C19_25 
REMARK    7  A    between atoms: C25_32  and  N4_33 
ROOT
HETATM    1  C9  UNL     1      -1.788 -10.491  -9.156  1.00  0.00     0.038 A 
HETATM    2  C10 UNL     1      -0.565 -10.316  -9.767  1.00  0.00     0.022 A 
HETATM    3  C11 UNL     1       0.358  -9.423  -9.218  1.00  0.00     0.014 A 
HETATM    4  C12 UNL     1       0.076  -8.713  -8.080  1.00  0.00    -0.023 A 
HETATM    5  C24 UNL     1      -1.146  -8.892  -7.476  1.00  0.00     0.049 A 
HETATM    6  C25 UNL     1      -2.078  -9.782  -8.018  1.00  0.00     0.120 A 
ENDROOT
BRANCH   4   7
HETATM    7  C13 UNL     1       0.996  -7.776  -7.462  1.00  0.00    -0.021 A 
HETATM    8  C14 UNL     1       0.639  -6.905  -6.467  1.00  0.00     0.029 A 
HETATM    9  C15 UNL     1       1.566  -6.037  -5.905  1.00  0.00     0.090 A 
HETATM   10  N1  UNL     1       2.818  -6.063  -6.352  1.00  0.00    -0.352 N 
HETATM   11  C16 UNL     1       3.240  -6.907  -7.344  1.00  0.00     0.103 A 
ATOM     12  H1  UNL     1       3.495  -5.423  -5.937  1.00  0.00     0.166 HD
HETATM   13  C23 UNL     1       2.317  -7.765  -7.895  1.00  0.00     0.060 A 
BRANCH  11  14
HETATM   14  N2  UNL     1       4.597  -6.858  -7.729  1.00  0.00    -0.364 N 
HETATM   15  C17 UNL     1       5.481  -5.883  -7.160  1.00  0.00     0.144 C 
HETATM   16  C18 UNL     1       6.610  -6.662  -6.468  1.00  0.00     0.145 C 
HETATM   17  N3  UNL     1       6.958  -7.802  -7.266  1.00  0.00    -0.349 N 
HETATM   18  C19 UNL     1       7.638  -8.874  -6.630  1.00  0.00     0.215 C 
HETATM   19  C21 UNL     1       6.620  -7.857  -8.670  1.00  0.00     0.145 C 
HETATM   20  C20 UNL     1       8.002 -10.057  -7.452  1.00  0.00     0.117 C 
HETATM   21  O2  UNL     1       7.931  -8.829  -5.392  1.00  0.00    -0.274 OA
HETATM   22  C22 UNL     1       5.084  -7.792  -8.716  1.00  0.00     0.144 C 
ENDBRANCH  11  14
ENDBRANCH   4   7
BRANCH   6  23
HETATM   23  N4  UNL     1      -3.311  -9.872  -7.327  1.00  0.00    -0.114 N 
HETATM   24  O3  UNL     1      -4.190  -9.018  -7.531  1.00  0.00    -0.532 OA
HETATM   25  O4  UNL     1      -3.471 -10.927  -6.444  1.00  0.00    -0.532 OA
ENDBRANCH   6  23
BRANCH   1  26
HETATM   26  S1  UNL     1      -2.988 -11.646  -9.818  1.00  0.00    -0.085 SA
BRANCH  26  27
HETATM   27  C8  UNL     1      -3.074 -11.474 -11.612  1.00  0.00     0.039 A 
HETATM   28  C3  UNL     1      -3.162 -10.270 -12.257  1.00  0.00     0.085 A 
HETATM   29  C4  UNL     1      -3.238 -10.252 -13.631  1.00  0.00     0.038 A 
HETATM   30  C5  UNL     1      -3.230 -11.408 -14.390  1.00  0.00     0.003 A 
HETATM   31  C6  UNL     1      -3.140 -12.630 -13.748  1.00  0.00     0.002 A 
HETATM   32  C7  UNL     1      -3.065 -12.628 -12.391  1.00  0.00     0.021 A 
BRANCH  28  33
HETATM   33  O1  UNL     1      -3.171  -9.101 -11.574  1.00  0.00    -0.350 OA
BRANCH  33  34
HETATM   34  C2  UNL     1      -2.495  -7.914 -11.845  1.00  0.00     0.171 C 
HETATM   35  C1  UNL     1      -2.193  -7.066 -10.630  1.00  0.00     0.034 C 
ENDBRANCH  33  34
ENDBRANCH  28  33
ENDBRANCH  26  27
ENDBRANCH   1  26
TORSDOF 7
ENDMDL
