MODEL 5
REMARK VINA RESULT: -9.500675183      2.576      3.563
REMARK  7 active torsions:
REMARK  status: ('A' for Active; 'I' for Inactive)
REMARK    1  A    between atoms: C2_2  and  O1_3 
REMARK    2  A    between atoms: O1_3  and  C3_4 
REMARK    3  A    between atoms: C8_9  and  S1_10 
REMARK    4  A    between atoms: S1_10  and  C9_11 
REMARK    5  A    between atoms: C12_14  and  C13_15 
REMARK    6  A    between atoms: C16_20  and  N2_21 
REMARK       I    between atoms: N3_24  and  C19_25 
REMARK    7  A    between atoms: C25_32  and  N4_33 
ROOT
HETATM    1  C9  UNL     1       3.332  -5.774  -7.201  1.00  0.00     0.038 A 
HETATM    2  C10 UNL     1       3.100  -7.093  -7.524  1.00  0.00     0.022 A 
HETATM    3  C11 UNL     1       1.797  -7.519  -7.793  1.00  0.00     0.014 A 
HETATM    4  C12 UNL     1       0.737  -6.650  -7.742  1.00  0.00    -0.023 A 
HETATM    5  C24 UNL     1       0.975  -5.335  -7.417  1.00  0.00     0.049 A 
HETATM    6  C25 UNL     1       2.276  -4.899  -7.146  1.00  0.00     0.120 A 
ENDROOT
BRANCH   4   7
HETATM    7  C13 UNL     1      -0.635  -7.032  -8.014  1.00  0.00    -0.021 A 
HETATM    8  C14 UNL     1      -1.446  -6.375  -8.902  1.00  0.00     0.029 A 
HETATM    9  C15 UNL     1      -2.750  -6.793  -9.131  1.00  0.00     0.090 A 
HETATM   10  N1  UNL     1      -3.207  -7.851  -8.468  1.00  0.00    -0.352 N 
HETATM   11  C16 UNL     1      -2.452  -8.552  -7.567  1.00  0.00     0.103 A 
ATOM     12  H1  UNL     1      -4.166  -8.154  -8.639  1.00  0.00     0.166 HD
HETATM   13  C23 UNL     1      -1.160  -8.133  -7.346  1.00  0.00     0.060 A 
BRANCH  11  14
HETATM   14  N2  UNL     1      -3.036  -9.669  -6.933  1.00  0.00    -0.364 N 
HETATM   15  C17 UNL     1      -4.411 -10.004  -7.167  1.00  0.00     0.144 C 
HETATM   16  C18 UNL     1      -4.425 -11.426  -7.749  1.00  0.00     0.145 C 
HETATM   17  N3  UNL     1      -3.430 -12.219  -7.088  1.00  0.00    -0.349 N 
HETATM   18  C19 UNL     1      -2.973 -13.391  -7.746  1.00  0.00     0.215 C 
HETATM   19  C21 UNL     1      -2.907 -11.831  -5.799  1.00  0.00     0.145 C 
HETATM   20  C20 UNL     1      -1.942 -14.218  -7.065  1.00  0.00     0.117 C 
HETATM   21  O2  UNL     1      -3.429 -13.731  -8.885  1.00  0.00    -0.274 OA
HETATM   22  C22 UNL     1      -2.238 -10.465  -6.031  1.00  0.00     0.144 C 
ENDBRANCH  11  14
ENDBRANCH   4   7
BRANCH   6  23
HETATM   23  N4  UNL     1       2.403  -3.532  -6.802  1.00  0.00    -0.114 N 
HETATM   24  O3  UNL     1       3.260  -3.187  -5.973  1.00  0.00    -0.532 OA
HETATM   25  O4  UNL     1       1.544  -2.638  -7.421  1.00  0.00    -0.532 OA
ENDBRANCH   6  23
BRANCH   1  26
HETATM   26  S1  UNL     1       4.994  -5.188  -6.873  1.00  0.00    -0.085 SA
BRANCH  26  27
HETATM   27  C8  UNL     1       5.972  -6.510  -6.135  1.00  0.00     0.039 A 
HETATM   28  C3  UNL     1       6.671  -7.436  -6.862  1.00  0.00     0.085 A 
HETATM   29  C4  UNL     1       7.373  -8.416  -6.197  1.00  0.00     0.038 A 
HETATM   30  C5  UNL     1       7.402  -8.503  -4.818  1.00  0.00     0.003 A 
HETATM   31  C6  UNL     1       6.700  -7.572  -4.074  1.00  0.00     0.002 A 
HETATM   32  C7  UNL     1       6.013  -6.611  -4.747  1.00  0.00     0.021 A 
BRANCH  28  33
HETATM   33  O1  UNL     1       6.687  -7.406  -8.215  1.00  0.00    -0.350 OA
BRANCH  33  34
HETATM   34  C2  UNL     1       6.236  -8.358  -9.126  1.00  0.00     0.171 C 
HETATM   35  C1  UNL     1       5.573  -7.790 -10.360  1.00  0.00     0.034 C 
ENDBRANCH  33  34
ENDBRANCH  28  33
ENDBRANCH  26  27
ENDBRANCH   1  26
TORSDOF 7
ENDMDL
