MODEL 10
REMARK VINA RESULT: -9.338513015      2.965      3.512
REMARK  7 active torsions:
REMARK  status: ('A' for Active; 'I' for Inactive)
REMARK    1  A    between atoms: C2_2  and  O1_3 
REMARK    2  A    between atoms: O1_3  and  C3_4 
REMARK    3  A    between atoms: C8_9  and  S1_10 
REMARK    4  A    between atoms: S1_10  and  C9_11 
REMARK    5  A    between atoms: C12_14  and  C13_15 
REMARK    6  A    between atoms: C16_20  and  N2_21 
REMARK       I    between atoms: N3_24  and  C19_25 
REMARK    7  A    between atoms: C25_32  and  N4_33 
ROOT
HETATM    1  C9  UNL     1       2.881  -7.175  -7.756  1.00  0.00     0.038 A 
HETATM    2  C10 UNL     1       2.524  -8.363  -8.357  1.00  0.00     0.022 A 
HETATM    3  C11 UNL     1       1.204  -8.811  -8.268  1.00  0.00     0.014 A 
HETATM    4  C12 UNL     1       0.250  -8.094  -7.592  1.00  0.00    -0.023 A 
HETATM    5  C24 UNL     1       0.614  -6.911  -6.993  1.00  0.00     0.049 A 
HETATM    6  C25 UNL     1       1.933  -6.454  -7.077  1.00  0.00     0.120 A 
ENDROOT
BRANCH   4   7
HETATM    7  C13 UNL     1      -1.135  -8.506  -7.469  1.00  0.00    -0.021 A 
HETATM    8  C14 UNL     1      -2.153  -7.658  -7.120  1.00  0.00     0.029 A 
HETATM    9  C15 UNL     1      -3.464  -8.107  -7.028  1.00  0.00     0.090 A 
HETATM   10  N1  UNL     1      -3.720  -9.386  -7.285  1.00  0.00    -0.352 N 
HETATM   11  C16 UNL     1      -2.751 -10.286  -7.639  1.00  0.00     0.103 A 
ATOM     12  H1  UNL     1      -4.684  -9.712  -7.216  1.00  0.00     0.166 HD
HETATM   13  C23 UNL     1      -1.455  -9.835  -7.729  1.00  0.00     0.060 A 
BRANCH  11  14
HETATM   14  N2  UNL     1      -3.141 -11.617  -7.904  1.00  0.00    -0.364 N 
HETATM   15  C17 UNL     1      -3.116 -12.605  -6.864  1.00  0.00     0.144 C 
HETATM   16  C18 UNL     1      -4.552 -13.134  -6.726  1.00  0.00     0.145 C 
HETATM   17  N3  UNL     1      -5.145 -13.245  -8.028  1.00  0.00    -0.349 N 
HETATM   18  C19 UNL     1      -6.561 -13.283  -8.109  1.00  0.00     0.215 C 
HETATM   19  C21 UNL     1      -4.323 -13.308  -9.214  1.00  0.00     0.145 C 
HETATM   20  C20 UNL     1      -7.181 -13.399  -9.455  1.00  0.00     0.117 C 
HETATM   21  O2  UNL     1      -7.286 -13.221  -7.065  1.00  0.00    -0.274 OA
HETATM   22  C22 UNL     1      -3.551 -11.978  -9.240  1.00  0.00     0.144 C 
ENDBRANCH  11  14
ENDBRANCH   4   7
BRANCH   6  23
HETATM   23  N4  UNL     1       2.201  -5.236  -6.406  1.00  0.00    -0.114 N 
HETATM   24  O3  UNL     1       2.477  -5.252  -5.195  1.00  0.00    -0.532 OA
HETATM   25  O4  UNL     1       2.137  -4.070  -7.153  1.00  0.00    -0.532 OA
ENDBRANCH   6  23
BRANCH   1  26
HETATM   26  S1  UNL     1       4.560  -6.558  -7.871  1.00  0.00    -0.085 SA
BRANCH  26  27
HETATM   27  C8  UNL     1       5.489  -7.043  -6.403  1.00  0.00     0.039 A 
HETATM   28  C3  UNL     1       6.212  -8.202  -6.309  1.00  0.00     0.085 A 
HETATM   29  C4  UNL     1       6.872  -8.485  -5.135  1.00  0.00     0.038 A 
HETATM   30  C5  UNL     1       6.835  -7.641  -4.041  1.00  0.00     0.003 A 
HETATM   31  C6  UNL     1       6.108  -6.467  -4.125  1.00  0.00     0.002 A 
HETATM   32  C7  UNL     1       5.463  -6.204  -5.292  1.00  0.00     0.021 A 
BRANCH  28  33
HETATM   33  O1  UNL     1       6.292  -9.070  -7.345  1.00  0.00    -0.350 OA
BRANCH  33  34
HETATM   34  C2  UNL     1       7.375  -9.361  -8.172  1.00  0.00     0.171 C 
HETATM   35  C1  UNL     1       8.110 -10.637  -7.828  1.00  0.00     0.034 C 
ENDBRANCH  33  34
ENDBRANCH  28  33
ENDBRANCH  26  27
ENDBRANCH   1  26
TORSDOF 7
ENDMDL
