MODEL 15
REMARK VINA RESULT: -9.045581829      3.192      3.719
REMARK  7 active torsions:
REMARK  status: ('A' for Active; 'I' for Inactive)
REMARK    1  A    between atoms: C2_2  and  O1_3 
REMARK    2  A    between atoms: O1_3  and  C3_4 
REMARK    3  A    between atoms: C8_9  and  S1_10 
REMARK    4  A    between atoms: S1_10  and  C9_11 
REMARK    5  A    between atoms: C12_14  and  C13_15 
REMARK    6  A    between atoms: C16_20  and  N2_21 
REMARK       I    between atoms: N3_24  and  C19_25 
REMARK    7  A    between atoms: C25_32  and  N4_33 
ROOT
HETATM    1  C9  UNL     1       2.813  -7.183  -7.701  1.00  0.00     0.038 A 
HETATM    2  C10 UNL     1       2.433  -8.360  -8.308  1.00  0.00     0.022 A 
HETATM    3  C11 UNL     1       1.117  -8.808  -8.183  1.00  0.00     0.014 A 
HETATM    4  C12 UNL     1       0.186  -8.101  -7.465  1.00  0.00    -0.023 A 
HETATM    5  C24 UNL     1       0.572  -6.928  -6.860  1.00  0.00     0.049 A 
HETATM    6  C25 UNL     1       1.888  -6.471  -6.979  1.00  0.00     0.120 A 
ENDROOT
BRANCH   4   7
HETATM    7  C13 UNL     1      -1.195  -8.514  -7.303  1.00  0.00    -0.021 A 
HETATM    8  C14 UNL     1      -2.250  -7.640  -7.268  1.00  0.00     0.029 A 
HETATM    9  C15 UNL     1      -3.554  -8.094  -7.121  1.00  0.00     0.090 A 
HETATM   10  N1  UNL     1      -3.767  -9.403  -7.013  1.00  0.00    -0.352 N 
HETATM   11  C16 UNL     1      -2.758 -10.329  -7.040  1.00  0.00     0.103 A 
ATOM     12  H1  UNL     1      -4.726  -9.732  -6.905  1.00  0.00     0.166 HD
HETATM   13  C23 UNL     1      -1.469  -9.872  -7.186  1.00  0.00     0.060 A 
BRANCH  11  14
HETATM   14  N2  UNL     1      -3.103 -11.693  -6.932  1.00  0.00    -0.364 N 
HETATM   15  C17 UNL     1      -4.411 -12.082  -6.491  1.00  0.00     0.144 C 
HETATM   16  C18 UNL     1      -5.028 -12.916  -7.624  1.00  0.00     0.145 C 
HETATM   17  N3  UNL     1      -4.015 -13.748  -8.207  1.00  0.00    -0.349 N 
HETATM   18  C19 UNL     1      -4.243 -14.251  -9.514  1.00  0.00     0.215 C 
HETATM   19  C21 UNL     1      -2.801 -14.055  -7.486  1.00  0.00     0.145 C 
HETATM   20  C20 UNL     1      -3.198 -15.115 -10.123  1.00  0.00     0.117 C 
HETATM   21  O2  UNL     1      -5.310 -13.977 -10.152  1.00  0.00    -0.274 OA
HETATM   22  C22 UNL     1      -2.117 -12.696  -7.255  1.00  0.00     0.144 C 
ENDBRANCH  11  14
ENDBRANCH   4   7
BRANCH   6  23
HETATM   23  N4  UNL     1       2.180  -5.265  -6.297  1.00  0.00    -0.114 N 
HETATM   24  O3  UNL     1       2.463  -5.298  -5.089  1.00  0.00    -0.532 OA
HETATM   25  O4  UNL     1       2.130  -4.091  -7.032  1.00  0.00    -0.532 OA
ENDBRANCH   6  23
BRANCH   1  26
HETATM   26  S1  UNL     1       4.488  -6.565  -7.860  1.00  0.00    -0.085 SA
BRANCH  26  27
HETATM   27  C8  UNL     1       5.450  -7.033  -6.408  1.00  0.00     0.039 A 
HETATM   28  C3  UNL     1       6.175  -8.191  -6.317  1.00  0.00     0.085 A 
HETATM   29  C4  UNL     1       6.862  -8.460  -5.155  1.00  0.00     0.038 A 
HETATM   30  C5  UNL     1       6.850  -7.603  -4.071  1.00  0.00     0.003 A 
HETATM   31  C6  UNL     1       6.122  -6.429  -4.153  1.00  0.00     0.002 A 
HETATM   32  C7  UNL     1       5.450  -6.180  -5.308  1.00  0.00     0.021 A 
BRANCH  28  33
HETATM   33  O1  UNL     1       6.231  -9.072  -7.344  1.00  0.00    -0.350 OA
BRANCH  33  34
HETATM   34  C2  UNL     1       7.298  -9.382  -8.184  1.00  0.00     0.171 C 
HETATM   35  C1  UNL     1       7.989 -10.690  -7.874  1.00  0.00     0.034 C 
ENDBRANCH  33  34
ENDBRANCH  28  33
ENDBRANCH  26  27
ENDBRANCH   1  26
TORSDOF 7
ENDMDL
