MODEL 9
REMARK VINA RESULT: -9.389136405      2.979      4.082
REMARK  7 active torsions:
REMARK  status: ('A' for Active; 'I' for Inactive)
REMARK    1  A    between atoms: C2_2  and  O1_3 
REMARK    2  A    between atoms: O1_3  and  C3_4 
REMARK    3  A    between atoms: C8_9  and  S1_10 
REMARK    4  A    between atoms: S1_10  and  C9_11 
REMARK    5  A    between atoms: C12_14  and  C13_15 
REMARK    6  A    between atoms: C16_20  and  N2_21 
REMARK       I    between atoms: N3_24  and  C19_25 
REMARK    7  A    between atoms: C25_32  and  N4_33 
ROOT
HETATM    1  C9  UNL     1       3.222  -6.218  -7.415  1.00  0.00     0.038 A 
HETATM    2  C10 UNL     1       3.012  -7.547  -7.710  1.00  0.00     0.022 A 
HETATM    3  C11 UNL     1       1.707  -8.033  -7.814  1.00  0.00     0.014 A 
HETATM    4  C12 UNL     1       0.622  -7.214  -7.626  1.00  0.00    -0.023 A 
HETATM    5  C24 UNL     1       0.839  -5.889  -7.330  1.00  0.00     0.049 A 
HETATM    6  C25 UNL     1       2.142  -5.393  -7.224  1.00  0.00     0.120 A 
ENDROOT
BRANCH   4   7
HETATM    7  C13 UNL     1      -0.754  -7.660  -7.725  1.00  0.00    -0.021 A 
HETATM    8  C14 UNL     1      -1.818  -6.813  -7.895  1.00  0.00     0.029 A 
HETATM    9  C15 UNL     1      -3.115  -7.298  -7.993  1.00  0.00     0.090 A 
HETATM   10  N1  UNL     1      -3.313  -8.611  -7.919  1.00  0.00    -0.352 N 
HETATM   11  C16 UNL     1      -2.296  -9.512  -7.750  1.00  0.00     0.103 A 
ATOM     12  H1  UNL     1      -4.268  -8.963  -7.992  1.00  0.00     0.166 HD
HETATM   13  C23 UNL     1      -1.014  -9.025  -7.654  1.00  0.00     0.060 A 
BRANCH  11  14
HETATM   14  N2  UNL     1      -2.622 -10.885  -7.700  1.00  0.00    -0.364 N 
HETATM   15  C17 UNL     1      -2.527 -11.699  -8.877  1.00  0.00     0.144 C 
HETATM   16  C18 UNL     1      -1.526 -12.820  -8.556  1.00  0.00     0.145 C 
HETATM   17  N3  UNL     1      -1.716 -13.253  -7.202  1.00  0.00    -0.349 N 
HETATM   18  C19 UNL     1      -0.646 -13.940  -6.570  1.00  0.00     0.215 C 
HETATM   19  C21 UNL     1      -2.954 -12.991  -6.506  1.00  0.00     0.145 C 
HETATM   20  C20 UNL     1      -0.837 -14.392  -5.167  1.00  0.00     0.117 C 
HETATM   21  O2  UNL     1       0.448 -14.166  -7.181  1.00  0.00    -0.274 OA
HETATM   22  C22 UNL     1      -3.069 -11.458  -6.453  1.00  0.00     0.144 C 
ENDBRANCH  11  14
ENDBRANCH   4   7
BRANCH   6  23
HETATM   23  N4  UNL     1       2.248  -4.020  -6.894  1.00  0.00    -0.114 N 
HETATM   24  O3  UNL     1       1.527  -3.193  -7.475  1.00  0.00    -0.532 OA
HETATM   25  O4  UNL     1       3.172  -3.669  -5.922  1.00  0.00    -0.532 OA
ENDBRANCH   6  23
BRANCH   1  26
HETATM   26  S1  UNL     1       4.883  -5.554  -7.297  1.00  0.00    -0.085 SA
BRANCH  26  27
HETATM   27  C8  UNL     1       5.935  -6.702  -6.387  1.00  0.00     0.039 A 
HETATM   28  C3  UNL     1       6.773  -7.603  -6.986  1.00  0.00     0.085 A 
HETATM   29  C4  UNL     1       7.522  -8.446  -6.196  1.00  0.00     0.038 A 
HETATM   30  C5  UNL     1       7.460  -8.420  -4.816  1.00  0.00     0.003 A 
HETATM   31  C6  UNL     1       6.616  -7.513  -4.200  1.00  0.00     0.002 A 
HETATM   32  C7  UNL     1       5.885  -6.688  -4.996  1.00  0.00     0.021 A 
BRANCH  28  33
HETATM   33  O1  UNL     1       6.884  -7.679  -8.333  1.00  0.00    -0.350 OA
BRANCH  33  34
HETATM   34  C2  UNL     1       6.208  -8.502  -9.231  1.00  0.00     0.171 C 
HETATM   35  C1  UNL     1       5.622  -7.788 -10.427  1.00  0.00     0.034 C 
ENDBRANCH  33  34
ENDBRANCH  28  33
ENDBRANCH  26  27
ENDBRANCH   1  26
TORSDOF 7
ENDMDL
