MODEL 10
REMARK VINA RESULT: -11.974557957      2.452      4.277
REMARK  12 active torsions:
REMARK  status: ('A' for Active; 'I' for Inactive)
REMARK    1  A    between atoms: C3_4  and  C4_5 
REMARK    2  A    between atoms: C10_13  and  C11_14 
REMARK    3  A    between atoms: C11_14  and  C12_15 
REMARK    4  A    between atoms: C12_15  and  O2_16 
REMARK    5  A    between atoms: O2_16  and  C13_17 
REMARK    6  A    between atoms: C16_20  and  C17_21 
REMARK    7  A    between atoms: C17_21  and  C18_22 
REMARK    8  A    between atoms: C18_22  and  N2_23 
REMARK    9  A    between atoms: C18_22  and  C32_39 
REMARK   10  A    between atoms: N2_23  and  C19_25 
REMARK   11  A    between atoms: C24_30  and  C25_31 
REMARK   12  A    between atoms: C25_31  and  C26_33 
ROOT
HETATM    1  C13 UNL     1      12.618  30.997  10.480  1.00  0.00     0.068 A 
HETATM    2  C14 UNL     1      11.474  30.270  10.469  1.00  0.00     0.037 A 
HETATM    3  C15 UNL     1      10.528  30.455  11.481  1.00  0.00     0.010 A 
HETATM    4  C16 UNL     1      10.659  31.335  12.506  1.00  0.00    -0.056 A 
HETATM    5  C33 UNL     1      11.865  32.071  12.496  1.00  0.00     0.010 A 
HETATM    6  C34 UNL     1      12.818  31.882  11.482  1.00  0.00     0.037 A 
ENDROOT
BRANCH   4   7
HETATM    7  C17 UNL     1       9.611  31.822  13.371  1.00  0.00     0.074 C 
BRANCH   7   8
HETATM    8  C18 UNL     1       8.424  32.613  12.734  1.00  0.00     0.187 C 
BRANCH   8   9
HETATM    9  N2  UNL     1       8.971  33.686  12.013  1.00  0.00    -0.375 N 
ATOM     10  H2  UNL     1       9.941  33.634  11.701  1.00  0.00     0.160 HD
BRANCH   9  11
HETATM   11  C19 UNL     1       8.181  34.875  11.698  1.00  0.00     0.043 A 
HETATM   12  C20 UNL     1       6.815  34.692  11.466  1.00  0.00     0.030 A 
HETATM   13  C21 UNL     1       6.073  35.865  11.167  1.00  0.00     0.002 A 
HETATM   14  C22 UNL     1       6.632  37.089  11.103  1.00  0.00     0.001 A 
HETATM   15  C23 UNL     1       8.000  37.227  11.342  1.00  0.00     0.018 A 
HETATM   16  C24 UNL     1       8.797  36.113  11.645  1.00  0.00     0.041 A 
BRANCH  16  17
HETATM   17  C25 UNL     1      10.227  36.272  11.767  1.00  0.00     0.194 C 
HETATM   18  O3  UNL     1      11.014  35.397  12.174  1.00  0.00    -0.287 OA
BRANCH  17  19
HETATM   19  C26 UNL     1      10.861  37.549  11.369  1.00  0.00     0.015 A 
HETATM   20  C27 UNL     1      11.810  37.481  10.333  1.00  0.00     0.015 A 
HETATM   21  C28 UNL     1      12.490  38.558   9.834  1.00  0.00     0.001 A 
HETATM   22  C29 UNL     1      12.223  39.810  10.403  1.00  0.00     0.000 A 
HETATM   23  C30 UNL     1      11.315  39.915  11.413  1.00  0.00     0.001 A 
HETATM   24  C31 UNL     1      10.636  38.781  11.896  1.00  0.00     0.015 A 
ENDBRANCH  17  19
ENDBRANCH  16  17
ENDBRANCH   9  11
ENDBRANCH   8   9
BRANCH   8  25
HETATM   25  C32 UNL     1       7.422  32.609  13.755  1.00  0.00     0.197 C 
HETATM   26  O4  UNL     1       7.777  32.698  15.013  1.00  0.00    -0.646 OA
HETATM   27  O5  UNL     1       6.018  32.535  13.722  1.00  0.00    -0.646 OA
ENDBRANCH   8  25
ENDBRANCH   7   8
ENDBRANCH   4   7
BRANCH   1  28
HETATM   28  O2  UNL     1      13.568  30.810   9.408  1.00  0.00    -0.351 OA
BRANCH  28  29
HETATM   29  C12 UNL     1      12.914  30.965   8.111  1.00  0.00     0.181 C 
BRANCH  29  30
HETATM   30  C11 UNL     1      13.767  30.084   7.152  1.00  0.00     0.086 C 
BRANCH  30  31
HETATM   31  C10 UNL     1      13.287  28.660   7.450  1.00  0.00     0.043 A 
HETATM   32  C2  UNL     1      13.032  27.703   6.472  1.00  0.00     0.074 A 
HETATM   33  C1  UNL     1      13.422  27.903   5.033  1.00  0.00     0.079 C 
HETATM   34  O1  UNL     1      12.456  26.712   7.050  1.00  0.00    -0.296 OA
HETATM   35  C3  UNL     1      12.297  26.906   8.329  1.00  0.00     0.158 A 
HETATM   36  N1  UNL     1      12.826  28.129   8.578  1.00  0.00    -0.337 N 
ATOM     37  H1  UNL     1      12.864  28.576   9.494  1.00  0.00     0.168 HD
BRANCH  35  38
HETATM   38  C4  UNL     1      11.668  26.005   9.310  1.00  0.00     0.015 A 
HETATM   39  C5  UNL     1      12.254  24.805   9.675  1.00  0.00     0.016 A 
HETATM   40  C6  UNL     1      11.641  23.978  10.625  1.00  0.00     0.001 A 
HETATM   41  C7  UNL     1      10.436  24.351  11.216  1.00  0.00     0.000 A 
HETATM   42  C8  UNL     1       9.856  25.534  10.857  1.00  0.00     0.001 A 
HETATM   43  C9  UNL     1      10.479  26.305   9.935  1.00  0.00     0.016 A 
ENDBRANCH  35  38
ENDBRANCH  30  31
ENDBRANCH  29  30
ENDBRANCH  28  29
ENDBRANCH   1  28
TORSDOF 12
ENDMDL
