MODEL 3
REMARK VINA RESULT: -12.922037944      1.792      2.487
REMARK  12 active torsions:
REMARK  status: ('A' for Active; 'I' for Inactive)
REMARK    1  A    between atoms: C3_4  and  C4_5 
REMARK    2  A    between atoms: C10_13  and  C11_14 
REMARK    3  A    between atoms: C11_14  and  C12_15 
REMARK    4  A    between atoms: C12_15  and  O2_16 
REMARK    5  A    between atoms: O2_16  and  C13_17 
REMARK    6  A    between atoms: C16_20  and  C17_21 
REMARK    7  A    between atoms: C17_21  and  C18_22 
REMARK    8  A    between atoms: C18_22  and  N2_23 
REMARK    9  A    between atoms: C18_22  and  C32_39 
REMARK   10  A    between atoms: N2_23  and  C19_25 
REMARK   11  A    between atoms: C24_30  and  C25_31 
REMARK   12  A    between atoms: C25_31  and  C26_33 
ROOT
HETATM    1  C13 UNL     1      11.564  29.906   9.944  1.00  0.00     0.068 A 
HETATM    2  C14 UNL     1      10.209  29.865   9.971  1.00  0.00     0.037 A 
HETATM    3  C15 UNL     1       9.527  30.335  11.097  1.00  0.00     0.010 A 
HETATM    4  C16 UNL     1      10.125  30.852  12.200  1.00  0.00    -0.056 A 
HETATM    5  C33 UNL     1      11.538  30.874  12.146  1.00  0.00     0.010 A 
HETATM    6  C34 UNL     1      12.224  30.398  11.017  1.00  0.00     0.037 A 
ENDROOT
BRANCH   4   7
HETATM    7  C17 UNL     1       9.506  31.655  13.229  1.00  0.00     0.074 C 
BRANCH   7   8
HETATM    8  C18 UNL     1       8.435  32.711  12.808  1.00  0.00     0.187 C 
BRANCH   8   9
HETATM    9  N2  UNL     1       9.121  33.856  12.372  1.00  0.00    -0.375 N 
ATOM     10  H2  UNL     1      10.136  33.891  12.457  1.00  0.00     0.160 HD
BRANCH   9  11
HETATM   11  C19 UNL     1       8.410  34.998  11.798  1.00  0.00     0.043 A 
HETATM   12  C20 UNL     1       7.048  34.836  11.535  1.00  0.00     0.030 A 
HETATM   13  C21 UNL     1       6.384  35.963  10.982  1.00  0.00     0.002 A 
HETATM   14  C22 UNL     1       7.010  37.125  10.717  1.00  0.00     0.001 A 
HETATM   15  C23 UNL     1       8.373  37.243  10.994  1.00  0.00     0.018 A 
HETATM   16  C24 UNL     1       9.094  36.173  11.543  1.00  0.00     0.041 A 
BRANCH  16  17
HETATM   17  C25 UNL     1      10.526  36.287  11.706  1.00  0.00     0.194 C 
HETATM   18  O3  UNL     1      11.281  35.366  12.069  1.00  0.00    -0.287 OA
BRANCH  17  19
HETATM   19  C26 UNL     1      11.199  37.571  11.409  1.00  0.00     0.015 A 
HETATM   20  C27 UNL     1      12.407  37.494  10.692  1.00  0.00     0.015 A 
HETATM   21  C28 UNL     1      13.160  38.575  10.326  1.00  0.00     0.001 A 
HETATM   22  C29 UNL     1      12.695  39.842  10.700  1.00  0.00     0.000 A 
HETATM   23  C30 UNL     1      11.533  39.957  11.401  1.00  0.00     0.001 A 
HETATM   24  C31 UNL     1      10.787  38.818  11.755  1.00  0.00     0.015 A 
ENDBRANCH  17  19
ENDBRANCH  16  17
ENDBRANCH   9  11
ENDBRANCH   8   9
BRANCH   8  25
HETATM   25  C32 UNL     1       7.412  32.576  13.798  1.00  0.00     0.197 C 
HETATM   26  O4  UNL     1       7.710  32.733  15.064  1.00  0.00    -0.646 OA
HETATM   27  O5  UNL     1       6.035  32.297  13.724  1.00  0.00    -0.646 OA
ENDBRANCH   8  25
ENDBRANCH   7   8
ENDBRANCH   4   7
BRANCH   1  28
HETATM   28  O2  UNL     1      12.247  29.442   8.758  1.00  0.00    -0.351 OA
BRANCH  28  29
HETATM   29  C12 UNL     1      12.424  30.537   7.807  1.00  0.00     0.181 C 
BRANCH  29  30
HETATM   30  C11 UNL     1      13.968  30.721   7.728  1.00  0.00     0.086 C 
BRANCH  30  31
HETATM   31  C10 UNL     1      14.151  31.747   6.605  1.00  0.00     0.043 A 
HETATM   32  C2  UNL     1      15.029  32.825   6.670  1.00  0.00     0.074 A 
HETATM   33  C1  UNL     1      16.054  32.961   7.764  1.00  0.00     0.079 C 
HETATM   34  O1  UNL     1      14.777  33.583   5.665  1.00  0.00    -0.296 OA
HETATM   35  C3  UNL     1      13.812  33.119   4.922  1.00  0.00     0.158 A 
HETATM   36  N1  UNL     1      13.424  31.962   5.513  1.00  0.00    -0.337 N 
ATOM     37  H1  UNL     1      12.685  31.348   5.171  1.00  0.00     0.168 HD
BRANCH  35  38
HETATM   38  C4  UNL     1      13.240  33.716   3.703  1.00  0.00     0.015 A 
HETATM   39  C5  UNL     1      13.315  35.076   3.457  1.00  0.00     0.016 A 
HETATM   40  C6  UNL     1      12.778  35.613   2.279  1.00  0.00     0.001 A 
HETATM   41  C7  UNL     1      12.165  34.787   1.340  1.00  0.00     0.000 A 
HETATM   42  C8  UNL     1      12.090  33.444   1.582  1.00  0.00     0.001 A 
HETATM   43  C9  UNL     1      12.619  32.965   2.731  1.00  0.00     0.016 A 
ENDBRANCH  35  38
ENDBRANCH  30  31
ENDBRANCH  29  30
ENDBRANCH  28  29
ENDBRANCH   1  28
TORSDOF 12
ENDMDL
