MODEL 12
REMARK VINA RESULT: -11.691899261      1.834     10.082
REMARK  12 active torsions:
REMARK  status: ('A' for Active; 'I' for Inactive)
REMARK    1  A    between atoms: C3_4  and  C4_5 
REMARK    2  A    between atoms: C10_13  and  C11_14 
REMARK    3  A    between atoms: C11_14  and  C12_15 
REMARK    4  A    between atoms: C12_15  and  O2_16 
REMARK    5  A    between atoms: O2_16  and  C13_17 
REMARK    6  A    between atoms: C16_20  and  C17_21 
REMARK    7  A    between atoms: C17_21  and  C18_22 
REMARK    8  A    between atoms: C18_22  and  N2_23 
REMARK    9  A    between atoms: C18_22  and  C32_39 
REMARK   10  A    between atoms: N2_23  and  C19_25 
REMARK   11  A    between atoms: C24_30  and  C25_31 
REMARK   12  A    between atoms: C25_31  and  C26_33 
ROOT
HETATM    1  C13 UNL     1      12.588  31.037  10.031  1.00  0.00     0.068 A 
HETATM    2  C14 UNL     1      11.765  30.045   9.611  1.00  0.00     0.037 A 
HETATM    3  C15 UNL     1      12.060  29.356   8.431  1.00  0.00     0.010 A 
HETATM    4  C16 UNL     1      13.140  29.599   7.647  1.00  0.00    -0.056 A 
HETATM    5  C33 UNL     1      13.974  30.645   8.104  1.00  0.00     0.010 A 
HETATM    6  C34 UNL     1      13.676  31.341   9.287  1.00  0.00     0.037 A 
ENDROOT
BRANCH   4   7
HETATM    7  C17 UNL     1      13.690  28.732   6.631  1.00  0.00     0.074 C 
BRANCH   7   8
HETATM    8  C18 UNL     1      12.969  28.651   5.248  1.00  0.00     0.187 C 
BRANCH   8   9
HETATM    9  N2  UNL     1      12.043  29.705   5.193  1.00  0.00    -0.375 N 
ATOM     10  H2  UNL     1      11.182  29.641   5.735  1.00  0.00     0.160 HD
BRANCH   9  11
HETATM   11  C19 UNL     1      12.287  30.893   4.376  1.00  0.00     0.043 A 
HETATM   12  C20 UNL     1      13.133  31.870   4.906  1.00  0.00     0.030 A 
HETATM   13  C21 UNL     1      13.355  33.010   4.089  1.00  0.00     0.002 A 
HETATM   14  C22 UNL     1      12.792  33.161   2.875  1.00  0.00     0.001 A 
HETATM   15  C23 UNL     1      11.953  32.160   2.383  1.00  0.00     0.018 A 
HETATM   16  C24 UNL     1      11.689  31.005   3.134  1.00  0.00     0.041 A 
BRANCH  16  17
HETATM   17  C25 UNL     1      10.723  30.046   2.650  1.00  0.00     0.194 C 
HETATM   18  O3  UNL     1      10.689  28.841   2.965  1.00  0.00    -0.287 OA
BRANCH  17  19
HETATM   19  C26 UNL     1       9.655  30.482   1.723  1.00  0.00     0.015 A 
HETATM   20  C27 UNL     1       9.310  29.583   0.697  1.00  0.00     0.015 A 
HETATM   21  C28 UNL     1       8.346  29.815  -0.244  1.00  0.00     0.001 A 
HETATM   22  C29 UNL     1       7.664  31.037  -0.182  1.00  0.00     0.000 A 
HETATM   23  C30 UNL     1       7.975  31.937   0.792  1.00  0.00     0.001 A 
HETATM   24  C31 UNL     1       8.973  31.656   1.744  1.00  0.00     0.015 A 
ENDBRANCH  17  19
ENDBRANCH  16  17
ENDBRANCH   9  11
ENDBRANCH   8   9
BRANCH   8  25
HETATM   25  C32 UNL     1      12.777  27.249   5.043  1.00  0.00     0.197 C 
HETATM   26  O4  UNL     1      12.580  26.463   6.072  1.00  0.00    -0.646 OA
HETATM   27  O5  UNL     1      12.737  26.444   3.890  1.00  0.00    -0.646 OA
ENDBRANCH   8  25
ENDBRANCH   7   8
ENDBRANCH   4   7
BRANCH   1  28
HETATM   28  O2  UNL     1      12.279  31.716  11.268  1.00  0.00    -0.351 OA
BRANCH  28  29
HETATM   29  C12 UNL     1      10.835  31.898  11.405  1.00  0.00     0.181 C 
BRANCH  29  30
HETATM   30  C11 UNL     1      10.670  32.542  12.813  1.00  0.00     0.086 C 
BRANCH  30  31
HETATM   31  C10 UNL     1      10.542  34.039  12.511  1.00  0.00     0.043 A 
HETATM   32  C2  UNL     1       9.340  34.672  12.209  1.00  0.00     0.074 A 
HETATM   33  C1  UNL     1       8.010  33.989  12.371  1.00  0.00     0.079 C 
HETATM   34  O1  UNL     1       9.625  35.860  11.813  1.00  0.00    -0.296 OA
HETATM   35  C3  UNL     1      10.907  36.092  11.819  1.00  0.00     0.158 A 
HETATM   36  N1  UNL     1      11.480  34.947  12.264  1.00  0.00    -0.337 N 
ATOM     37  H1  UNL     1      12.483  34.803  12.391  1.00  0.00     0.168 HD
BRANCH  35  38
HETATM   38  C4  UNL     1      11.606  37.326  11.420  1.00  0.00     0.015 A 
HETATM   39  C5  UNL     1      12.883  37.298  10.888  1.00  0.00     0.016 A 
HETATM   40  C6  UNL     1      13.514  38.487  10.500  1.00  0.00     0.001 A 
HETATM   41  C7  UNL     1      12.866  39.712  10.642  1.00  0.00     0.000 A 
HETATM   42  C8  UNL     1      11.605  39.741  11.167  1.00  0.00     0.001 A 
HETATM   43  C9  UNL     1      11.030  38.572  11.530  1.00  0.00     0.016 A 
ENDBRANCH  35  38
ENDBRANCH  30  31
ENDBRANCH  29  30
ENDBRANCH  28  29
ENDBRANCH   1  28
TORSDOF 12
ENDMDL
