MODEL 5
REMARK VINA RESULT: -12.831038986      1.318      1.754
REMARK  12 active torsions:
REMARK  status: ('A' for Active; 'I' for Inactive)
REMARK    1  A    between atoms: C3_4  and  C4_5 
REMARK    2  A    between atoms: C10_13  and  C11_14 
REMARK    3  A    between atoms: C11_14  and  C12_15 
REMARK    4  A    between atoms: C12_15  and  O2_16 
REMARK    5  A    between atoms: O2_16  and  C13_17 
REMARK    6  A    between atoms: C16_20  and  C17_21 
REMARK    7  A    between atoms: C17_21  and  C18_22 
REMARK    8  A    between atoms: C18_22  and  N2_23 
REMARK    9  A    between atoms: C18_22  and  C32_39 
REMARK   10  A    between atoms: N2_23  and  C19_25 
REMARK   11  A    between atoms: C24_30  and  C25_31 
REMARK   12  A    between atoms: C25_31  and  C26_33 
ROOT
HETATM    1  C13 UNL     1      11.882  30.535   9.737  1.00  0.00     0.068 A 
HETATM    2  C14 UNL     1      10.587  30.145   9.833  1.00  0.00     0.037 A 
HETATM    3  C15 UNL     1       9.862  30.436  10.992  1.00  0.00     0.010 A 
HETATM    4  C16 UNL     1      10.359  31.104  12.064  1.00  0.00    -0.056 A 
HETATM    5  C33 UNL     1      11.713  31.490  11.938  1.00  0.00     0.010 A 
HETATM    6  C34 UNL     1      12.443  31.194  10.775  1.00  0.00     0.037 A 
ENDROOT
BRANCH   4   7
HETATM    7  C17 UNL     1       9.604  31.731  13.123  1.00  0.00     0.074 C 
BRANCH   7   8
HETATM    8  C18 UNL     1       8.460  32.723  12.738  1.00  0.00     0.187 C 
BRANCH   8   9
HETATM    9  N2  UNL     1       9.064  33.903  12.277  1.00  0.00    -0.375 N 
ATOM     10  H2  UNL     1      10.081  33.981  12.288  1.00  0.00     0.160 HD
BRANCH   9  11
HETATM   11  C19 UNL     1       8.266  35.023  11.779  1.00  0.00     0.043 A 
HETATM   12  C20 UNL     1       6.902  34.797  11.578  1.00  0.00     0.030 A 
HETATM   13  C21 UNL     1       6.153  35.903  11.098  1.00  0.00     0.002 A 
HETATM   14  C22 UNL     1       6.703  37.106  10.844  1.00  0.00     0.001 A 
HETATM   15  C23 UNL     1       8.071  37.289  11.058  1.00  0.00     0.018 A 
HETATM   16  C24 UNL     1       8.874  36.242  11.532  1.00  0.00     0.041 A 
BRANCH  16  17
HETATM   17  C25 UNL     1      10.303  36.427  11.629  1.00  0.00     0.194 C 
HETATM   18  O3  UNL     1      11.114  35.567  12.020  1.00  0.00    -0.287 OA
BRANCH  17  19
HETATM   19  C26 UNL     1      10.906  37.717  11.223  1.00  0.00     0.015 A 
HETATM   20  C27 UNL     1      11.685  37.703  10.051  1.00  0.00     0.015 A 
HETATM   21  C28 UNL     1      12.311  38.799   9.526  1.00  0.00     0.001 A 
HETATM   22  C29 UNL     1      12.169  40.014  10.208  1.00  0.00     0.000 A 
HETATM   23  C30 UNL     1      11.427  40.066  11.350  1.00  0.00     0.001 A 
HETATM   24  C31 UNL     1      10.797  38.914  11.856  1.00  0.00     0.015 A 
ENDBRANCH  17  19
ENDBRANCH  16  17
ENDBRANCH   9  11
ENDBRANCH   8   9
BRANCH   8  25
HETATM   25  C32 UNL     1       7.482  32.533  13.764  1.00  0.00     0.197 C 
HETATM   26  O4  UNL     1       7.830  32.647  15.022  1.00  0.00    -0.646 OA
HETATM   27  O5  UNL     1       6.107  32.235  13.737  1.00  0.00    -0.646 OA
ENDBRANCH   8  25
ENDBRANCH   7   8
ENDBRANCH   4   7
BRANCH   1  28
HETATM   28  O2  UNL     1      12.603  30.249   8.518  1.00  0.00    -0.351 OA
BRANCH  28  29
HETATM   29  C12 UNL     1      12.570  28.817   8.228  1.00  0.00     0.181 C 
BRANCH  29  30
HETATM   30  C11 UNL     1      13.622  28.639   7.095  1.00  0.00     0.086 C 
BRANCH  30  31
HETATM   31  C10 UNL     1      13.096  29.538   5.971  1.00  0.00     0.043 A 
HETATM   32  C2  UNL     1      12.551  29.061   4.783  1.00  0.00     0.074 A 
HETATM   33  C1  UNL     1      12.217  27.608   4.579  1.00  0.00     0.079 C 
HETATM   34  O1  UNL     1      12.411  30.066   3.997  1.00  0.00    -0.296 OA
HETATM   35  C3  UNL     1      12.808  31.182   4.543  1.00  0.00     0.158 A 
HETATM   36  N1  UNL     1      13.233  30.846   5.785  1.00  0.00    -0.337 N 
ATOM     37  H1  UNL     1      13.602  31.501   6.475  1.00  0.00     0.168 HD
BRANCH  35  38
HETATM   38  C4  UNL     1      12.814  32.529   3.946  1.00  0.00     0.015 A 
HETATM   39  C5  UNL     1      13.195  33.643   4.673  1.00  0.00     0.016 A 
HETATM   40  C6  UNL     1      13.208  34.909   4.072  1.00  0.00     0.001 A 
HETATM   41  C7  UNL     1      12.840  35.064   2.738  1.00  0.00     0.000 A 
HETATM   42  C8  UNL     1      12.463  33.965   2.019  1.00  0.00     0.001 A 
HETATM   43  C9  UNL     1      12.463  32.760   2.635  1.00  0.00     0.016 A 
ENDBRANCH  35  38
ENDBRANCH  30  31
ENDBRANCH  29  30
ENDBRANCH  28  29
ENDBRANCH   1  28
TORSDOF 12
ENDMDL
