MODEL 9
REMARK VINA RESULT: -12.250175497      2.069      2.710
REMARK  12 active torsions:
REMARK  status: ('A' for Active; 'I' for Inactive)
REMARK    1  A    between atoms: C3_4  and  C4_5 
REMARK    2  A    between atoms: C10_13  and  C11_14 
REMARK    3  A    between atoms: C11_14  and  C12_15 
REMARK    4  A    between atoms: C12_15  and  O2_16 
REMARK    5  A    between atoms: O2_16  and  C13_17 
REMARK    6  A    between atoms: C16_20  and  C17_21 
REMARK    7  A    between atoms: C17_21  and  C18_22 
REMARK    8  A    between atoms: C18_22  and  N2_23 
REMARK    9  A    between atoms: C18_22  and  C32_39 
REMARK   10  A    between atoms: N2_23  and  C19_25 
REMARK   11  A    between atoms: C24_30  and  C25_31 
REMARK   12  A    between atoms: C25_31  and  C26_33 
ROOT
HETATM    1  C13 UNL     1      12.041  30.420   9.080  1.00  0.00     0.068 A 
HETATM    2  C14 UNL     1      10.711  30.263   9.293  1.00  0.00     0.037 A 
HETATM    3  C15 UNL     1      10.172  30.571  10.545  1.00  0.00     0.010 A 
HETATM    4  C16 UNL     1      10.889  31.035  11.599  1.00  0.00    -0.056 A 
HETATM    5  C33 UNL     1      12.273  31.179  11.350  1.00  0.00     0.010 A 
HETATM    6  C34 UNL     1      12.816  30.865  10.094  1.00  0.00     0.037 A 
ENDROOT
BRANCH   4   7
HETATM    7  C17 UNL     1      10.374  31.687  12.781  1.00  0.00     0.074 C 
BRANCH   7   8
HETATM    8  C18 UNL     1       9.094  32.572  12.647  1.00  0.00     0.187 C 
BRANCH   8   9
HETATM    9  N2  UNL     1       9.515  33.901  12.483  1.00  0.00    -0.375 N 
ATOM     10  H2  UNL     1      10.463  34.160  12.754  1.00  0.00     0.160 HD
BRANCH   9  11
HETATM   11  C19 UNL     1       8.624  34.921  11.932  1.00  0.00     0.043 A 
HETATM   12  C20 UNL     1       7.280  34.576  11.772  1.00  0.00     0.030 A 
HETATM   13  C21 UNL     1       6.438  35.587  11.237  1.00  0.00     0.002 A 
HETATM   14  C22 UNL     1       6.888  36.810  10.897  1.00  0.00     0.001 A 
HETATM   15  C23 UNL     1       8.239  37.113  11.073  1.00  0.00     0.018 A 
HETATM   16  C24 UNL     1       9.130  36.164  11.597  1.00  0.00     0.041 A 
BRANCH  16  17
HETATM   17  C25 UNL     1      10.541  36.467  11.653  1.00  0.00     0.194 C 
HETATM   18  O3  UNL     1      11.429  35.679  12.030  1.00  0.00    -0.287 OA
BRANCH  17  19
HETATM   19  C26 UNL     1      11.026  37.797  11.220  1.00  0.00     0.015 A 
HETATM   20  C27 UNL     1      11.770  37.834  10.027  1.00  0.00     0.015 A 
HETATM   21  C28 UNL     1      12.291  38.972   9.475  1.00  0.00     0.001 A 
HETATM   22  C29 UNL     1      12.069  40.178  10.152  1.00  0.00     0.000 A 
HETATM   23  C30 UNL     1      11.358  40.181  11.313  1.00  0.00     0.001 A 
HETATM   24  C31 UNL     1      10.838  38.987  11.847  1.00  0.00     0.015 A 
ENDBRANCH  17  19
ENDBRANCH  16  17
ENDBRANCH   9  11
ENDBRANCH   8   9
BRANCH   8  25
HETATM   25  C32 UNL     1       8.186  32.008  13.597  1.00  0.00     0.197 C 
HETATM   26  O4  UNL     1       7.832  32.703  14.649  1.00  0.00    -0.646 OA
HETATM   27  O5  UNL     1       7.515  30.773  13.668  1.00  0.00    -0.646 OA
ENDBRANCH   8  25
ENDBRANCH   7   8
ENDBRANCH   4   7
BRANCH   1  28
HETATM   28  O2  UNL     1      12.572  30.123   7.769  1.00  0.00    -0.351 OA
BRANCH  28  29
HETATM   29  C12 UNL     1      12.116  31.112   6.795  1.00  0.00     0.181 C 
BRANCH  29  30
HETATM   30  C11 UNL     1      12.772  30.655   5.460  1.00  0.00     0.086 C 
BRANCH  30  31
HETATM   31  C10 UNL     1      13.210  31.970   4.806  1.00  0.00     0.043 A 
HETATM   32  C2  UNL     1      14.073  32.886   5.400  1.00  0.00     0.074 A 
HETATM   33  C1  UNL     1      14.842  32.567   6.654  1.00  0.00     0.079 C 
HETATM   34  O1  UNL     1      14.057  33.948   4.679  1.00  0.00    -0.296 OA
HETATM   35  C3  UNL     1      13.264  33.838   3.650  1.00  0.00     0.158 A 
HETATM   36  N1  UNL     1      12.738  32.591   3.730  1.00  0.00    -0.337 N 
ATOM     37  H1  UNL     1      12.078  32.190   3.064  1.00  0.00     0.168 HD
BRANCH  35  38
HETATM   38  C4  UNL     1      12.978  34.847   2.616  1.00  0.00     0.015 A 
HETATM   39  C5  UNL     1      12.031  34.630   1.631  1.00  0.00     0.016 A 
HETATM   40  C6  UNL     1      11.768  35.617   0.672  1.00  0.00     0.001 A 
HETATM   41  C7  UNL     1      12.452  36.829   0.697  1.00  0.00     0.000 A 
HETATM   42  C8  UNL     1      13.388  37.046   1.669  1.00  0.00     0.001 A 
HETATM   43  C9  UNL     1      13.614  36.068   2.576  1.00  0.00     0.016 A 
ENDBRANCH  35  38
ENDBRANCH  30  31
ENDBRANCH  29  30
ENDBRANCH  28  29
ENDBRANCH   1  28
TORSDOF 12
ENDMDL
