MODEL 11
REMARK VINA RESULT: -11.727073958      1.639      9.951
REMARK  12 active torsions:
REMARK  status: ('A' for Active; 'I' for Inactive)
REMARK    1  A    between atoms: C3_4  and  C4_5 
REMARK    2  A    between atoms: C10_13  and  C11_14 
REMARK    3  A    between atoms: C11_14  and  C12_15 
REMARK    4  A    between atoms: C12_15  and  O2_16 
REMARK    5  A    between atoms: O2_16  and  C13_17 
REMARK    6  A    between atoms: C16_20  and  C17_21 
REMARK    7  A    between atoms: C17_21  and  C18_22 
REMARK    8  A    between atoms: C18_22  and  N2_23 
REMARK    9  A    between atoms: C18_22  and  C32_39 
REMARK   10  A    between atoms: N2_23  and  C19_25 
REMARK   11  A    between atoms: C24_30  and  C25_31 
REMARK   12  A    between atoms: C25_31  and  C26_33 
ROOT
HETATM    1  C13 UNL     1      10.774  31.949  11.808  1.00  0.00     0.068 A 
HETATM    2  C14 UNL     1      12.047  32.149  11.386  1.00  0.00     0.037 A 
HETATM    3  C15 UNL     1      12.543  31.405  10.311  1.00  0.00     0.010 A 
HETATM    4  C16 UNL     1      11.832  30.473   9.627  1.00  0.00    -0.056 A 
HETATM    5  C33 UNL     1      10.513  30.280  10.096  1.00  0.00     0.010 A 
HETATM    6  C34 UNL     1      10.015  31.024  11.179  1.00  0.00     0.037 A 
ENDROOT
BRANCH   4   7
HETATM    7  C17 UNL     1      12.143  29.925   8.327  1.00  0.00     0.074 C 
BRANCH   7   8
HETATM    8  C18 UNL     1      12.911  30.822   7.304  1.00  0.00     0.187 C 
BRANCH   8   9
HETATM    9  N2  UNL     1      12.083  30.986   6.183  1.00  0.00    -0.375 N 
ATOM     10  H2  UNL     1      11.204  30.472   6.132  1.00  0.00     0.160 HD
BRANCH   9  11
HETATM   11  C19 UNL     1      12.455  31.878   5.085  1.00  0.00     0.043 A 
HETATM   12  C20 UNL     1      13.075  33.083   5.424  1.00  0.00     0.030 A 
HETATM   13  C21 UNL     1      13.426  33.928   4.338  1.00  0.00     0.002 A 
HETATM   14  C22 UNL     1      13.185  33.607   3.053  1.00  0.00     0.001 A 
HETATM   15  C23 UNL     1      12.563  32.392   2.759  1.00  0.00     0.018 A 
HETATM   16  C24 UNL     1      12.188  31.507   3.780  1.00  0.00     0.041 A 
BRANCH  16  17
HETATM   17  C25 UNL     1      11.440  30.315   3.451  1.00  0.00     0.194 C 
HETATM   18  O3  UNL     1      11.613  29.194   3.964  1.00  0.00    -0.287 OA
BRANCH  17  19
HETATM   19  C26 UNL     1      10.354  30.384   2.447  1.00  0.00     0.015 A 
HETATM   20  C27 UNL     1       9.983  29.169   1.842  1.00  0.00     0.015 A 
HETATM   21  C28 UNL     1       9.001  29.042   0.900  1.00  0.00     0.001 A 
HETATM   22  C29 UNL     1       8.326  30.206   0.510  1.00  0.00     0.000 A 
HETATM   23  C30 UNL     1       8.661  31.402   1.068  1.00  0.00     0.001 A 
HETATM   24  C31 UNL     1       9.678  31.488   2.037  1.00  0.00     0.015 A 
ENDBRANCH  17  19
ENDBRANCH  16  17
ENDBRANCH   9  11
ENDBRANCH   8   9
BRANCH   8  25
HETATM   25  C32 UNL     1      14.261  30.358   7.389  1.00  0.00     0.197 C 
HETATM   26  O4  UNL     1      14.562  29.155   6.966  1.00  0.00    -0.646 OA
HETATM   27  O5  UNL     1      15.452  30.947   7.853  1.00  0.00    -0.646 OA
ENDBRANCH   8  25
ENDBRANCH   7   8
ENDBRANCH   4   7
BRANCH   1  28
HETATM   28  O2  UNL     1      10.273  32.750  12.902  1.00  0.00    -0.351 OA
BRANCH  28  29
HETATM   29  C12 UNL     1       8.840  32.527  13.084  1.00  0.00     0.181 C 
BRANCH  29  30
HETATM   30  C11 UNL     1       8.184  33.346  11.934  1.00  0.00     0.086 C 
BRANCH  30  31
HETATM   31  C10 UNL     1       8.681  34.774  12.181  1.00  0.00     0.043 A 
HETATM   32  C2  UNL     1       7.925  35.766  12.800  1.00  0.00     0.074 A 
HETATM   33  C1  UNL     1       6.622  35.468  13.492  1.00  0.00     0.079 C 
HETATM   34  O1  UNL     1       8.558  36.873  12.655  1.00  0.00    -0.296 OA
HETATM   35  C3  UNL     1       9.673  36.726  11.998  1.00  0.00     0.158 A 
HETATM   36  N1  UNL     1       9.750  35.404  11.707  1.00  0.00    -0.337 N 
ATOM     37  H1  UNL     1      10.515  34.959  11.198  1.00  0.00     0.168 HD
BRANCH  35  38
HETATM   38  C4  UNL     1      10.651  37.765  11.629  1.00  0.00     0.015 A 
HETATM   39  C5  UNL     1      10.401  39.108  11.848  1.00  0.00     0.016 A 
HETATM   40  C6  UNL     1      11.358  40.072  11.503  1.00  0.00     0.001 A 
HETATM   41  C7  UNL     1      12.573  39.692  10.939  1.00  0.00     0.000 A 
HETATM   42  C8  UNL     1      12.822  38.366  10.722  1.00  0.00     0.001 A 
HETATM   43  C9  UNL     1      11.872  37.467  11.067  1.00  0.00     0.016 A 
ENDBRANCH  35  38
ENDBRANCH  30  31
ENDBRANCH  29  30
ENDBRANCH  28  29
ENDBRANCH   1  28
TORSDOF 12
ENDMDL
