MODEL 1
REMARK VINA RESULT: -10.724379628      0.000      0.000
REMARK  9 active torsions:
REMARK  status: ('A' for Active; 'I' for Inactive)
REMARK       I    between atoms: C1_2  and  N1_3 
REMARK    1  A    between atoms: C1_2  and  C22_33 
REMARK    2  A    between atoms: N1_3  and  C2_5 
REMARK    3  A    between atoms: C7_13  and  O2_14 
REMARK    4  A    between atoms: O2_14  and  C8_15 
REMARK    5  A    between atoms: C8_15  and  C9_17 
REMARK    6  A    between atoms: C12_20  and  C13_21 
REMARK    7  A    between atoms: C13_21  and  C14_23 
REMARK    8  A    between atoms: C19_28  and  O5_29 
REMARK    9  A    between atoms: C25_36  and  O6_37 
ROOT
HETATM    1  C2  UNL     1       4.590  44.869  15.660  1.00  0.00     0.140 C 
HETATM    2  C3  UNL     1       5.707  45.760  16.099  1.00  0.00     0.259 C 
HETATM    3  N2  UNL     1       6.641  46.046  15.021  1.00  0.00    -0.073 N 
ATOM      4  H21 UNL     1       7.005  45.184  14.616  1.00  0.00     0.277 HD
ATOM      5  H22 UNL     1       7.509  46.438  15.385  1.00  0.00     0.277 HD
HETATM    6  C4  UNL     1       6.085  46.887  14.012  1.00  0.00     0.232 C 
HETATM    7  C5  UNL     1       5.592  46.095  12.818  1.00  0.00     0.030 C 
HETATM    8  C6  UNL     1       4.711  44.954  13.151  1.00  0.00     0.036 C 
HETATM    9  C7  UNL     1       5.002  44.202  14.378  1.00  0.00     0.156 C 
ENDROOT
BRANCH   9  10
HETATM   10  O2  UNL     1       6.389  43.933  14.464  1.00  0.00    -0.310 OA
BRANCH  10  11
HETATM   11  C8  UNL     1       6.966  42.735  14.069  1.00  0.00     0.293 C 
HETATM   12  O3  UNL     1       7.184  42.608  12.838  1.00  0.00    -0.259 OA
BRANCH  11  13
HETATM   13  C9  UNL     1       7.301  41.680  15.030  1.00  0.00     0.039 A 
HETATM   14  C10 UNL     1       8.214  40.713  14.706  1.00  0.00     0.018 A 
HETATM   15  C11 UNL     1       8.513  39.715  15.642  1.00  0.00     0.016 A 
HETATM   16  C12 UNL     1       7.941  39.644  16.874  1.00  0.00     0.015 A 
HETATM   17  C20 UNL     1       7.011  40.639  17.188  1.00  0.00     0.016 A 
HETATM   18  C21 UNL     1       6.706  41.635  16.269  1.00  0.00     0.018 A 
BRANCH  16  19
HETATM   19  C13 UNL     1       8.189  38.600  17.845  1.00  0.00     0.195 C 
HETATM   20  O4  UNL     1       7.255  37.756  18.111  1.00  0.00    -0.287 OA
BRANCH  19  21
HETATM   21  C14 UNL     1       9.427  38.405  18.570  1.00  0.00     0.048 A 
HETATM   22  C15 UNL     1      10.547  37.856  17.990  1.00  0.00     0.018 A 
HETATM   23  C16 UNL     1      11.717  37.633  18.739  1.00  0.00     0.001 A 
HETATM   24  C17 UNL     1      11.790  37.951  20.073  1.00  0.00     0.003 A 
HETATM   25  C18 UNL     1      10.663  38.499  20.645  1.00  0.00     0.037 A 
HETATM   26  C19 UNL     1       9.510  38.725  19.929  1.00  0.00     0.079 A 
BRANCH  26  27
HETATM   27  O5  UNL     1       8.376  39.279  20.512  1.00  0.00    -0.360 OA
ATOM     28  H5  UNL     1       7.826  38.693  21.018  1.00  0.00     0.217 HD
ENDBRANCH  26  27
ENDBRANCH  19  21
ENDBRANCH  16  19
ENDBRANCH  11  13
ENDBRANCH  10  11
ENDBRANCH   9  10
BRANCH   1  29
HETATM   29  N1  UNL     1       3.340  45.571  15.559  1.00  0.00    -0.348 N 
HETATM   30  C1  UNL     1       2.108  44.894  15.427  1.00  0.00     0.252 C 
HETATM   31  O1  UNL     1       2.041  43.621  15.395  1.00  0.00    -0.268 OA
ATOM     32  H1  UNL     1       3.343  46.591  15.582  1.00  0.00     0.163 HD
BRANCH  30  33
HETATM   33  C22 UNL     1       0.885  45.669  15.328  1.00  0.00     0.032 A 
HETATM   34  C23 UNL     1      -0.338  45.296  15.834  1.00  0.00     0.020 A 
HETATM   35  C24 UNL     1      -1.481  46.094  15.695  1.00  0.00     0.037 A 
HETATM   36  C25 UNL     1      -1.416  47.300  15.034  1.00  0.00     0.065 A 
HETATM   37  C26 UNL     1      -0.197  47.686  14.523  1.00  0.00     0.037 A 
HETATM   38  C27 UNL     1       0.929  46.899  14.661  1.00  0.00     0.020 A 
BRANCH  36  39
HETATM   39  O6  UNL     1      -2.544  48.104  14.889  1.00  0.00    -0.361 OA
ATOM     40  H6  UNL     1      -2.702  48.839  15.469  1.00  0.00     0.217 HD
ENDBRANCH  36  39
ENDBRANCH  30  33
ENDBRANCH   1  29
TORSDOF 9
ENDMDL
