MODEL 3
REMARK VINA RESULT: -9.934732958      1.388      2.034
REMARK  9 active torsions:
REMARK  status: ('A' for Active; 'I' for Inactive)
REMARK       I    between atoms: C1_2  and  N1_3 
REMARK    1  A    between atoms: C1_2  and  C22_33 
REMARK    2  A    between atoms: N1_3  and  C2_5 
REMARK    3  A    between atoms: C7_13  and  O2_14 
REMARK    4  A    between atoms: O2_14  and  C8_15 
REMARK    5  A    between atoms: C8_15  and  C9_17 
REMARK    6  A    between atoms: C12_20  and  C13_21 
REMARK    7  A    between atoms: C13_21  and  C14_23 
REMARK    8  A    between atoms: C19_28  and  O5_29 
REMARK    9  A    between atoms: C25_36  and  O6_37 
ROOT
HETATM    1  C2  UNL     1       4.588  44.756  15.563  1.00  0.00     0.140 C 
HETATM    2  C3  UNL     1       5.704  45.602  16.086  1.00  0.00     0.259 C 
HETATM    3  N2  UNL     1       6.662  45.953  15.050  1.00  0.00    -0.073 N 
ATOM      4  H21 UNL     1       7.027  45.118  14.593  1.00  0.00     0.277 HD
ATOM      5  H22 UNL     1       7.526  46.310  15.458  1.00  0.00     0.277 HD
HETATM    6  C4  UNL     1       6.135  46.869  14.091  1.00  0.00     0.232 C 
HETATM    7  C5  UNL     1       5.660  46.167  12.835  1.00  0.00     0.030 C 
HETATM    8  C6  UNL     1       4.762  45.015  13.069  1.00  0.00     0.036 C 
HETATM    9  C7  UNL     1       5.021  44.176  14.246  1.00  0.00     0.156 C 
ENDROOT
BRANCH   9  10
HETATM   10  O2  UNL     1       6.403  43.888  14.341  1.00  0.00    -0.310 OA
BRANCH  10  11
HETATM   11  C8  UNL     1       6.950  42.643  14.062  1.00  0.00     0.293 C 
HETATM   12  O3  UNL     1       7.130  42.380  12.847  1.00  0.00    -0.259 OA
BRANCH  11  13
HETATM   13  C9  UNL     1       7.297  41.692  15.123  1.00  0.00     0.039 A 
HETATM   14  C10 UNL     1       8.184  40.678  14.879  1.00  0.00     0.018 A 
HETATM   15  C11 UNL     1       8.495  39.781  15.909  1.00  0.00     0.016 A 
HETATM   16  C12 UNL     1       7.961  39.855  17.157  1.00  0.00     0.015 A 
HETATM   17  C20 UNL     1       7.058  40.897  17.388  1.00  0.00     0.016 A 
HETATM   18  C21 UNL     1       6.741  41.794  16.376  1.00  0.00     0.018 A 
BRANCH  16  19
HETATM   19  C13 UNL     1       8.222  38.918  18.229  1.00  0.00     0.195 C 
HETATM   20  O4  UNL     1       9.411  38.835  18.713  1.00  0.00    -0.287 OA
BRANCH  19  21
HETATM   21  C14 UNL     1       7.244  38.036  18.831  1.00  0.00     0.048 A 
HETATM   22  C15 UNL     1       6.759  36.920  18.190  1.00  0.00     0.018 A 
HETATM   23  C16 UNL     1       5.771  36.114  18.785  1.00  0.00     0.001 A 
HETATM   24  C17 UNL     1       5.249  36.408  20.021  1.00  0.00     0.003 A 
HETATM   25  C18 UNL     1       5.740  37.529  20.654  1.00  0.00     0.037 A 
HETATM   26  C19 UNL     1       6.707  38.328  20.089  1.00  0.00     0.079 A 
BRANCH  26  27
HETATM   27  O5  UNL     1       7.199  39.458  20.733  1.00  0.00    -0.360 OA
ATOM     28  H5  UNL     1       6.966  39.564  21.648  1.00  0.00     0.217 HD
ENDBRANCH  26  27
ENDBRANCH  19  21
ENDBRANCH  16  19
ENDBRANCH  11  13
ENDBRANCH  10  11
ENDBRANCH   9  10
BRANCH   1  29
HETATM   29  N1  UNL     1       3.347  45.476  15.486  1.00  0.00    -0.348 N 
HETATM   30  C1  UNL     1       2.101  44.817  15.408  1.00  0.00     0.252 C 
HETATM   31  O1  UNL     1       2.013  43.544  15.405  1.00  0.00    -0.268 OA
ATOM     32  H1  UNL     1       3.367  46.496  15.488  1.00  0.00     0.163 HD
BRANCH  30  33
HETATM   33  C22 UNL     1       0.887  45.610  15.331  1.00  0.00     0.032 A 
HETATM   34  C23 UNL     1      -0.336  45.245  15.841  1.00  0.00     0.020 A 
HETATM   35  C24 UNL     1      -1.469  46.060  15.723  1.00  0.00     0.037 A 
HETATM   36  C25 UNL     1      -1.393  47.276  15.081  1.00  0.00     0.065 A 
HETATM   37  C26 UNL     1      -0.173  47.653  14.566  1.00  0.00     0.037 A 
HETATM   38  C27 UNL     1       0.943  46.849  14.682  1.00  0.00     0.020 A 
BRANCH  36  39
HETATM   39  O6  UNL     1      -2.512  48.096  14.957  1.00  0.00    -0.361 OA
ATOM     40  H6  UNL     1      -2.739  48.723  15.634  1.00  0.00     0.217 HD
ENDBRANCH  36  39
ENDBRANCH  30  33
ENDBRANCH   1  29
TORSDOF 9
ENDMDL
