MODEL 2
REMARK VINA RESULT: -10.480858255      1.623      2.173
REMARK  9 active torsions:
REMARK  status: ('A' for Active; 'I' for Inactive)
REMARK       I    between atoms: C1_2  and  N1_3 
REMARK    1  A    between atoms: C1_2  and  C22_33 
REMARK    2  A    between atoms: N1_3  and  C2_5 
REMARK    3  A    between atoms: C7_13  and  O2_14 
REMARK    4  A    between atoms: O2_14  and  C8_15 
REMARK    5  A    between atoms: C8_15  and  C9_17 
REMARK    6  A    between atoms: C12_20  and  C13_21 
REMARK    7  A    between atoms: C13_21  and  C14_23 
REMARK    8  A    between atoms: C19_28  and  O5_29 
REMARK    9  A    between atoms: C25_36  and  O6_37 
ROOT
HETATM    1  C2  UNL     1       4.205  43.638  16.026  1.00  0.00     0.140 C 
HETATM    2  C3  UNL     1       4.790  44.194  17.284  1.00  0.00     0.259 C 
HETATM    3  N2  UNL     1       6.087  44.815  17.061  1.00  0.00    -0.073 N 
ATOM      4  H21 UNL     1       6.733  44.161  16.620  1.00  0.00     0.277 HD
ATOM      5  H22 UNL     1       6.577  44.963  17.944  1.00  0.00     0.277 HD
HETATM    6  C4  UNL     1       6.002  46.028  16.315  1.00  0.00     0.232 C 
HETATM    7  C5  UNL     1       6.314  45.816  14.848  1.00  0.00     0.030 C 
HETATM    8  C6  UNL     1       5.573  44.707  14.209  1.00  0.00     0.036 C 
HETATM    9  C7  UNL     1       5.309  43.509  15.015  1.00  0.00     0.156 C 
ENDROOT
BRANCH   9  10
HETATM   10  O2  UNL     1       6.480  43.125  15.711  1.00  0.00    -0.310 OA
BRANCH  10  11
HETATM   11  C8  UNL     1       7.228  41.998  15.395  1.00  0.00     0.293 C 
HETATM   12  O3  UNL     1       7.200  41.638  14.192  1.00  0.00    -0.259 OA
BRANCH  11  13
HETATM   13  C9  UNL     1       8.003  41.273  16.407  1.00  0.00     0.039 A 
HETATM   14  C10 UNL     1       7.852  39.921  16.555  1.00  0.00     0.018 A 
HETATM   15  C11 UNL     1       8.602  39.253  17.531  1.00  0.00     0.016 A 
HETATM   16  C12 UNL     1       9.485  39.876  18.357  1.00  0.00     0.015 A 
HETATM   17  C20 UNL     1       9.626  41.256  18.192  1.00  0.00     0.016 A 
HETATM   18  C21 UNL     1       8.889  41.931  17.227  1.00  0.00     0.018 A 
BRANCH  16  19
HETATM   19  C13 UNL     1      10.239  39.225  19.408  1.00  0.00     0.195 C 
HETATM   20  O4  UNL     1       9.623  38.821  20.463  1.00  0.00    -0.287 OA
BRANCH  19  21
HETATM   21  C14 UNL     1      11.665  38.975  19.387  1.00  0.00     0.048 A 
HETATM   22  C15 UNL     1      12.592  39.949  19.674  1.00  0.00     0.018 A 
HETATM   23  C16 UNL     1      13.971  39.684  19.594  1.00  0.00     0.001 A 
HETATM   24  C17 UNL     1      14.448  38.450  19.226  1.00  0.00     0.003 A 
HETATM   25  C18 UNL     1      13.511  37.481  18.939  1.00  0.00     0.037 A 
HETATM   26  C19 UNL     1      12.158  37.721  19.013  1.00  0.00     0.079 A 
BRANCH  26  27
HETATM   27  O5  UNL     1      11.218  36.739  18.722  1.00  0.00    -0.360 OA
ATOM     28  H5  UNL     1      11.527  35.978  18.245  1.00  0.00     0.217 HD
ENDBRANCH  26  27
ENDBRANCH  19  21
ENDBRANCH  16  19
ENDBRANCH  11  13
ENDBRANCH  10  11
ENDBRANCH   9  10
BRANCH   1  29
HETATM   29  N1  UNL     1       3.091  44.414  15.554  1.00  0.00    -0.348 N 
HETATM   30  C1  UNL     1       1.860  44.453  16.243  1.00  0.00     0.252 C 
HETATM   31  O1  UNL     1       1.674  43.803  17.325  1.00  0.00    -0.268 OA
ATOM     32  H1  UNL     1       3.193  44.953  14.694  1.00  0.00     0.163 HD
BRANCH  30  33
HETATM   33  C22 UNL     1       0.777  45.258  15.707  1.00  0.00     0.032 A 
HETATM   34  C23 UNL     1      -0.558  45.090  15.993  1.00  0.00     0.020 A 
HETATM   35  C24 UNL     1      -1.551  45.902  15.431  1.00  0.00     0.037 A 
HETATM   36  C25 UNL     1      -1.218  46.913  14.558  1.00  0.00     0.065 A 
HETATM   37  C26 UNL     1       0.115  47.092  14.264  1.00  0.00     0.037 A 
HETATM   38  C27 UNL     1       1.094  46.291  14.818  1.00  0.00     0.020 A 
BRANCH  36  39
HETATM   39  O6  UNL     1      -2.196  47.728  13.993  1.00  0.00    -0.361 OA
ATOM     40  H6  UNL     1      -1.999  48.290  13.252  1.00  0.00     0.217 HD
ENDBRANCH  36  39
ENDBRANCH  30  33
ENDBRANCH   1  29
TORSDOF 9
ENDMDL
