MODEL 1
REMARK VINA RESULT: -11.026139911      0.000      0.000
REMARK  13 active torsions:
REMARK  status: ('A' for Active; 'I' for Inactive)
REMARK    1  A    between atoms: N1_2  and  C3_4 
REMARK    2  A    between atoms: C8_9  and  S1_10 
REMARK    3  A    between atoms: S1_10  and  N2_13 
REMARK    4  A    between atoms: N2_13  and  C9_15 
REMARK    5  A    between atoms: C9_15  and  C10_16 
REMARK    6  A    between atoms: C10_16  and  C11_17 
REMARK    7  A    between atoms: C11_17  and  C12_18 
REMARK    8  A    between atoms: C12_18  and  C13_19 
REMARK    9  A    between atoms: C13_19  and  C14_20 
REMARK   10  A    between atoms: C14_20  and  C15_21 
REMARK   11  A    between atoms: C15_21  and  C16_22 
REMARK   12  A    between atoms: C16_22  and  N3_23 
REMARK       I    between atoms: N3_23  and  C17_25 
REMARK   13  A    between atoms: C17_25  and  C18_27 
ROOT
HETATM    1  C10 UNL     1      28.687  31.861  23.305  1.00  0.00     0.020 C 
ENDROOT
BRANCH   1   2
HETATM    2  C9  UNL     1      27.938  32.508  24.402  1.00  0.00     0.132 C 
BRANCH   2   3
HETATM    3  N2  UNL     1      27.389  33.742  23.846  1.00  0.00    -0.315 N 
ATOM      4  H2  UNL     1      27.964  34.418  23.344  1.00  0.00     0.172 HD
BRANCH   3   5
HETATM    5  S1  UNL     1      25.715  33.971  24.096  1.00  0.00     0.259 S 
HETATM    6  O1  UNL     1      25.103  32.599  24.313  1.00  0.00    -0.201 OA
HETATM    7  O2  UNL     1      25.525  34.733  25.404  1.00  0.00    -0.201 OA
BRANCH   5   8
HETATM    8  C8  UNL     1      24.960  34.841  22.800  1.00  0.00     0.090 A 
HETATM    9  C7  UNL     1      25.183  34.497  21.476  1.00  0.00    -0.000 A 
HETATM   10  C6  UNL     1      25.952  33.387  21.219  1.00  0.00     0.014 A 
HETATM   11  C31 UNL     1      24.669  35.237  20.416  1.00  0.00     0.002 A 
HETATM   12  C5  UNL     1      26.197  33.024  19.907  1.00  0.00     0.003 A 
HETATM   13  C4  UNL     1      25.692  33.761  18.875  1.00  0.00     0.030 A 
HETATM   14  C3  UNL     1      24.912  34.888  19.093  1.00  0.00     0.040 A 
HETATM   15  C30 UNL     1      23.906  36.362  20.674  1.00  0.00     0.014 A 
HETATM   16  C29 UNL     1      23.673  36.713  21.977  1.00  0.00     0.003 A 
HETATM   17  C28 UNL     1      24.190  35.972  23.026  1.00  0.00     0.026 A 
BRANCH  14  18
HETATM   18  N1  UNL     1      24.402  35.664  18.035  1.00  0.00    -0.389 N 
HETATM   19  C1  UNL     1      25.043  36.828  17.473  1.00  0.00     0.149 C 
HETATM   20  C2  UNL     1      23.108  35.277  17.433  1.00  0.00     0.149 C 
ENDBRANCH  14  18
ENDBRANCH   5   8
ENDBRANCH   3   5
ENDBRANCH   2   3
ENDBRANCH   1   2
BRANCH   1  21
HETATM   21  C11 UNL     1      28.242  30.608  22.699  1.00  0.00     0.002 C 
BRANCH  21  22
HETATM   22  C12 UNL     1      28.399  30.384  21.254  1.00  0.00     0.000 C 
BRANCH  22  23
HETATM   23  C13 UNL     1      29.467  30.950  20.448  1.00  0.00     0.000 C 
BRANCH  23  24
HETATM   24  C14 UNL     1      30.756  30.144  20.336  1.00  0.00     0.002 C 
BRANCH  24  25
HETATM   25  C15 UNL     1      31.805  30.757  21.255  1.00  0.00     0.020 C 
BRANCH  25  26
HETATM   26  C16 UNL     1      31.862  30.080  22.582  1.00  0.00     0.122 C 
BRANCH  26  27
HETATM   27  N3  UNL     1      31.423  28.688  22.433  1.00  0.00    -0.360 N 
HETATM   28  C17 UNL     1      30.997  27.904  23.522  1.00  0.00     0.226 C 
HETATM   29  O3  UNL     1      30.989  28.396  24.672  1.00  0.00    -0.273 OA
ATOM     30  H3  UNL     1      31.427  28.271  21.501  1.00  0.00     0.162 HD
BRANCH  28  31
HETATM   31  C18 UNL     1      30.557  26.511  23.322  1.00  0.00     0.042 C 
HETATM   32  C19 UNL     1      29.184  26.428  22.690  1.00  0.00     0.024 C 
HETATM   33  C20 UNL     1      28.826  24.983  22.473  1.00  0.00    -0.013 C 
HETATM   34  C21 UNL     1      28.767  24.265  23.809  1.00  0.00     0.009 C 
HETATM   35  C25 UNL     1      29.820  24.255  21.609  1.00  0.00     0.009 C 
HETATM   36  C22 UNL     1      30.135  24.354  24.442  1.00  0.00    -0.013 C 
HETATM   37  C23 UNL     1      31.195  23.718  23.591  1.00  0.00     0.009 C 
HETATM   38  C27 UNL     1      30.496  25.795  24.658  1.00  0.00     0.024 C 
HETATM   39  C24 UNL     1      31.180  24.396  22.227  1.00  0.00    -0.013 C 
HETATM   40  C26 UNL     1      31.507  25.857  22.371  1.00  0.00     0.024 C 
ENDBRANCH  28  31
ENDBRANCH  26  27
ENDBRANCH  25  26
ENDBRANCH  24  25
ENDBRANCH  23  24
ENDBRANCH  22  23
ENDBRANCH  21  22
ENDBRANCH   1  21
TORSDOF 13
ENDMDL
