MODEL 2
REMARK VINA RESULT: -11.013747889      0.082      1.183
REMARK  13 active torsions:
REMARK  status: ('A' for Active; 'I' for Inactive)
REMARK    1  A    between atoms: N1_2  and  C3_4 
REMARK    2  A    between atoms: C8_9  and  S1_10 
REMARK    3  A    between atoms: S1_10  and  N2_13 
REMARK    4  A    between atoms: N2_13  and  C9_15 
REMARK    5  A    between atoms: C9_15  and  C10_16 
REMARK    6  A    between atoms: C10_16  and  C11_17 
REMARK    7  A    between atoms: C11_17  and  C12_18 
REMARK    8  A    between atoms: C12_18  and  C13_19 
REMARK    9  A    between atoms: C13_19  and  C14_20 
REMARK   10  A    between atoms: C14_20  and  C15_21 
REMARK   11  A    between atoms: C15_21  and  C16_22 
REMARK   12  A    between atoms: C16_22  and  N3_23 
REMARK       I    between atoms: N3_23  and  C17_25 
REMARK   13  A    between atoms: C17_25  and  C18_27 
ROOT
HETATM    1  C10 UNL     1      28.704  31.854  23.305  1.00  0.00     0.020 C 
ENDROOT
BRANCH   1   2
HETATM    2  C9  UNL     1      27.964  32.498  24.411  1.00  0.00     0.132 C 
BRANCH   2   3
HETATM    3  N2  UNL     1      27.412  33.734  23.864  1.00  0.00    -0.315 N 
ATOM      4  H2  UNL     1      27.985  34.413  23.361  1.00  0.00     0.172 HD
BRANCH   3   5
HETATM    5  S1  UNL     1      25.739  33.962  24.124  1.00  0.00     0.259 S 
HETATM    6  O1  UNL     1      25.130  32.589  24.348  1.00  0.00    -0.201 OA
HETATM    7  O2  UNL     1      25.557  34.727  25.431  1.00  0.00    -0.201 OA
BRANCH   5   8
HETATM    8  C8  UNL     1      24.975  34.828  22.830  1.00  0.00     0.090 A 
HETATM    9  C7  UNL     1      25.190  34.480  21.506  1.00  0.00    -0.000 A 
HETATM   10  C6  UNL     1      25.956  33.370  21.247  1.00  0.00     0.014 A 
HETATM   11  C31 UNL     1      24.668  35.217  20.447  1.00  0.00     0.002 A 
HETATM   12  C5  UNL     1      26.192  33.003  19.934  1.00  0.00     0.003 A 
HETATM   13  C4  UNL     1      25.680  33.737  18.903  1.00  0.00     0.030 A 
HETATM   14  C3  UNL     1      24.901  34.864  19.124  1.00  0.00     0.040 A 
HETATM   15  C30 UNL     1      23.907  36.342  20.707  1.00  0.00     0.014 A 
HETATM   16  C29 UNL     1      23.683  36.698  22.010  1.00  0.00     0.003 A 
HETATM   17  C28 UNL     1      24.207  35.960  23.059  1.00  0.00     0.026 A 
BRANCH  14  18
HETATM   18  N1  UNL     1      24.384  35.636  18.066  1.00  0.00    -0.389 N 
HETATM   19  C1  UNL     1      25.027  36.792  17.489  1.00  0.00     0.149 C 
HETATM   20  C2  UNL     1      23.080  35.255  17.483  1.00  0.00     0.149 C 
ENDBRANCH  14  18
ENDBRANCH   5   8
ENDBRANCH   3   5
ENDBRANCH   2   3
ENDBRANCH   1   2
BRANCH   1  21
HETATM   21  C11 UNL     1      28.256  30.600  22.703  1.00  0.00     0.002 C 
BRANCH  21  22
HETATM   22  C12 UNL     1      28.382  30.386  21.253  1.00  0.00     0.000 C 
BRANCH  22  23
HETATM   23  C13 UNL     1      29.439  30.948  20.430  1.00  0.00     0.000 C 
BRANCH  23  24
HETATM   24  C14 UNL     1      30.719  30.133  20.289  1.00  0.00     0.002 C 
BRANCH  24  25
HETATM   25  C15 UNL     1      31.795  30.742  21.178  1.00  0.00     0.020 C 
BRANCH  25  26
HETATM   26  C16 UNL     1      31.840  30.110  22.529  1.00  0.00     0.122 C 
BRANCH  26  27
HETATM   27  N3  UNL     1      31.428  28.706  22.418  1.00  0.00    -0.360 N 
HETATM   28  C17 UNL     1      30.987  27.954  23.524  1.00  0.00     0.226 C 
HETATM   29  O3  UNL     1      30.942  28.486  24.655  1.00  0.00    -0.273 OA
ATOM     30  H3  UNL     1      31.463  28.256  21.503  1.00  0.00     0.162 HD
BRANCH  28  31
HETATM   31  C18 UNL     1      30.575  26.547  23.363  1.00  0.00     0.042 C 
HETATM   32  C19 UNL     1      30.467  25.827  24.689  1.00  0.00     0.024 C 
HETATM   33  C20 UNL     1      29.996  24.417  24.449  1.00  0.00    -0.013 C 
HETATM   34  C21 UNL     1      31.015  23.678  23.600  1.00  0.00     0.009 C 
HETATM   35  C25 UNL     1      28.674  24.353  23.733  1.00  0.00     0.009 C 
HETATM   36  C22 UNL     1      31.128  24.401  22.279  1.00  0.00    -0.013 C 
HETATM   37  C23 UNL     1      29.820  24.449  21.545  1.00  0.00     0.009 C 
HETATM   38  C27 UNL     1      31.595  25.808  22.517  1.00  0.00     0.024 C 
HETATM   39  C24 UNL     1      28.792  25.119  22.448  1.00  0.00    -0.013 C 
HETATM   40  C26 UNL     1      29.211  26.531  22.751  1.00  0.00     0.024 C 
ENDBRANCH  28  31
ENDBRANCH  26  27
ENDBRANCH  25  26
ENDBRANCH  24  25
ENDBRANCH  23  24
ENDBRANCH  22  23
ENDBRANCH  21  22
ENDBRANCH   1  21
TORSDOF 13
ENDMDL
