MODEL 3
REMARK VINA RESULT: -11.003865029      0.411      1.210
REMARK  13 active torsions:
REMARK  status: ('A' for Active; 'I' for Inactive)
REMARK    1  A    between atoms: N1_2  and  C3_4 
REMARK    2  A    between atoms: C8_9  and  S1_10 
REMARK    3  A    between atoms: S1_10  and  N2_13 
REMARK    4  A    between atoms: N2_13  and  C9_15 
REMARK    5  A    between atoms: C9_15  and  C10_16 
REMARK    6  A    between atoms: C10_16  and  C11_17 
REMARK    7  A    between atoms: C11_17  and  C12_18 
REMARK    8  A    between atoms: C12_18  and  C13_19 
REMARK    9  A    between atoms: C13_19  and  C14_20 
REMARK   10  A    between atoms: C14_20  and  C15_21 
REMARK   11  A    between atoms: C15_21  and  C16_22 
REMARK   12  A    between atoms: C16_22  and  N3_23 
REMARK       I    between atoms: N3_23  and  C17_25 
REMARK   13  A    between atoms: C17_25  and  C18_27 
ROOT
HETATM    1  C10 UNL     1      28.715  31.803  23.323  1.00  0.00     0.020 C 
ENDROOT
BRANCH   1   2
HETATM    2  C9  UNL     1      27.929  32.496  24.366  1.00  0.00     0.132 C 
BRANCH   2   3
HETATM    3  N2  UNL     1      27.402  33.705  23.739  1.00  0.00    -0.315 N 
ATOM      4  H2  UNL     1      27.989  34.344  23.203  1.00  0.00     0.172 HD
BRANCH   3   5
HETATM    5  S1  UNL     1      25.731  33.973  23.969  1.00  0.00     0.259 S 
HETATM    6  O1  UNL     1      25.097  32.625  24.259  1.00  0.00    -0.201 OA
HETATM    7  O2  UNL     1      25.548  34.810  25.231  1.00  0.00    -0.201 OA
BRANCH   5   8
HETATM    8  C8  UNL     1      24.994  34.781  22.623  1.00  0.00     0.090 A 
HETATM    9  C7  UNL     1      25.277  34.409  21.318  1.00  0.00    -0.000 A 
HETATM   10  C6  UNL     1      26.091  33.321  21.120  1.00  0.00     0.014 A 
HETATM   11  C31 UNL     1      24.777  35.102  20.219  1.00  0.00     0.002 A 
HETATM   12  C5  UNL     1      26.396  32.931  19.828  1.00  0.00     0.003 A 
HETATM   13  C4  UNL     1      25.904  33.622  18.758  1.00  0.00     0.030 A 
HETATM   14  C3  UNL     1      25.079  34.726  18.917  1.00  0.00     0.040 A 
HETATM   15  C30 UNL     1      23.967  36.207  20.419  1.00  0.00     0.014 A 
HETATM   16  C29 UNL     1      23.676  36.585  21.702  1.00  0.00     0.003 A 
HETATM   17  C28 UNL     1      24.178  35.891  22.790  1.00  0.00     0.026 A 
BRANCH  14  18
HETATM   18  N1  UNL     1      24.581  35.455  17.819  1.00  0.00    -0.389 N 
HETATM   19  C1  UNL     1      23.316  35.216  17.167  1.00  0.00     0.149 C 
HETATM   20  C2  UNL     1      25.399  36.559  17.273  1.00  0.00     0.149 C 
ENDBRANCH  14  18
ENDBRANCH   5   8
ENDBRANCH   3   5
ENDBRANCH   2   3
ENDBRANCH   1   2
BRANCH   1  21
HETATM   21  C11 UNL     1      28.327  30.491  22.808  1.00  0.00     0.002 C 
BRANCH  21  22
HETATM   22  C12 UNL     1      28.450  30.190  21.374  1.00  0.00     0.000 C 
BRANCH  22  23
HETATM   23  C13 UNL     1      29.452  30.771  20.497  1.00  0.00     0.000 C 
BRANCH  23  24
HETATM   24  C14 UNL     1      30.771  30.021  20.355  1.00  0.00     0.002 C 
BRANCH  24  25
HETATM   25  C15 UNL     1      31.838  30.733  21.176  1.00  0.00     0.020 C 
BRANCH  25  26
HETATM   26  C16 UNL     1      31.963  30.174  22.553  1.00  0.00     0.122 C 
BRANCH  26  27
HETATM   27  N3  UNL     1      31.635  28.743  22.523  1.00  0.00    -0.360 N 
HETATM   28  C17 UNL     1      31.138  28.054  23.646  1.00  0.00     0.226 C 
HETATM   29  O3  UNL     1      30.965  28.668  24.722  1.00  0.00    -0.273 OA
ATOM     30  H3  UNL     1      31.774  28.227  21.654  1.00  0.00     0.162 HD
BRANCH  28  31
HETATM   31  C18 UNL     1      30.815  26.617  23.566  1.00  0.00     0.042 C 
HETATM   32  C19 UNL     1      31.351  25.979  22.303  1.00  0.00     0.024 C 
HETATM   33  C20 UNL     1      31.028  24.509  22.316  1.00  0.00    -0.013 C 
HETATM   34  C21 UNL     1      29.521  24.319  22.330  1.00  0.00     0.009 C 
HETATM   35  C25 UNL     1      31.588  23.795  23.516  1.00  0.00     0.009 C 
HETATM   36  C22 UNL     1      28.986  24.962  23.587  1.00  0.00    -0.013 C 
HETATM   37  C23 UNL     1      29.569  24.352  24.828  1.00  0.00     0.009 C 
HETATM   38  C27 UNL     1      29.310  26.428  23.577  1.00  0.00     0.024 C 
HETATM   39  C24 UNL     1      31.086  24.478  24.754  1.00  0.00    -0.013 C 
HETATM   40  C26 UNL     1      31.483  25.928  24.713  1.00  0.00     0.024 C 
ENDBRANCH  28  31
ENDBRANCH  26  27
ENDBRANCH  25  26
ENDBRANCH  24  25
ENDBRANCH  23  24
ENDBRANCH  22  23
ENDBRANCH  21  22
ENDBRANCH   1  21
TORSDOF 13
ENDMDL
