MODEL 1
REMARK VINA RESULT: -9.903816583      0.000      0.000
REMARK  13 active torsions:
REMARK  status: ('A' for Active; 'I' for Inactive)
REMARK       I    between atoms: C1_4  and  N3_6 
REMARK    1  A    between atoms: C4_9  and  C5_10 
REMARK    2  A    between atoms: C5_10  and  C6_11 
REMARK    3  A    between atoms: C6_11  and  N4_12 
REMARK       I    between atoms: N4_12  and  C7_14 
REMARK    4  A    between atoms: C7_14  and  C8_16 
REMARK    5  A    between atoms: C13_21  and  O2_22 
REMARK       I    between atoms: N5_26  and  C16_27 
REMARK    6  A    between atoms: C16_27  and  C17_29 
REMARK    7  A    between atoms: C17_29  and  C18_30 
REMARK    8  A    between atoms: C17_29  and  N6_37 
REMARK    9  A    between atoms: C18_30  and  C19_31 
REMARK       I    between atoms: N6_37  and  C25_39 
REMARK   10  A    between atoms: C25_39  and  C26_41 
REMARK   11  A    between atoms: C26_41  and  O5_42 
REMARK   12  A    between atoms: C26_41  and  C27_44 
REMARK   13  A    between atoms: C27_44  and  C28_45 
ROOT
HETATM    1  C8  UNL     1      19.173 -16.586  24.609  1.00  0.00     0.180 C 
HETATM    2  C9  UNL     1      19.904 -16.235  25.853  1.00  0.00     0.041 C 
HETATM    3  C10 UNL     1      20.716 -15.028  25.532  1.00  0.00     0.011 C 
HETATM    4  C11 UNL     1      20.196 -13.836  26.315  1.00  0.00     0.009 C 
HETATM    5  C12 UNL     1      21.080 -12.624  26.093  1.00  0.00     0.032 C 
HETATM    6  C13 UNL     1      21.571 -12.706  24.676  1.00  0.00     0.120 C 
HETATM    7  C14 UNL     1      20.501 -13.366  23.775  1.00  0.00     0.057 C 
HETATM    8  C15 UNL     1      20.627 -14.846  24.050  1.00  0.00     0.095 C 
HETATM    9  N5  UNL     1      19.557 -15.659  23.583  1.00  0.00    -0.332 N 
HETATM   10  C16 UNL     1      18.923 -15.632  22.299  1.00  0.00     0.244 C 
HETATM   11  O3  UNL     1      17.991 -16.482  22.128  1.00  0.00    -0.271 OA
ENDROOT
BRANCH   1  12
HETATM   12  C7  UNL     1      17.702 -16.638  24.807  1.00  0.00     0.240 C 
HETATM   13  N4  UNL     1      16.982 -17.779  24.396  1.00  0.00    -0.359 N 
ATOM     14  H4  UNL     1      17.500 -18.556  23.987  1.00  0.00     0.162 HD
HETATM   15  O1  UNL     1      17.105 -15.686  25.322  1.00  0.00    -0.271 OA
BRANCH  13  16
HETATM   16  C6  UNL     1      15.547 -17.904  24.524  1.00  0.00     0.127 C 
BRANCH  16  17
HETATM   17  C5  UNL     1      14.844 -18.552  23.388  1.00  0.00     0.055 C 
BRANCH  17  18
HETATM   18  C4  UNL     1      14.239 -17.671  22.396  1.00  0.00    -0.063 A 
HETATM   19  C3  UNL     1      14.647 -16.408  22.165  1.00  0.00    -0.003 A 
HETATM   20  C2  UNL     1      13.822 -15.791  21.095  1.00  0.00     0.153 A 
HETATM   21  N3  UNL     1      12.937 -16.822  20.641  1.00  0.00    -0.349 N 
HETATM   22  C1  UNL     1      12.041 -16.740  19.571  1.00  0.00     0.184 C 
HETATM   23  C34 UNL     1      13.121 -17.977  21.481  1.00  0.00     0.159 A 
HETATM   24  N1  UNL     1      12.428 -16.778  18.339  1.00  0.00    -0.374 N 
HETATM   25  N2  UNL     1      10.652 -16.609  19.826  1.00  0.00    -0.064 NA
ATOM     26  H12 UNL     1      11.775 -16.717  17.558  1.00  0.00     0.158 HD
ATOM     27  H11 UNL     1      13.427 -16.872  18.155  1.00  0.00     0.158 HD
ENDBRANCH  17  18
ENDBRANCH  16  17
ENDBRANCH  13  16
ENDBRANCH   1  12
BRANCH  10  28
HETATM   28  C17 UNL     1      19.213 -14.759  21.176  1.00  0.00     0.181 C 
BRANCH  28  29
HETATM   29  C18 UNL     1      20.059 -15.384  20.095  1.00  0.00     0.073 C 
BRANCH  29  30
HETATM   30  C19 UNL     1      20.540 -14.293  19.218  1.00  0.00    -0.056 A 
HETATM   31  C20 UNL     1      21.158 -13.179  19.744  1.00  0.00     0.007 A 
HETATM   32  C21 UNL     1      21.615 -12.149  18.951  1.00  0.00     0.001 A 
HETATM   33  C22 UNL     1      21.474 -12.184  17.593  1.00  0.00     0.000 A 
HETATM   34  C23 UNL     1      20.856 -13.288  17.017  1.00  0.00     0.001 A 
HETATM   35  C24 UNL     1      20.408 -14.305  17.833  1.00  0.00     0.007 A 
ENDBRANCH  29  30
ENDBRANCH  28  29
BRANCH  28  36
HETATM   36  N6  UNL     1      17.945 -14.406  20.519  1.00  0.00    -0.345 N 
HETATM   37  C25 UNL     1      17.301 -13.196  20.783  1.00  0.00     0.247 C 
HETATM   38  O4  UNL     1      17.853 -12.398  21.613  1.00  0.00    -0.271 OA
ATOM     39  H6  UNL     1      17.527 -15.059  19.857  1.00  0.00     0.163 HD
BRANCH  37  40
HETATM   40  C26 UNL     1      16.005 -12.789  20.149  1.00  0.00     0.214 C 
BRANCH  40  41
HETATM   41  O5  UNL     1      16.068 -13.133  18.815  1.00  0.00    -0.386 OA
ATOM     42  H5  UNL     1      15.303 -13.662  18.619  1.00  0.00     0.210 HD
ENDBRANCH  40  41
BRANCH  40  43
HETATM   43  C27 UNL     1      15.819 -11.316  20.326  1.00  0.00     0.080 C 
BRANCH  43  44
HETATM   44  C28 UNL     1      14.590 -11.102  21.174  1.00  0.00    -0.055 A 
HETATM   45  C29 UNL     1      13.933 -12.161  21.742  1.00  0.00     0.007 A 
HETATM   46  C30 UNL     1      12.810 -11.961  22.515  1.00  0.00     0.001 A 
HETATM   47  C31 UNL     1      12.300 -10.703  22.750  1.00  0.00     0.000 A 
HETATM   48  C32 UNL     1      12.963  -9.635  22.178  1.00  0.00     0.001 A 
HETATM   49  C33 UNL     1      14.107  -9.830  21.389  1.00  0.00     0.007 A 
ENDBRANCH  43  44
ENDBRANCH  40  43
ENDBRANCH  37  40
ENDBRANCH  28  36
ENDBRANCH  10  28
BRANCH   6  50
HETATM   50  O2  UNL     1      22.732 -13.503  24.634  1.00  0.00    -0.396 OA
ATOM     51  H2  UNL     1      22.636 -14.158  23.954  1.00  0.00     0.210 HD
ENDBRANCH   6  50
TORSDOF 13
ENDMDL
