MODEL 3
REMARK VINA RESULT: -9.683925500      0.846      1.414
REMARK  13 active torsions:
REMARK  status: ('A' for Active; 'I' for Inactive)
REMARK       I    between atoms: C1_4  and  N3_6 
REMARK    1  A    between atoms: C4_9  and  C5_10 
REMARK    2  A    between atoms: C5_10  and  C6_11 
REMARK    3  A    between atoms: C6_11  and  N4_12 
REMARK       I    between atoms: N4_12  and  C7_14 
REMARK    4  A    between atoms: C7_14  and  C8_16 
REMARK    5  A    between atoms: C13_21  and  O2_22 
REMARK       I    between atoms: N5_26  and  C16_27 
REMARK    6  A    between atoms: C16_27  and  C17_29 
REMARK    7  A    between atoms: C17_29  and  C18_30 
REMARK    8  A    between atoms: C17_29  and  N6_37 
REMARK    9  A    between atoms: C18_30  and  C19_31 
REMARK       I    between atoms: N6_37  and  C25_39 
REMARK   10  A    between atoms: C25_39  and  C26_41 
REMARK   11  A    between atoms: C26_41  and  O5_42 
REMARK   12  A    between atoms: C26_41  and  C27_44 
REMARK   13  A    between atoms: C27_44  and  C28_45 
ROOT
HETATM    1  C8  UNL     1      19.310 -16.562  24.819  1.00  0.00     0.180 C 
HETATM    2  C9  UNL     1      20.101 -16.153  26.007  1.00  0.00     0.041 C 
HETATM    3  C10 UNL     1      20.844 -14.924  25.609  1.00  0.00     0.011 C 
HETATM    4  C11 UNL     1      20.326 -13.734  26.396  1.00  0.00     0.009 C 
HETATM    5  C12 UNL     1      21.147 -12.495  26.092  1.00  0.00     0.032 C 
HETATM    6  C13 UNL     1      21.553 -12.594  24.649  1.00  0.00     0.120 C 
HETATM    7  C14 UNL     1      20.457 -13.317  23.832  1.00  0.00     0.057 C 
HETATM    8  C15 UNL     1      20.657 -14.783  24.132  1.00  0.00     0.095 C 
HETATM    9  N5  UNL     1      19.594 -15.647  23.751  1.00  0.00    -0.332 N 
HETATM   10  C16 UNL     1      18.883 -15.677  22.507  1.00  0.00     0.244 C 
HETATM   11  O3  UNL     1      17.976 -16.566  22.415  1.00  0.00    -0.271 OA
ENDROOT
BRANCH   1  12
HETATM   12  C7  UNL     1      17.858 -16.665  25.109  1.00  0.00     0.240 C 
HETATM   13  N4  UNL     1      17.195 -17.897  24.926  1.00  0.00    -0.359 N 
ATOM     14  H4  UNL     1      17.742 -18.699  24.615  1.00  0.00     0.162 HD
HETATM   15  O1  UNL     1      17.225 -15.679  25.502  1.00  0.00    -0.271 OA
BRANCH  13  16
HETATM   16  C6  UNL     1      15.779 -18.081  25.157  1.00  0.00     0.127 C 
BRANCH  16  17
HETATM   17  C5  UNL     1      15.106 -19.096  24.307  1.00  0.00     0.055 C 
BRANCH  17  18
HETATM   18  C4  UNL     1      14.704 -18.677  22.969  1.00  0.00    -0.063 A 
HETATM   19  C3  UNL     1      13.796 -19.329  22.219  1.00  0.00    -0.003 A 
HETATM   20  C2  UNL     1      13.619 -18.641  20.915  1.00  0.00     0.153 A 
HETATM   21  N3  UNL     1      14.437 -17.468  20.979  1.00  0.00    -0.349 N 
HETATM   22  C1  UNL     1      14.516 -16.453  20.020  1.00  0.00     0.184 C 
HETATM   23  C34 UNL     1      15.181 -17.502  22.211  1.00  0.00     0.159 A 
HETATM   24  N1  UNL     1      13.582 -15.575  19.862  1.00  0.00    -0.374 N 
HETATM   25  N2  UNL     1      15.655 -16.368  19.179  1.00  0.00    -0.064 NA
ATOM     26  H12 UNL     1      13.639 -14.835  19.162  1.00  0.00     0.158 HD
ATOM     27  H11 UNL     1      12.763 -15.636  20.466  1.00  0.00     0.158 HD
ENDBRANCH  17  18
ENDBRANCH  16  17
ENDBRANCH  13  16
ENDBRANCH   1  12
BRANCH  10  28
HETATM   28  C17 UNL     1      19.068 -14.822  21.349  1.00  0.00     0.181 C 
BRANCH  28  29
HETATM   29  C18 UNL     1      19.846 -15.452  20.221  1.00  0.00     0.073 C 
BRANCH  29  30
HETATM   30  C19 UNL     1      20.403 -14.357  19.396  1.00  0.00    -0.056 A 
HETATM   31  C20 UNL     1      21.008 -13.265  19.979  1.00  0.00     0.007 A 
HETATM   32  C21 UNL     1      21.533 -12.231  19.236  1.00  0.00     0.001 A 
HETATM   33  C22 UNL     1      21.477 -12.239  17.872  1.00  0.00     0.000 A 
HETATM   34  C23 UNL     1      20.875 -13.321  17.237  1.00  0.00     0.001 A 
HETATM   35  C24 UNL     1      20.358 -14.343  18.005  1.00  0.00     0.007 A 
ENDBRANCH  29  30
ENDBRANCH  28  29
BRANCH  28  36
HETATM   36  N6  UNL     1      17.748 -14.510  20.782  1.00  0.00    -0.345 N 
HETATM   37  C25 UNL     1      17.174 -13.246  20.927  1.00  0.00     0.247 C 
HETATM   38  O4  UNL     1      17.838 -12.362  21.567  1.00  0.00    -0.271 OA
ATOM     39  H6  UNL     1      17.241 -15.233  20.272  1.00  0.00     0.163 HD
BRANCH  37  40
HETATM   40  C26 UNL     1      15.830 -12.875  20.378  1.00  0.00     0.214 C 
BRANCH  40  41
HETATM   41  O5  UNL     1      15.785 -13.301  19.066  1.00  0.00    -0.386 OA
ATOM     42  H5  UNL     1      16.676 -13.311  18.737  1.00  0.00     0.210 HD
ENDBRANCH  40  41
BRANCH  40  43
HETATM   43  C27 UNL     1      15.655 -11.394  20.479  1.00  0.00     0.080 C 
BRANCH  43  44
HETATM   44  C28 UNL     1      14.425 -11.128  21.311  1.00  0.00    -0.055 A 
HETATM   45  C29 UNL     1      13.962  -9.853  21.496  1.00  0.00     0.007 A 
HETATM   46  C30 UNL     1      12.839  -9.615  22.258  1.00  0.00     0.001 A 
HETATM   47  C31 UNL     1      12.137 -10.634  22.864  1.00  0.00     0.000 A 
HETATM   48  C32 UNL     1      12.604 -11.920  22.676  1.00  0.00     0.001 A 
HETATM   49  C33 UNL     1      13.747 -12.173  21.902  1.00  0.00     0.007 A 
ENDBRANCH  43  44
ENDBRANCH  40  43
ENDBRANCH  37  40
ENDBRANCH  28  36
ENDBRANCH  10  28
BRANCH   6  50
HETATM   50  O2  UNL     1      22.740 -13.347  24.554  1.00  0.00    -0.396 OA
ATOM     51  H2  UNL     1      22.568 -14.139  24.058  1.00  0.00     0.210 HD
ENDBRANCH   6  50
TORSDOF 13
ENDMDL
