MODEL 19
REMARK VINA RESULT: -8.815348893      2.544      6.717
REMARK  13 active torsions:
REMARK  status: ('A' for Active; 'I' for Inactive)
REMARK       I    between atoms: C1_4  and  N3_6 
REMARK    1  A    between atoms: C4_9  and  C5_10 
REMARK    2  A    between atoms: C5_10  and  C6_11 
REMARK    3  A    between atoms: C6_11  and  N4_12 
REMARK       I    between atoms: N4_12  and  C7_14 
REMARK    4  A    between atoms: C7_14  and  C8_16 
REMARK    5  A    between atoms: C13_21  and  O2_22 
REMARK       I    between atoms: N5_26  and  C16_27 
REMARK    6  A    between atoms: C16_27  and  C17_29 
REMARK    7  A    between atoms: C17_29  and  C18_30 
REMARK    8  A    between atoms: C17_29  and  N6_37 
REMARK    9  A    between atoms: C18_30  and  C19_31 
REMARK       I    between atoms: N6_37  and  C25_39 
REMARK   10  A    between atoms: C25_39  and  C26_41 
REMARK   11  A    between atoms: C26_41  and  O5_42 
REMARK   12  A    between atoms: C26_41  and  C27_44 
REMARK   13  A    between atoms: C27_44  and  C28_45 
ROOT
HETATM    1  C8  UNL     1      19.206 -12.576  21.055  1.00  0.00     0.180 C 
HETATM    2  C9  UNL     1      20.369 -12.729  20.145  1.00  0.00     0.041 C 
HETATM    3  C10 UNL     1      20.950 -14.070  20.435  1.00  0.00     0.011 C 
HETATM    4  C11 UNL     1      20.762 -14.981  19.235  1.00  0.00     0.009 C 
HETATM    5  C12 UNL     1      21.449 -16.313  19.463  1.00  0.00     0.032 C 
HETATM    6  C13 UNL     1      21.325 -16.613  20.930  1.00  0.00     0.120 C 
HETATM    7  C14 UNL     1      19.999 -16.042  21.484  1.00  0.00     0.057 C 
HETATM    8  C15 UNL     1      20.264 -14.566  21.667  1.00  0.00     0.095 C 
HETATM    9  N5  UNL     1      19.118 -13.750  21.876  1.00  0.00    -0.332 N 
HETATM   10  C16 UNL     1      18.017 -13.983  22.763  1.00  0.00     0.244 C 
HETATM   11  O3  UNL     1      17.118 -13.083  22.771  1.00  0.00    -0.271 OA
ENDROOT
BRANCH   1  12
HETATM   12  C7  UNL     1      17.944 -12.296  20.325  1.00  0.00     0.240 C 
HETATM   13  N4  UNL     1      17.155 -11.186  20.694  1.00  0.00    -0.359 N 
ATOM     14  H4  UNL     1      17.489 -10.586  21.449  1.00  0.00     0.162 HD
HETATM   15  O1  UNL     1      17.576 -13.031  19.403  1.00  0.00    -0.271 OA
BRANCH  13  16
HETATM   16  C6  UNL     1      15.900 -10.853  20.058  1.00  0.00     0.127 C 
BRANCH  16  17
HETATM   17  C5  UNL     1      14.739 -11.704  20.422  1.00  0.00     0.055 C 
BRANCH  17  18
HETATM   18  C4  UNL     1      13.763 -11.133  21.343  1.00  0.00    -0.063 A 
HETATM   19  C3  UNL     1      13.240  -9.899  21.212  1.00  0.00    -0.003 A 
HETATM   20  C2  UNL     1      12.281  -9.630  22.314  1.00  0.00     0.153 A 
HETATM   21  N3  UNL     1      12.207 -10.843  23.072  1.00  0.00    -0.349 N 
HETATM   22  C1  UNL     1      11.353 -11.102  24.148  1.00  0.00     0.184 C 
HETATM   23  C34 UNL     1      13.172 -11.768  22.538  1.00  0.00     0.159 A 
HETATM   24  N1  UNL     1      10.091 -11.334  23.992  1.00  0.00    -0.374 N 
HETATM   25  N2  UNL     1      11.872 -11.115  25.469  1.00  0.00    -0.064 NA
ATOM     26  H12 UNL     1       9.469 -11.523  24.778  1.00  0.00     0.158 HD
ATOM     27  H11 UNL     1       9.719 -11.325  23.043  1.00  0.00     0.158 HD
ENDBRANCH  17  18
ENDBRANCH  16  17
ENDBRANCH  13  16
ENDBRANCH   1  12
BRANCH  10  28
HETATM   28  C17 UNL     1      17.804 -15.115  23.647  1.00  0.00     0.181 C 
BRANCH  28  29
HETATM   29  C18 UNL     1      17.989 -14.812  25.112  1.00  0.00     0.073 C 
BRANCH  29  30
HETATM   30  C19 UNL     1      19.440 -14.653  25.357  1.00  0.00    -0.056 A 
HETATM   31  C20 UNL     1      19.964 -13.446  25.765  1.00  0.00     0.007 A 
HETATM   32  C21 UNL     1      21.310 -13.270  25.998  1.00  0.00     0.001 A 
HETATM   33  C22 UNL     1      22.198 -14.295  25.833  1.00  0.00     0.000 A 
HETATM   34  C23 UNL     1      21.716 -15.533  25.422  1.00  0.00     0.001 A 
HETATM   35  C24 UNL     1      20.364 -15.682  25.196  1.00  0.00     0.007 A 
ENDBRANCH  29  30
ENDBRANCH  28  29
BRANCH  28  36
HETATM   36  N6  UNL     1      16.407 -15.554  23.516  1.00  0.00    -0.345 N 
HETATM   37  C25 UNL     1      16.061 -16.662  22.740  1.00  0.00     0.247 C 
HETATM   38  O4  UNL     1      17.003 -17.288  22.148  1.00  0.00    -0.271 OA
ATOM     39  H6  UNL     1      15.674 -15.038  24.003  1.00  0.00     0.163 HD
BRANCH  37  40
HETATM   40  C26 UNL     1      14.655 -17.148  22.564  1.00  0.00     0.214 C 
BRANCH  40  41
HETATM   41  O5  UNL     1      13.811 -16.102  22.878  1.00  0.00    -0.386 OA
ATOM     42  H5  UNL     1      14.250 -15.296  22.632  1.00  0.00     0.210 HD
ENDBRANCH  40  41
BRANCH  40  43
HETATM   43  C27 UNL     1      14.430 -18.320  23.463  1.00  0.00     0.080 C 
BRANCH  43  44
HETATM   44  C28 UNL     1      13.359 -19.182  22.842  1.00  0.00    -0.055 A 
HETATM   45  C29 UNL     1      13.060 -19.083  21.510  1.00  0.00     0.007 A 
HETATM   46  C30 UNL     1      12.080 -19.871  20.948  1.00  0.00     0.001 A 
HETATM   47  C31 UNL     1      11.362 -20.786  21.688  1.00  0.00     0.000 A 
HETATM   48  C32 UNL     1      11.665 -20.885  23.032  1.00  0.00     0.001 A 
HETATM   49  C33 UNL     1      12.661 -20.086  23.614  1.00  0.00     0.007 A 
ENDBRANCH  43  44
ENDBRANCH  40  43
ENDBRANCH  37  40
ENDBRANCH  28  36
ENDBRANCH  10  28
BRANCH   6  50
HETATM   50  O2  UNL     1      22.390 -15.999  21.618  1.00  0.00    -0.396 OA
ATOM     51  H2  UNL     1      22.044 -15.507  22.353  1.00  0.00     0.210 HD
ENDBRANCH   6  50
TORSDOF 13
ENDMDL
