MODEL 2
REMARK VINA RESULT: -10.829806873      1.554      9.355
REMARK  9 active torsions:
REMARK  status: ('A' for Active; 'I' for Inactive)
REMARK    1  A    between atoms: C3_3  and  O1_4 
REMARK    2  A    between atoms: C6_8  and  C7_9 
REMARK    3  A    between atoms: C17_19  and  C18_20 
REMARK    4  A    between atoms: C18_20  and  C20_22 
REMARK    5  A    between atoms: C20_22  and  C21_23 
REMARK    6  A    between atoms: C21_23  and  C22_24 
REMARK    7  A    between atoms: C22_24  and  C23_25 
REMARK    8  A    between atoms: C23_25  and  O2_28 
REMARK    9  A    between atoms: C27_31  and  O3_32 
ROOT
HETATM    1  C7  UNL     1      63.581   0.932  -6.140  1.00  0.00     0.003 C 
HETATM    2  C8  UNL     1      62.509   1.485  -5.604  1.00  0.00    -0.075 C 
HETATM    3  C9  UNL     1      61.685   0.744  -4.624  1.00  0.00     0.034 C 
HETATM    4  C10 UNL     1      60.345   1.487  -4.570  1.00  0.00     0.005 C 
HETATM    5  C11 UNL     1      60.602   2.880  -4.035  1.00  0.00     0.010 C 
HETATM    6  C12 UNL     1      61.767   3.575  -4.643  1.00  0.00    -0.033 C 
HETATM    7  C13 UNL     1      63.006   3.508  -3.780  1.00  0.00     0.016 C 
HETATM    8  C14 UNL     1      62.096   2.832  -5.950  1.00  0.00     0.023 C 
HETATM    9  C15 UNL     1      63.125   3.722  -6.534  1.00  0.00     0.010 C 
HETATM   10  C16 UNL     1      62.643   5.098  -6.191  1.00  0.00     0.006 C 
HETATM   11  C17 UNL     1      61.491   4.935  -5.189  1.00  0.00    -0.002 C 
ENDROOT
BRANCH   1  12
HETATM   12  C6  UNL     1      64.021  -0.411  -5.816  1.00  0.00     0.003 C 
HETATM   13  C5  UNL     1      65.302  -0.663  -5.660  1.00  0.00    -0.074 C 
HETATM   14  C4  UNL     1      66.312   0.399  -5.807  1.00  0.00     0.070 C 
HETATM   15  C26 UNL     1      65.736  -2.049  -5.327  1.00  0.00     0.070 C 
HETATM   16  C3  UNL     1      67.686  -0.216  -5.778  1.00  0.00     0.152 C 
HETATM   17  C2  UNL     1      67.698  -1.396  -6.668  1.00  0.00    -0.032 C 
HETATM   18  C1  UNL     1      68.531  -1.484  -7.676  1.00  0.00     0.019 C 
HETATM   19  C27 UNL     1      66.735  -2.486  -6.394  1.00  0.00     0.152 C 
BRANCH  16  20
HETATM   20  O1  UNL     1      68.014  -0.578  -4.461  1.00  0.00    -0.391 OA
ATOM     21  H1  UNL     1      68.390  -1.450  -4.433  1.00  0.00     0.210 HD
ENDBRANCH  16  20
BRANCH  19  22
HETATM   22  O3  UNL     1      66.030  -2.744  -7.571  1.00  0.00    -0.391 OA
ATOM     23  H3  UNL     1      66.360  -2.162  -8.245  1.00  0.00     0.210 HD
ENDBRANCH  19  22
ENDBRANCH   1  12
BRANCH  11  24
HETATM   24  C18 UNL     1      61.599   6.055  -4.236  1.00  0.00    -0.014 C 
HETATM   25  C19 UNL     1      61.632   7.357  -5.007  1.00  0.00     0.010 C 
BRANCH  24  26
HETATM   26  C20 UNL     1      60.418   6.163  -3.275  1.00  0.00     0.005 C 
BRANCH  26  27
HETATM   27  C21 UNL     1      60.968   6.457  -1.923  1.00  0.00     0.003 C 
BRANCH  27  28
HETATM   28  C22 UNL     1      60.404   7.535  -1.107  1.00  0.00     0.037 C 
BRANCH  28  29
HETATM   29  C23 UNL     1      60.291   7.290   0.344  1.00  0.00     0.051 C 
HETATM   30  C24 UNL     1      60.201   5.855   0.722  1.00  0.00     0.045 C 
HETATM   31  C25 UNL     1      61.499   7.945   1.050  1.00  0.00     0.045 C 
BRANCH  29  32
HETATM   32  O2  UNL     1      59.170   7.966   0.891  1.00  0.00    -0.391 OA
ATOM     33  H2  UNL     1      58.814   7.493   1.635  1.00  0.00     0.210 HD
ENDBRANCH  29  32
ENDBRANCH  28  29
ENDBRANCH  27  28
ENDBRANCH  26  27
ENDBRANCH  24  26
ENDBRANCH  11  24
TORSDOF 9
ENDMDL
