MODEL 20
REMARK VINA RESULT: -8.145151701      1.270      1.911
REMARK  9 active torsions:
REMARK  status: ('A' for Active; 'I' for Inactive)
REMARK    1  A    between atoms: C3_3  and  O1_4 
REMARK    2  A    between atoms: C6_8  and  C7_9 
REMARK    3  A    between atoms: C17_19  and  C18_20 
REMARK    4  A    between atoms: C18_20  and  C20_22 
REMARK    5  A    between atoms: C20_22  and  C21_23 
REMARK    6  A    between atoms: C21_23  and  C22_24 
REMARK    7  A    between atoms: C22_24  and  C23_25 
REMARK    8  A    between atoms: C23_25  and  O2_28 
REMARK    9  A    between atoms: C27_31  and  O3_32 
ROOT
HETATM    1  C7  UNL     1      61.793   4.692  -2.330  1.00  0.00     0.003 C 
HETATM    2  C8  UNL     1      61.111   4.318  -3.398  1.00  0.00    -0.075 C 
HETATM    3  C9  UNL     1      60.257   5.281  -4.126  1.00  0.00     0.034 C 
HETATM    4  C10 UNL     1      59.317   4.428  -4.984  1.00  0.00     0.005 C 
HETATM    5  C11 UNL     1      60.158   3.668  -5.988  1.00  0.00     0.010 C 
HETATM    6  C12 UNL     1      61.371   3.023  -5.421  1.00  0.00    -0.033 C 
HETATM    7  C13 UNL     1      62.628   3.826  -5.660  1.00  0.00     0.016 C 
HETATM    8  C14 UNL     1      61.169   2.957  -3.897  1.00  0.00     0.023 C 
HETATM    9  C15 UNL     1      62.334   2.140  -3.489  1.00  0.00     0.010 C 
HETATM   10  C16 UNL     1      62.460   1.126  -4.585  1.00  0.00     0.006 C 
HETATM   11  C17 UNL     1      61.523   1.568  -5.718  1.00  0.00    -0.002 C 
ENDROOT
BRANCH   1  12
HETATM   12  C6  UNL     1      61.758   6.042  -1.805  1.00  0.00     0.003 C 
HETATM   13  C5  UNL     1      61.620   6.242  -0.514  1.00  0.00    -0.074 C 
HETATM   14  C4  UNL     1      61.499   5.112   0.424  1.00  0.00     0.070 C 
HETATM   15  C26 UNL     1      61.586   7.637   0.008  1.00  0.00     0.070 C 
HETATM   16  C3  UNL     1      61.150   5.638   1.791  1.00  0.00     0.152 C 
HETATM   17  C2  UNL     1      60.058   6.625   1.656  1.00  0.00    -0.032 C 
HETATM   18  C1  UNL     1      58.915   6.471   2.279  1.00  0.00     0.019 C 
HETATM   19  C27 UNL     1      60.286   7.804   0.790  1.00  0.00     0.152 C 
BRANCH  16  20
HETATM   20  O1  UNL     1      62.285   6.222   2.378  1.00  0.00    -0.391 OA
ATOM     21  H1  UNL     1      62.113   6.465   3.280  1.00  0.00     0.210 HD
ENDBRANCH  16  20
BRANCH  19  22
HETATM   22  O3  UNL     1      59.234   7.876  -0.124  1.00  0.00    -0.391 OA
ATOM     23  H3  UNL     1      58.711   7.089  -0.033  1.00  0.00     0.210 HD
ENDBRANCH  19  22
ENDBRANCH   1  12
BRANCH  11  24
HETATM   24  C18 UNL     1      62.201   1.229  -6.983  1.00  0.00    -0.014 C 
HETATM   25  C19 UNL     1      61.186   1.248  -8.105  1.00  0.00     0.010 C 
BRANCH  24  26
HETATM   26  C20 UNL     1      63.293   2.218  -7.383  1.00  0.00     0.005 C 
BRANCH  26  27
HETATM   27  C21 UNL     1      64.528   1.432  -7.654  1.00  0.00     0.003 C 
BRANCH  27  28
HETATM   28  C22 UNL     1      65.724   1.615  -6.827  1.00  0.00     0.037 C 
BRANCH  28  29
HETATM   29  C23 UNL     1      66.472   0.400  -6.452  1.00  0.00     0.051 C 
HETATM   30  C24 UNL     1      65.628  -0.709  -5.934  1.00  0.00     0.045 C 
HETATM   31  C25 UNL     1      67.278  -0.082  -7.679  1.00  0.00     0.045 C 
BRANCH  29  32
HETATM   32  O2  UNL     1      67.468   0.691  -5.485  1.00  0.00    -0.391 OA
ATOM     33  H2  UNL     1      67.092   0.761  -4.615  1.00  0.00     0.210 HD
ENDBRANCH  29  32
ENDBRANCH  28  29
ENDBRANCH  27  28
ENDBRANCH  26  27
ENDBRANCH  24  26
ENDBRANCH  11  24
TORSDOF 9
ENDMDL
