MODEL 4
REMARK VINA RESULT: -9.873475632      1.573      9.157
REMARK  9 active torsions:
REMARK  status: ('A' for Active; 'I' for Inactive)
REMARK    1  A    between atoms: C3_3  and  O1_4 
REMARK    2  A    between atoms: C6_8  and  C7_9 
REMARK    3  A    between atoms: C17_19  and  C18_20 
REMARK    4  A    between atoms: C18_20  and  C20_22 
REMARK    5  A    between atoms: C20_22  and  C21_23 
REMARK    6  A    between atoms: C21_23  and  C22_24 
REMARK    7  A    between atoms: C22_24  and  C23_25 
REMARK    8  A    between atoms: C23_25  and  O2_28 
REMARK    9  A    between atoms: C27_31  and  O3_32 
ROOT
HETATM    1  C7  UNL     1      63.860   0.984  -6.168  1.00  0.00     0.003 C 
HETATM    2  C8  UNL     1      62.613   1.420  -6.194  1.00  0.00    -0.075 C 
HETATM    3  C9  UNL     1      61.490   0.518  -5.857  1.00  0.00     0.034 C 
HETATM    4  C10 UNL     1      60.235   1.203  -6.410  1.00  0.00     0.005 C 
HETATM    5  C11 UNL     1      60.049   2.509  -5.669  1.00  0.00     0.010 C 
HETATM    6  C12 UNL     1      61.284   3.322  -5.519  1.00  0.00    -0.033 C 
HETATM    7  C13 UNL     1      61.926   3.168  -4.160  1.00  0.00     0.016 C 
HETATM    8  C14 UNL     1      62.295   2.789  -6.551  1.00  0.00     0.023 C 
HETATM    9  C15 UNL     1      63.382   3.786  -6.428  1.00  0.00     0.010 C 
HETATM   10  C16 UNL     1      62.657   5.082  -6.228  1.00  0.00     0.006 C 
HETATM   11  C17 UNL     1      61.182   4.738  -5.976  1.00  0.00    -0.002 C 
ENDROOT
BRANCH   1  12
HETATM   12  C6  UNL     1      64.213  -0.377  -5.816  1.00  0.00     0.003 C 
HETATM   13  C5  UNL     1      65.473  -0.705  -5.643  1.00  0.00    -0.074 C 
HETATM   14  C4  UNL     1      66.549   0.289  -5.799  1.00  0.00     0.070 C 
HETATM   15  C26 UNL     1      65.817  -2.109  -5.281  1.00  0.00     0.070 C 
HETATM   16  C3  UNL     1      67.882  -0.409  -5.746  1.00  0.00     0.152 C 
HETATM   17  C2  UNL     1      67.828  -1.604  -6.614  1.00  0.00    -0.032 C 
HETATM   18  C1  UNL     1      68.662  -1.762  -7.612  1.00  0.00     0.019 C 
HETATM   19  C27 UNL     1      66.797  -2.627  -6.330  1.00  0.00     0.152 C 
BRANCH  16  20
HETATM   20  O1  UNL     1      68.176  -0.767  -4.420  1.00  0.00    -0.391 OA
ATOM     21  H1  UNL     1      67.648  -0.266  -3.808  1.00  0.00     0.210 HD
ENDBRANCH  16  20
BRANCH  19  22
HETATM   22  O3  UNL     1      66.087  -2.863  -7.509  1.00  0.00    -0.391 OA
ATOM     23  H3  UNL     1      65.201  -3.114  -7.273  1.00  0.00     0.210 HD
ENDBRANCH  19  22
ENDBRANCH   1  12
BRANCH  11  24
HETATM   24  C18 UNL     1      60.686   5.709  -4.983  1.00  0.00    -0.014 C 
HETATM   25  C19 UNL     1      59.798   4.989  -3.991  1.00  0.00     0.010 C 
BRANCH  24  26
HETATM   26  C20 UNL     1      61.790   6.370  -4.162  1.00  0.00     0.005 C 
BRANCH  26  27
HETATM   27  C21 UNL     1      61.142   7.360  -3.258  1.00  0.00     0.003 C 
BRANCH  27  28
HETATM   28  C22 UNL     1      61.716   7.656  -1.943  1.00  0.00     0.037 C 
BRANCH  28  29
HETATM   29  C23 UNL     1      60.942   7.230  -0.762  1.00  0.00     0.051 C 
HETATM   30  C24 UNL     1      60.845   5.757  -0.585  1.00  0.00     0.045 C 
HETATM   31  C25 UNL     1      61.569   7.870   0.497  1.00  0.00     0.045 C 
BRANCH  29  32
HETATM   32  O2  UNL     1      59.627   7.762  -0.793  1.00  0.00    -0.391 OA
ATOM     33  H2  UNL     1      59.281   7.872   0.085  1.00  0.00     0.210 HD
ENDBRANCH  29  32
ENDBRANCH  28  29
ENDBRANCH  27  28
ENDBRANCH  26  27
ENDBRANCH  24  26
ENDBRANCH  11  24
TORSDOF 9
ENDMDL
