MODEL 3
REMARK VINA RESULT: -10.805704070      1.029      1.405
REMARK  9 active torsions:
REMARK  status: ('A' for Active; 'I' for Inactive)
REMARK    1  A    between atoms: C3_3  and  O1_4 
REMARK    2  A    between atoms: C6_8  and  C7_9 
REMARK    3  A    between atoms: C17_19  and  C18_20 
REMARK    4  A    between atoms: C18_20  and  C20_22 
REMARK    5  A    between atoms: C20_22  and  C21_23 
REMARK    6  A    between atoms: C21_23  and  C22_24 
REMARK    7  A    between atoms: C22_24  and  C23_25 
REMARK    8  A    between atoms: C23_25  and  O2_28 
REMARK    9  A    between atoms: C27_31  and  O3_32 
ROOT
HETATM    1  C7  UNL     1      60.219   6.370  -3.108  1.00  0.00     0.003 C 
HETATM    2  C8  UNL     1      60.877   5.976  -4.183  1.00  0.00    -0.075 C 
HETATM    3  C9  UNL     1      62.223   6.510  -4.485  1.00  0.00     0.034 C 
HETATM    4  C10 UNL     1      62.467   6.193  -5.965  1.00  0.00     0.005 C 
HETATM    5  C11 UNL     1      62.495   4.687  -6.123  1.00  0.00     0.010 C 
HETATM    6  C12 UNL     1      61.400   3.968  -5.422  1.00  0.00    -0.033 C 
HETATM    7  C13 UNL     1      61.836   3.381  -4.100  1.00  0.00     0.016 C 
HETATM    8  C14 UNL     1      60.312   5.011  -5.107  1.00  0.00     0.023 C 
HETATM    9  C15 UNL     1      59.226   4.145  -4.594  1.00  0.00     0.010 C 
HETATM   10  C16 UNL     1      59.303   2.924  -5.460  1.00  0.00     0.006 C 
HETATM   11  C17 UNL     1      60.608   3.024  -6.263  1.00  0.00    -0.002 C 
ENDROOT
BRANCH   1  12
HETATM   12  C6  UNL     1      60.754   7.332  -2.165  1.00  0.00     0.003 C 
HETATM   13  C5  UNL     1      61.038   6.961  -0.937  1.00  0.00    -0.074 C 
HETATM   14  C4  UNL     1      60.823   5.574  -0.490  1.00  0.00     0.070 C 
HETATM   15  C26 UNL     1      61.587   7.964   0.018  1.00  0.00     0.070 C 
HETATM   16  C3  UNL     1      61.038   5.493   0.998  1.00  0.00     0.152 C 
HETATM   17  C2  UNL     1      60.319   6.612   1.643  1.00  0.00    -0.032 C 
HETATM   18  C1  UNL     1      59.398   6.400   2.551  1.00  0.00     0.019 C 
HETATM   19  C27 UNL     1      60.666   7.992   1.235  1.00  0.00     0.152 C 
BRANCH  16  20
HETATM   20  O1  UNL     1      62.412   5.550   1.281  1.00  0.00    -0.391 OA
ATOM     21  H1  UNL     1      62.919   5.659   0.484  1.00  0.00     0.210 HD
ENDBRANCH  16  20
BRANCH  19  22
HETATM   22  O3  UNL     1      59.486   8.644   0.873  1.00  0.00    -0.391 OA
ATOM     23  H3  UNL     1      59.713   9.516   0.571  1.00  0.00     0.210 HD
ENDBRANCH  19  22
ENDBRANCH   1  12
BRANCH  11  24
HETATM   24  C18 UNL     1      61.137   1.653  -6.381  1.00  0.00    -0.014 C 
HETATM   25  C19 UNL     1      60.095   0.678  -5.877  1.00  0.00     0.010 C 
BRANCH  24  26
HETATM   26  C20 UNL     1      61.451   1.234  -7.815  1.00  0.00     0.005 C 
BRANCH  26  27
HETATM   27  C21 UNL     1      62.775   0.552  -7.800  1.00  0.00     0.003 C 
BRANCH  27  28
HETATM   28  C22 UNL     1      63.684   0.715  -6.664  1.00  0.00     0.037 C 
BRANCH  28  29
HETATM   29  C23 UNL     1      64.887   1.542  -6.881  1.00  0.00     0.051 C 
HETATM   30  C24 UNL     1      66.151   0.770  -7.014  1.00  0.00     0.045 C 
HETATM   31  C25 UNL     1      64.668   2.412  -8.139  1.00  0.00     0.045 C 
BRANCH  29  32
HETATM   32  O2  UNL     1      65.051   2.490  -5.838  1.00  0.00    -0.391 OA
ATOM     33  H2  UNL     1      64.245   2.605  -5.349  1.00  0.00     0.210 HD
ENDBRANCH  29  32
ENDBRANCH  28  29
ENDBRANCH  27  28
ENDBRANCH  26  27
ENDBRANCH  24  26
ENDBRANCH  11  24
TORSDOF 9
ENDMDL
