MODEL 6
REMARK VINA RESULT: -9.035055348      1.683      9.351
REMARK  9 active torsions:
REMARK  status: ('A' for Active; 'I' for Inactive)
REMARK    1  A    between atoms: C3_3  and  O1_4 
REMARK    2  A    between atoms: C6_8  and  C7_9 
REMARK    3  A    between atoms: C17_19  and  C18_20 
REMARK    4  A    between atoms: C18_20  and  C20_22 
REMARK    5  A    between atoms: C20_22  and  C21_23 
REMARK    6  A    between atoms: C21_23  and  C22_24 
REMARK    7  A    between atoms: C22_24  and  C23_25 
REMARK    8  A    between atoms: C23_25  and  O2_28 
REMARK    9  A    between atoms: C27_31  and  O3_32 
ROOT
HETATM    1  C7  UNL     1      65.015   1.852  -6.773  1.00  0.00     0.003 C 
HETATM    2  C8  UNL     1      63.757   2.255  -6.750  1.00  0.00    -0.075 C 
HETATM    3  C9  UNL     1      62.699   1.469  -7.422  1.00  0.00     0.034 C 
HETATM    4  C10 UNL     1      61.509   2.425  -7.568  1.00  0.00     0.005 C 
HETATM    5  C11 UNL     1      61.033   2.797  -6.180  1.00  0.00     0.010 C 
HETATM    6  C12 UNL     1      62.114   3.161  -5.228  1.00  0.00    -0.033 C 
HETATM    7  C13 UNL     1      62.486   2.028  -4.301  1.00  0.00     0.016 C 
HETATM    8  C14 UNL     1      63.363   3.474  -6.071  1.00  0.00     0.023 C 
HETATM    9  C15 UNL     1      64.284   3.995  -5.035  1.00  0.00     0.010 C 
HETATM   10  C16 UNL     1      63.392   4.789  -4.131  1.00  0.00     0.006 C 
HETATM   11  C17 UNL     1      61.945   4.471  -4.533  1.00  0.00    -0.002 C 
ENDROOT
BRANCH   1  12
HETATM   12  C6  UNL     1      65.442   0.639  -7.442  1.00  0.00     0.003 C 
HETATM   13  C5  UNL     1      65.781  -0.416  -6.736  1.00  0.00    -0.074 C 
HETATM   14  C4  UNL     1      65.736  -0.396  -5.264  1.00  0.00     0.070 C 
HETATM   15  C26 UNL     1      66.218  -1.654  -7.441  1.00  0.00     0.070 C 
HETATM   16  C3  UNL     1      66.368  -1.655  -4.731  1.00  0.00     0.152 C 
HETATM   17  C2  UNL     1      67.642  -1.885  -5.443  1.00  0.00    -0.032 C 
HETATM   18  C1  UNL     1      68.780  -1.971  -4.798  1.00  0.00     0.019 C 
HETATM   19  C27 UNL     1      67.605  -2.017  -6.917  1.00  0.00     0.152 C 
BRANCH  16  20
HETATM   20  O1  UNL     1      65.490  -2.736  -4.911  1.00  0.00    -0.391 OA
ATOM     21  H1  UNL     1      64.612  -2.513  -4.621  1.00  0.00     0.210 HD
ENDBRANCH  16  20
BRANCH  19  22
HETATM   22  O3  UNL     1      68.523  -1.113  -7.453  1.00  0.00    -0.391 OA
ATOM     23  H3  UNL     1      68.684  -0.438  -6.804  1.00  0.00     0.210 HD
ENDBRANCH  19  22
ENDBRANCH   1  12
BRANCH  11  24
HETATM   24  C18 UNL     1      61.155   4.452  -3.288  1.00  0.00    -0.014 C 
HETATM   25  C19 UNL     1      62.100   4.436  -2.106  1.00  0.00     0.010 C 
BRANCH  24  26
HETATM   26  C20 UNL     1      60.266   5.679  -3.103  1.00  0.00     0.005 C 
BRANCH  26  27
HETATM   27  C21 UNL     1      60.947   6.581  -2.133  1.00  0.00     0.003 C 
BRANCH  27  28
HETATM   28  C22 UNL     1      60.168   7.477  -1.276  1.00  0.00     0.037 C 
BRANCH  28  29
HETATM   29  C23 UNL     1      60.292   7.287   0.182  1.00  0.00     0.051 C 
HETATM   30  C24 UNL     1      60.210   5.872   0.629  1.00  0.00     0.045 C 
HETATM   31  C25 UNL     1      61.628   7.909   0.649  1.00  0.00     0.045 C 
BRANCH  29  32
HETATM   32  O2  UNL     1      59.308   8.033   0.881  1.00  0.00    -0.391 OA
ATOM     33  H2  UNL     1      59.189   7.701   1.764  1.00  0.00     0.210 HD
ENDBRANCH  29  32
ENDBRANCH  28  29
ENDBRANCH  27  28
ENDBRANCH  26  27
ENDBRANCH  24  26
ENDBRANCH  11  24
TORSDOF 9
ENDMDL
