MODEL 5
REMARK VINA RESULT: -9.384816303      1.393      1.889
REMARK  9 active torsions:
REMARK  status: ('A' for Active; 'I' for Inactive)
REMARK    1  A    between atoms: C3_3  and  O1_4 
REMARK    2  A    between atoms: C6_8  and  C7_9 
REMARK    3  A    between atoms: C17_19  and  C18_20 
REMARK    4  A    between atoms: C18_20  and  C20_22 
REMARK    5  A    between atoms: C20_22  and  C21_23 
REMARK    6  A    between atoms: C21_23  and  C22_24 
REMARK    7  A    between atoms: C22_24  and  C23_25 
REMARK    8  A    between atoms: C23_25  and  O2_28 
REMARK    9  A    between atoms: C27_31  and  O3_32 
ROOT
HETATM    1  C7  UNL     1      61.367   4.726  -2.746  1.00  0.00     0.003 C 
HETATM    2  C8  UNL     1      61.227   4.490  -4.037  1.00  0.00    -0.075 C 
HETATM    3  C9  UNL     1      61.133   5.605  -5.004  1.00  0.00     0.034 C 
HETATM    4  C10 UNL     1      60.548   4.992  -6.282  1.00  0.00     0.005 C 
HETATM    5  C11 UNL     1      61.537   3.973  -6.808  1.00  0.00     0.010 C 
HETATM    6  C12 UNL     1      62.092   3.056  -5.780  1.00  0.00    -0.033 C 
HETATM    7  C13 UNL     1      63.466   3.470  -5.306  1.00  0.00     0.016 C 
HETATM    8  C14 UNL     1      61.158   3.138  -4.559  1.00  0.00     0.023 C 
HETATM    9  C15 UNL     1      61.707   2.059  -3.706  1.00  0.00     0.010 C 
HETATM   10  C16 UNL     1      62.080   0.986  -4.683  1.00  0.00     0.006 C 
HETATM   11  C17 UNL     1      61.978   1.600  -6.086  1.00  0.00    -0.002 C 
ENDROOT
BRANCH   1  12
HETATM   12  C6  UNL     1      61.439   6.063  -2.192  1.00  0.00     0.003 C 
HETATM   13  C5  UNL     1      61.436   6.236  -0.889  1.00  0.00    -0.074 C 
HETATM   14  C4  UNL     1      61.359   5.089   0.033  1.00  0.00     0.070 C 
HETATM   15  C26 UNL     1      61.510   7.618  -0.337  1.00  0.00     0.070 C 
HETATM   16  C3  UNL     1      61.166   5.594   1.438  1.00  0.00     0.152 C 
HETATM   17  C2  UNL     1      60.109   6.627   1.431  1.00  0.00    -0.032 C 
HETATM   18  C1  UNL     1      59.026   6.502   2.160  1.00  0.00     0.019 C 
HETATM   19  C27 UNL     1      60.301   7.816   0.572  1.00  0.00     0.152 C 
BRANCH  16  20
HETATM   20  O1  UNL     1      62.376   6.118   1.922  1.00  0.00    -0.391 OA
ATOM     21  H1  UNL     1      63.066   5.466   1.890  1.00  0.00     0.210 HD
ENDBRANCH  16  20
BRANCH  19  22
HETATM   22  O3  UNL     1      59.169   7.953  -0.234  1.00  0.00    -0.391 OA
ATOM     23  H3  UNL     1      58.852   8.844  -0.146  1.00  0.00     0.210 HD
ENDBRANCH  19  22
ENDBRANCH   1  12
BRANCH  11  24
HETATM   24  C18 UNL     1      63.071   1.014  -6.884  1.00  0.00    -0.014 C 
HETATM   25  C19 UNL     1      63.876   2.132  -7.512  1.00  0.00     0.010 C 
BRANCH  24  26
HETATM   26  C20 UNL     1      64.059   0.189  -6.063  1.00  0.00     0.005 C 
BRANCH  26  27
HETATM   27  C21 UNL     1      65.345   0.159  -6.814  1.00  0.00     0.003 C 
BRANCH  27  28
HETATM   28  C22 UNL     1      66.561  -0.365  -6.187  1.00  0.00     0.037 C 
BRANCH  28  29
HETATM   29  C23 UNL     1      66.904  -1.774  -6.461  1.00  0.00     0.051 C 
HETATM   30  C24 UNL     1      68.246  -1.974  -7.070  1.00  0.00     0.045 C 
HETATM   31  C25 UNL     1      66.801  -2.573  -5.142  1.00  0.00     0.045 C 
BRANCH  29  32
HETATM   32  O2  UNL     1      65.937  -2.381  -7.303  1.00  0.00    -0.391 OA
ATOM     33  H2  UNL     1      66.150  -3.292  -7.467  1.00  0.00     0.210 HD
ENDBRANCH  29  32
ENDBRANCH  28  29
ENDBRANCH  27  28
ENDBRANCH  26  27
ENDBRANCH  24  26
ENDBRANCH  11  24
TORSDOF 9
ENDMDL
