MODEL 1
REMARK VINA RESULT: -11.420910006      0.000      0.000
REMARK  9 active torsions:
REMARK  status: ('A' for Active; 'I' for Inactive)
REMARK    1  A    between atoms: C3_3  and  O1_4 
REMARK    2  A    between atoms: C6_8  and  C7_9 
REMARK    3  A    between atoms: C17_19  and  C18_20 
REMARK    4  A    between atoms: C18_20  and  C20_22 
REMARK    5  A    between atoms: C20_22  and  C21_23 
REMARK    6  A    between atoms: C21_23  and  C22_24 
REMARK    7  A    between atoms: C22_24  and  C23_25 
REMARK    8  A    between atoms: C23_25  and  O2_28 
REMARK    9  A    between atoms: C27_31  and  O3_32 
ROOT
HETATM    1  C7  UNL     1      60.313   6.307  -3.168  1.00  0.00     0.003 C 
HETATM    2  C8  UNL     1      61.055   6.047  -4.229  1.00  0.00    -0.075 C 
HETATM    3  C9  UNL     1      62.318   6.779  -4.467  1.00  0.00     0.034 C 
HETATM    4  C10 UNL     1      62.653   6.550  -5.945  1.00  0.00     0.005 C 
HETATM    5  C11 UNL     1      62.902   5.070  -6.145  1.00  0.00     0.010 C 
HETATM    6  C12 UNL     1      61.901   4.178  -5.506  1.00  0.00    -0.033 C 
HETATM    7  C13 UNL     1      62.374   3.615  -4.186  1.00  0.00     0.016 C 
HETATM    8  C14 UNL     1      60.665   5.043  -5.200  1.00  0.00     0.023 C 
HETATM    9  C15 UNL     1      59.698   4.015  -4.753  1.00  0.00     0.010 C 
HETATM   10  C16 UNL     1      59.978   2.848  -5.650  1.00  0.00     0.006 C 
HETATM   11  C17 UNL     1      61.280   3.160  -6.403  1.00  0.00    -0.002 C 
ENDROOT
BRANCH   1  12
HETATM   12  C6  UNL     1      60.673   7.304  -2.179  1.00  0.00     0.003 C 
HETATM   13  C5  UNL     1      60.947   6.937  -0.947  1.00  0.00    -0.074 C 
HETATM   14  C4  UNL     1      60.896   5.522  -0.542  1.00  0.00     0.070 C 
HETATM   15  C26 UNL     1      61.316   7.976   0.057  1.00  0.00     0.070 C 
HETATM   16  C3  UNL     1      61.052   5.427   0.953  1.00  0.00     0.152 C 
HETATM   17  C2  UNL     1      60.164   6.424   1.587  1.00  0.00    -0.032 C 
HETATM   18  C1  UNL     1      59.238   6.069   2.443  1.00  0.00     0.019 C 
HETATM   19  C27 UNL     1      60.345   7.849   1.227  1.00  0.00     0.152 C 
BRANCH  16  20
HETATM   20  O1  UNL     1      62.392   5.654   1.304  1.00  0.00    -0.391 OA
ATOM     21  H1  UNL     1      62.606   6.579   1.250  1.00  0.00     0.210 HD
ENDBRANCH  16  20
BRANCH  19  22
HETATM   22  O3  UNL     1      59.108   8.352   0.823  1.00  0.00    -0.391 OA
ATOM     23  H3  UNL     1      59.130   8.464  -0.121  1.00  0.00     0.210 HD
ENDBRANCH  19  22
ENDBRANCH   1  12
BRANCH  11  24
HETATM   24  C18 UNL     1      62.004   1.884  -6.540  1.00  0.00    -0.014 C 
HETATM   25  C19 UNL     1      61.082   0.858  -7.163  1.00  0.00     0.010 C 
BRANCH  24  26
HETATM   26  C20 UNL     1      63.226   1.963  -7.453  1.00  0.00     0.005 C 
BRANCH  26  27
HETATM   27  C21 UNL     1      64.419   1.616  -6.633  1.00  0.00     0.003 C 
BRANCH  27  28
HETATM   28  C22 UNL     1      65.751   1.560  -7.241  1.00  0.00     0.037 C 
BRANCH  28  29
HETATM   29  C23 UNL     1      66.534   0.328  -7.029  1.00  0.00     0.051 C 
HETATM   30  C24 UNL     1      67.687   0.482  -6.103  1.00  0.00     0.045 C 
HETATM   31  C25 UNL     1      65.586  -0.777  -6.510  1.00  0.00     0.045 C 
BRANCH  29  32
HETATM   32  O2  UNL     1      67.016  -0.190  -8.259  1.00  0.00    -0.391 OA
ATOM     33  H2  UNL     1      67.656   0.394  -8.650  1.00  0.00     0.210 HD
ENDBRANCH  29  32
ENDBRANCH  28  29
ENDBRANCH  27  28
ENDBRANCH  26  27
ENDBRANCH  24  26
ENDBRANCH  11  24
TORSDOF 9
ENDMDL
