MODEL 11
REMARK VINA RESULT: -6.398246011      1.664      2.463
REMARK  10 active torsions:
REMARK  status: ('A' for Active; 'I' for Inactive)
REMARK    1  A    between atoms: P1_2  and  C1_5 
REMARK    2  A    between atoms: C2_6  and  C3_7 
REMARK    3  A    between atoms: C3_7  and  O4_8 
REMARK    4  A    between atoms: C3_7  and  C4_10 
REMARK    5  A    between atoms: C4_10  and  O5_11 
REMARK    6  A    between atoms: C4_10  and  C5_13 
REMARK    7  A    between atoms: C5_13  and  O6_14 
REMARK    8  A    between atoms: C5_13  and  C6_16 
REMARK    9  A    between atoms: C6_16  and  C7_17 
REMARK   10  A    between atoms: C7_17  and  O7_18 
ROOT
HETATM    1  C4  UNL     1     -14.983  41.154  11.675  1.00  0.00     0.179 C 
ENDROOT
BRANCH   1   2
HETATM    2  C3  UNL     1     -14.207  40.706  10.454  1.00  0.00     0.172 C 
BRANCH   2   3
HETATM    3  C2  UNL     1     -14.814  39.504   9.848  1.00  0.00     0.017 C 
HETATM    4  C1  UNL     1     -14.036  38.518   9.431  1.00  0.00     0.114 C 
BRANCH   4   5
HETATM    5  P1  UNL     1     -12.281  38.649   9.604  1.00  0.00     0.284 P 
HETATM    6  O1  UNL     1     -11.587  37.570   8.775  1.00  0.00    -0.636 OA
HETATM    7  O2  UNL     1     -11.794  38.341  11.218  1.00  0.00    -0.636 OA
HETATM    8  O3  UNL     1     -11.695  40.186   9.229  1.00  0.00    -0.636 OA
ENDBRANCH   4   5
ENDBRANCH   2   3
BRANCH   2   9
HETATM    9  O4  UNL     1     -14.093  41.750   9.560  1.00  0.00    -0.389 OA
ATOM     10  H4  UNL     1     -14.061  42.597   9.990  1.00  0.00     0.210 HD
ENDBRANCH   2   9
ENDBRANCH   1   2
BRANCH   1  11
HETATM   11  O5  UNL     1     -14.116  41.345  12.727  1.00  0.00    -0.390 OA
ATOM     12  H5  UNL     1     -14.307  42.175  13.149  1.00  0.00     0.210 HD
ENDBRANCH   1  11
BRANCH   1  13
HETATM   13  C5  UNL     1     -15.646  42.487  11.373  1.00  0.00     0.151 C 
BRANCH  13  14
HETATM   14  O6  UNL     1     -14.924  43.535  11.932  1.00  0.00    -0.393 OA
ATOM     15  H6  UNL     1     -15.285  43.780  12.776  1.00  0.00     0.210 HD
ENDBRANCH  13  14
BRANCH  13  16
HETATM   16  C6  UNL     1     -17.033  42.524  11.976  1.00  0.00     0.060 C 
BRANCH  16  17
HETATM   17  C7  UNL     1     -17.865  43.446  11.084  1.00  0.00     0.166 C 
BRANCH  17  18
HETATM   18  O7  UNL     1     -17.463  44.765  11.183  1.00  0.00    -0.401 OA
ATOM     19  H7  UNL     1     -16.615  44.849  11.603  1.00  0.00     0.209 HD
ENDBRANCH  17  18
ENDBRANCH  16  17
ENDBRANCH  13  16
ENDBRANCH   1  13
TORSDOF 10
ENDMDL
