MODEL 9
REMARK VINA RESULT: -6.526435056      2.049      3.319
REMARK  10 active torsions:
REMARK  status: ('A' for Active; 'I' for Inactive)
REMARK    1  A    between atoms: P1_2  and  C1_5 
REMARK    2  A    between atoms: C2_6  and  C3_7 
REMARK    3  A    between atoms: C3_7  and  O4_8 
REMARK    4  A    between atoms: C3_7  and  C4_10 
REMARK    5  A    between atoms: C4_10  and  O5_11 
REMARK    6  A    between atoms: C4_10  and  C5_13 
REMARK    7  A    between atoms: C5_13  and  O6_14 
REMARK    8  A    between atoms: C5_13  and  C6_16 
REMARK    9  A    between atoms: C6_16  and  C7_17 
REMARK   10  A    between atoms: C7_17  and  O7_18 
ROOT
HETATM    1  C4  UNL     1     -15.595  41.836  11.620  1.00  0.00     0.179 C 
ENDROOT
BRANCH   1   2
HETATM    2  C3  UNL     1     -15.281  40.864  10.502  1.00  0.00     0.172 C 
BRANCH   2   3
HETATM    3  C2  UNL     1     -15.491  39.467  10.935  1.00  0.00     0.017 C 
HETATM    4  C1  UNL     1     -14.465  38.631  10.966  1.00  0.00     0.114 C 
BRANCH   4   5
HETATM    5  P1  UNL     1     -12.858  39.192  10.489  1.00  0.00     0.284 P 
HETATM    6  O1  UNL     1     -12.808  39.433   8.981  1.00  0.00    -0.636 OA
HETATM    7  O2  UNL     1     -11.672  37.989  10.779  1.00  0.00    -0.636 OA
HETATM    8  O3  UNL     1     -12.354  40.555  11.347  1.00  0.00    -0.636 OA
ENDBRANCH   4   5
ENDBRANCH   2   3
BRANCH   2   9
HETATM    9  O4  UNL     1     -16.014  41.186   9.379  1.00  0.00    -0.389 OA
ATOM     10  H4  UNL     1     -16.043  42.122   9.218  1.00  0.00     0.210 HD
ENDBRANCH   2   9
ENDBRANCH   1   2
BRANCH   1  11
HETATM   11  O5  UNL     1     -14.678  41.681  12.635  1.00  0.00    -0.390 OA
ATOM     12  H5  UNL     1     -14.184  42.485  12.742  1.00  0.00     0.210 HD
ENDBRANCH   1  11
BRANCH   1  13
HETATM   13  C5  UNL     1     -15.464  43.253  11.089  1.00  0.00     0.151 C 
BRANCH  13  14
HETATM   14  O6  UNL     1     -14.718  44.039  11.960  1.00  0.00    -0.393 OA
ATOM     15  H6  UNL     1     -14.299  43.502  12.623  1.00  0.00     0.210 HD
ENDBRANCH  13  14
BRANCH  13  16
HETATM   16  C6  UNL     1     -16.831  43.888  10.968  1.00  0.00     0.060 C 
BRANCH  16  17
HETATM   17  C7  UNL     1     -16.749  44.862   9.792  1.00  0.00     0.166 C 
BRANCH  17  18
HETATM   18  O7  UNL     1     -15.956  45.957  10.079  1.00  0.00    -0.401 OA
ATOM     19  H7  UNL     1     -16.471  46.724  10.298  1.00  0.00     0.209 HD
ENDBRANCH  17  18
ENDBRANCH  16  17
ENDBRANCH  13  16
ENDBRANCH   1  13
TORSDOF 10
ENDMDL
