MODEL 2
REMARK VINA RESULT: -7.690241318      0.046      1.030
REMARK  8 active torsions:
REMARK  status: ('A' for Active; 'I' for Inactive)
REMARK    1  A    between atoms: O1_2  and  C2_3 
REMARK    2  A    between atoms: C5_6  and  S1_7 
REMARK    3  A    between atoms: S1_7  and  N1_10 
REMARK    4  A    between atoms: N1_10  and  C6_11 
REMARK    5  A    between atoms: N1_10  and  C8_18 
REMARK    6  A    between atoms: C6_11  and  C7_12 
REMARK       I    between atoms: C7_12  and  N2_14 
REMARK    7  A    between atoms: N2_14  and  O5_16 
REMARK    8  A    between atoms: C8_18  and  C9_19 
ROOT
HETATM    1  N1  UNL     1       7.686  27.085   2.955  1.00  0.00    -0.256 N 
ENDROOT
BRANCH   1   2
HETATM    2  S1  UNL     1       7.925  26.280   4.398  1.00  0.00     0.268 S 
HETATM    3  O2  UNL     1       8.113  27.292   5.513  1.00  0.00    -0.200 OA
HETATM    4  O3  UNL     1       9.218  25.470   4.395  1.00  0.00    -0.200 OA
BRANCH   2   5
HETATM    5  C5  UNL     1       6.671  25.176   4.889  1.00  0.00     0.080 A 
HETATM    6  C4  UNL     1       5.344  25.429   4.607  1.00  0.00     0.028 A 
HETATM    7  C3  UNL     1       4.353  24.550   4.998  1.00  0.00     0.038 A 
HETATM    8  C2  UNL     1       4.636  23.386   5.681  1.00  0.00     0.068 A 
HETATM    9  C13 UNL     1       5.961  23.126   5.967  1.00  0.00     0.038 A 
HETATM   10  C12 UNL     1       6.964  24.014   5.573  1.00  0.00     0.028 A 
BRANCH   8  11
HETATM   11  O1  UNL     1       3.634  22.502   6.073  1.00  0.00    -0.356 OA
HETATM   12  C1  UNL     1       2.273  22.846   6.066  1.00  0.00     0.210 C 
ENDBRANCH   8  11
ENDBRANCH   2   5
ENDBRANCH   1   2
BRANCH   1  13
HETATM   13  C6  UNL     1       8.399  26.740   1.813  1.00  0.00     0.184 C 
BRANCH  13  14
HETATM   14  C7  UNL     1       7.861  25.440   1.269  1.00  0.00     0.281 C 
HETATM   15  O4  UNL     1       6.639  25.201   1.303  1.00  0.00    -0.265 OA
HETATM   16  N2  UNL     1       8.726  24.465   0.709  1.00  0.00    -0.233 N 
ATOM     17  H2  UNL     1       9.732  24.631   0.670  1.00  0.00     0.197 HD
BRANCH  16  18
HETATM   18  O5  UNL     1       8.199  23.302   0.225  1.00  0.00    -0.287 OA
ATOM     19  H5  UNL     1       8.023  22.585   0.824  1.00  0.00     0.244 HD
ENDBRANCH  16  18
ENDBRANCH  13  14
ENDBRANCH   1  13
BRANCH   1  20
HETATM   20  C8  UNL     1       7.115  28.353   3.125  1.00  0.00     0.085 C 
BRANCH  20  21
HETATM   21  C9  UNL     1       7.523  29.439   2.192  1.00  0.00     0.017 C 
HETATM   22  C10 UNL     1       6.419  30.005   1.341  1.00  0.00     0.015 C 
HETATM   23  C11 UNL     1       8.029  30.601   3.059  1.00  0.00     0.015 C 
ENDBRANCH  20  21
ENDBRANCH   1  20
TORSDOF 8
ENDMDL
