MODEL 1
REMARK VINA RESULT: -7.692746739      0.000      0.000
REMARK  8 active torsions:
REMARK  status: ('A' for Active; 'I' for Inactive)
REMARK    1  A    between atoms: O1_2  and  C2_3 
REMARK    2  A    between atoms: C5_6  and  S1_7 
REMARK    3  A    between atoms: S1_7  and  N1_10 
REMARK    4  A    between atoms: N1_10  and  C6_11 
REMARK    5  A    between atoms: N1_10  and  C8_18 
REMARK    6  A    between atoms: C6_11  and  C7_12 
REMARK       I    between atoms: C7_12  and  N2_14 
REMARK    7  A    between atoms: N2_14  and  O5_16 
REMARK    8  A    between atoms: C8_18  and  C9_19 
ROOT
HETATM    1  N1  UNL     1       7.707  27.098   2.948  1.00  0.00    -0.256 N 
ENDROOT
BRANCH   1   2
HETATM    2  S1  UNL     1       7.953  26.296   4.391  1.00  0.00     0.268 S 
HETATM    3  O2  UNL     1       8.146  27.309   5.504  1.00  0.00    -0.200 OA
HETATM    4  O3  UNL     1       9.247  25.487   4.383  1.00  0.00    -0.200 OA
BRANCH   2   5
HETATM    5  C5  UNL     1       6.703  25.191   4.889  1.00  0.00     0.080 A 
HETATM    6  C4  UNL     1       7.003  24.035   5.579  1.00  0.00     0.028 A 
HETATM    7  C3  UNL     1       6.008  23.162   5.973  1.00  0.00     0.038 A 
HETATM    8  C2  UNL     1       4.677  23.400   5.701  1.00  0.00     0.068 A 
HETATM    9  C13 UNL     1       4.368  24.555   5.011  1.00  0.00     0.038 A 
HETATM   10  C12 UNL     1       5.374  25.438   4.612  1.00  0.00     0.028 A 
BRANCH   8  11
HETATM   11  O1  UNL     1       3.677  22.517   6.100  1.00  0.00    -0.356 OA
HETATM   12  C1  UNL     1       2.315  22.860   6.098  1.00  0.00     0.210 C 
ENDBRANCH   8  11
ENDBRANCH   2   5
ENDBRANCH   1   2
BRANCH   1  13
HETATM   13  C6  UNL     1       8.410  26.748   1.802  1.00  0.00     0.184 C 
BRANCH  13  14
HETATM   14  C7  UNL     1       7.862  25.451   1.262  1.00  0.00     0.281 C 
HETATM   15  O4  UNL     1       6.638  25.222   1.298  1.00  0.00    -0.265 OA
HETATM   16  N2  UNL     1       8.720  24.467   0.706  1.00  0.00    -0.233 N 
ATOM     17  H2  UNL     1       9.726  24.625   0.666  1.00  0.00     0.197 HD
BRANCH  16  18
HETATM   18  O5  UNL     1       8.183  23.306   0.226  1.00  0.00    -0.287 OA
ATOM     19  H5  UNL     1       8.727  22.529   0.174  1.00  0.00     0.244 HD
ENDBRANCH  16  18
ENDBRANCH  13  14
ENDBRANCH   1  13
BRANCH   1  20
HETATM   20  C8  UNL     1       7.141  28.369   3.120  1.00  0.00     0.085 C 
BRANCH  20  21
HETATM   21  C9  UNL     1       7.511  29.439   2.153  1.00  0.00     0.017 C 
HETATM   22  C10 UNL     1       6.389  29.938   1.285  1.00  0.00     0.015 C 
HETATM   23  C11 UNL     1       7.973  30.646   2.984  1.00  0.00     0.015 C 
ENDBRANCH  20  21
ENDBRANCH   1  20
TORSDOF 8
ENDMDL
