MODEL 8
REMARK VINA RESULT: -7.059034096      0.879      1.129
REMARK  8 active torsions:
REMARK  status: ('A' for Active; 'I' for Inactive)
REMARK    1  A    between atoms: O1_2  and  C2_3 
REMARK    2  A    between atoms: C5_6  and  S1_7 
REMARK    3  A    between atoms: S1_7  and  N1_10 
REMARK    4  A    between atoms: N1_10  and  C6_11 
REMARK    5  A    between atoms: N1_10  and  C8_18 
REMARK    6  A    between atoms: C6_11  and  C7_12 
REMARK       I    between atoms: C7_12  and  N2_14 
REMARK    7  A    between atoms: N2_14  and  O5_16 
REMARK    8  A    between atoms: C8_18  and  C9_19 
ROOT
HETATM    1  N1  UNL     1       7.099  26.779   3.073  1.00  0.00    -0.256 N 
ENDROOT
BRANCH   1   2
HETATM    2  S1  UNL     1       7.464  25.976   4.489  1.00  0.00     0.268 S 
HETATM    3  O2  UNL     1       7.720  26.988   5.591  1.00  0.00    -0.200 OA
HETATM    4  O3  UNL     1       8.768  25.190   4.382  1.00  0.00    -0.200 OA
BRANCH   2   5
HETATM    5  C5  UNL     1       6.273  24.847   5.072  1.00  0.00     0.080 A 
HETATM    6  C4  UNL     1       6.634  23.756   5.835  1.00  0.00     0.028 A 
HETATM    7  C3  UNL     1       5.686  22.864   6.296  1.00  0.00     0.038 A 
HETATM    8  C2  UNL     1       4.343  23.017   6.020  1.00  0.00     0.068 A 
HETATM    9  C13 UNL     1       3.974  24.106   5.257  1.00  0.00     0.038 A 
HETATM   10  C12 UNL     1       4.932  25.008   4.790  1.00  0.00     0.028 A 
BRANCH   8  11
HETATM   11  O1  UNL     1       3.390  22.115   6.486  1.00  0.00    -0.356 OA
HETATM   12  C1  UNL     1       2.015  22.398   6.494  1.00  0.00     0.210 C 
ENDBRANCH   8  11
ENDBRANCH   2   5
ENDBRANCH   1   2
BRANCH   1  13
HETATM   13  C6  UNL     1       6.454  26.133   2.025  1.00  0.00     0.184 C 
BRANCH  13  14
HETATM   14  C7  UNL     1       7.486  25.520   1.112  1.00  0.00     0.281 C 
HETATM   15  O4  UNL     1       7.904  26.151   0.123  1.00  0.00    -0.265 OA
HETATM   16  N2  UNL     1       8.000  24.220   1.354  1.00  0.00    -0.233 N 
ATOM     17  H2  UNL     1       7.675  23.679   2.154  1.00  0.00     0.197 HD
BRANCH  16  18
HETATM   18  O5  UNL     1       8.936  23.702   0.504  1.00  0.00    -0.287 OA
ATOM     19  H5  UNL     1       9.049  22.760   0.455  1.00  0.00     0.244 HD
ENDBRANCH  16  18
ENDBRANCH  13  14
ENDBRANCH   1  13
BRANCH   1  20
HETATM   20  C8  UNL     1       7.886  27.922   2.875  1.00  0.00     0.085 C 
BRANCH  20  21
HETATM   21  C9  UNL     1       7.194  29.223   2.660  1.00  0.00     0.017 C 
HETATM   22  C10 UNL     1       7.620  30.338   3.575  1.00  0.00     0.015 C 
HETATM   23  C11 UNL     1       7.549  29.683   1.237  1.00  0.00     0.015 C 
ENDBRANCH  20  21
ENDBRANCH   1  20
TORSDOF 8
ENDMDL
