MODEL 20
REMARK VINA RESULT: -6.505441083      3.049      4.449
REMARK  8 active torsions:
REMARK  status: ('A' for Active; 'I' for Inactive)
REMARK    1  A    between atoms: O1_2  and  C2_3 
REMARK    2  A    between atoms: C5_6  and  S1_7 
REMARK    3  A    between atoms: S1_7  and  N1_10 
REMARK    4  A    between atoms: N1_10  and  C6_11 
REMARK    5  A    between atoms: N1_10  and  C8_18 
REMARK    6  A    between atoms: C6_11  and  C7_12 
REMARK       I    between atoms: C7_12  and  N2_14 
REMARK    7  A    between atoms: N2_14  and  O5_16 
REMARK    8  A    between atoms: C8_18  and  C9_19 
ROOT
HETATM    1  N1  UNL     1       6.225  24.761   4.436  1.00  0.00    -0.256 N 
ENDROOT
BRANCH   1   2
HETATM    2  S1  UNL     1       6.092  23.405   5.401  1.00  0.00     0.268 S 
HETATM    3  O2  UNL     1       6.968  23.573   6.629  1.00  0.00    -0.200 OA
HETATM    4  O3  UNL     1       6.635  22.156   4.712  1.00  0.00    -0.200 OA
BRANCH   2   5
HETATM    5  C5  UNL     1       4.490  22.992   5.944  1.00  0.00     0.080 A 
HETATM    6  C4  UNL     1       3.374  23.611   5.420  1.00  0.00     0.028 A 
HETATM    7  C3  UNL     1       2.106  23.279   5.853  1.00  0.00     0.038 A 
HETATM    8  C2  UNL     1       1.891  22.321   6.821  1.00  0.00     0.068 A 
HETATM    9  C13 UNL     1       3.002  21.696   7.351  1.00  0.00     0.038 A 
HETATM   10  C12 UNL     1       4.286  22.032   6.914  1.00  0.00     0.028 A 
BRANCH   8  11
HETATM   11  O1  UNL     1       0.610  21.989   7.255  1.00  0.00    -0.356 OA
HETATM   12  C1  UNL     1       0.374  21.166   8.367  1.00  0.00     0.210 C 
ENDBRANCH   8  11
ENDBRANCH   2   5
ENDBRANCH   1   2
BRANCH   1  13
HETATM   13  C6  UNL     1       5.314  25.806   4.535  1.00  0.00     0.184 C 
BRANCH  13  14
HETATM   14  C7  UNL     1       5.973  26.972   5.229  1.00  0.00     0.281 C 
HETATM   15  O4  UNL     1       6.269  26.899   6.437  1.00  0.00    -0.265 OA
HETATM   16  N2  UNL     1       6.268  28.170   4.530  1.00  0.00    -0.233 N 
ATOM     17  H2  UNL     1       6.035  28.260   3.541  1.00  0.00     0.197 HD
BRANCH  16  18
HETATM   18  O5  UNL     1       6.867  29.202   5.195  1.00  0.00    -0.287 OA
ATOM     19  H5  UNL     1       7.808  29.318   5.123  1.00  0.00     0.244 HD
ENDBRANCH  16  18
ENDBRANCH  13  14
ENDBRANCH   1  13
BRANCH   1  20
HETATM   20  C8  UNL     1       6.980  24.534   3.278  1.00  0.00     0.085 C 
BRANCH  20  21
HETATM   21  C9  UNL     1       7.732  25.679   2.694  1.00  0.00     0.017 C 
HETATM   22  C10 UNL     1       9.028  26.015   3.381  1.00  0.00     0.015 C 
HETATM   23  C11 UNL     1       8.104  25.278   1.259  1.00  0.00     0.015 C 
ENDBRANCH  20  21
ENDBRANCH   1  20
TORSDOF 8
ENDMDL
