MODEL 4
REMARK VINA RESULT: -6.561898636      1.966      2.747
REMARK  7 active torsions:
REMARK  status: ('A' for Active; 'I' for Inactive)
REMARK    1  A    between atoms: N1_1  and  C1_4 
REMARK    2  A    between atoms: N2_7  and  C4_8 
REMARK    3  A    between atoms: C5_10  and  C6_11 
REMARK    4  A    between atoms: C6_11  and  O2_12 
REMARK    5  A    between atoms: O2_12  and  P1_13 
REMARK    6  A    between atoms: C7_17  and  O6_18 
REMARK    7  A    between atoms: C8_20  and  O7_21 
ROOT
HETATM    1  C4  UNL     1      15.048  20.420  29.730  1.00  0.00     0.263 C 
HETATM    2  O1  UNL     1      15.820  19.955  28.674  1.00  0.00    -0.353 OA
HETATM    3  C5  UNL     1      15.578  18.582  28.648  1.00  0.00     0.180 C 
HETATM    4  C7  UNL     1      14.089  18.511  28.721  1.00  0.00     0.182 C 
HETATM    5  C8  UNL     1      13.776  19.610  29.728  1.00  0.00     0.198 C 
ENDROOT
BRANCH   1   6
HETATM    6  N2  UNL     1      14.781  21.826  29.675  1.00  0.00    -0.280 N 
HETATM    7  C3  UNL     1      13.535  22.284  29.465  1.00  0.00     0.102 A 
HETATM    8  C2  UNL     1      13.232  23.621  29.406  1.00  0.00     0.065 A 
HETATM    9  C1  UNL     1      14.244  24.541  29.567  1.00  0.00     0.103 A 
HETATM   10  N3  UNL     1      15.484  24.074  29.774  1.00  0.00    -0.295 N 
HETATM   11  C9  UNL     1      15.753  22.743  29.829  1.00  0.00     0.330 A 
ATOM     12  H3  UNL     1      16.248  24.738  29.895  1.00  0.00     0.172 HD
HETATM   13  O8  UNL     1      16.920  22.314  30.024  1.00  0.00    -0.246 OA
BRANCH   9  14
HETATM   14  N1  UNL     1      13.936  25.781  29.507  1.00  0.00    -0.385 N 
ATOM     15  H12 UNL     1      13.689  26.357  30.313  1.00  0.00     0.157 HD
ATOM     16  H11 UNL     1      13.937  26.227  28.589  1.00  0.00     0.157 HD
ENDBRANCH   9  14
ENDBRANCH   1   6
BRANCH   5  17
HETATM   17  O7  UNL     1      13.629  19.008  30.973  1.00  0.00    -0.388 OA
ATOM     18  H7  UNL     1      12.703  18.956  31.179  1.00  0.00     0.210 HD
ENDBRANCH   5  17
BRANCH   3  19
HETATM   19  C6  UNL     1      16.160  17.924  27.435  1.00  0.00     0.217 C 
BRANCH  19  20
HETATM   20  O2  UNL     1      17.061  16.950  27.749  1.00  0.00    -0.280 OA
BRANCH  20  21
HETATM   21  P1  UNL     1      16.398  15.423  27.763  1.00  0.00     0.422 P 
HETATM   22  O3  UNL     1      17.010  14.207  26.901  1.00  0.00    -0.617 OA
HETATM   23  O4  UNL     1      15.191  15.102  28.888  1.00  0.00    -0.617 OA
HETATM   24  O5  UNL     1      15.316  15.857  26.773  1.00  0.00    -0.617 OA
ENDBRANCH  20  21
ENDBRANCH  19  20
ENDBRANCH   3  19
BRANCH   4  25
HETATM   25  O6  UNL     1      13.620  17.280  29.169  1.00  0.00    -0.390 OA
ATOM     26  H6  UNL     1      13.385  17.280  30.089  1.00  0.00     0.210 HD
ENDBRANCH   4  25
TORSDOF 7
ENDMDL
