MODEL 1
REMARK VINA RESULT: -6.644948781      0.000      0.000
REMARK  7 active torsions:
REMARK  status: ('A' for Active; 'I' for Inactive)
REMARK    1  A    between atoms: N1_1  and  C1_4 
REMARK    2  A    between atoms: N2_7  and  C4_8 
REMARK    3  A    between atoms: C5_10  and  C6_11 
REMARK    4  A    between atoms: C6_11  and  O2_12 
REMARK    5  A    between atoms: O2_12  and  P1_13 
REMARK    6  A    between atoms: C7_17  and  O6_18 
REMARK    7  A    between atoms: C8_20  and  O7_21 
ROOT
HETATM    1  C4  UNL     1      14.506  18.461  29.465  1.00  0.00     0.263 C 
HETATM    2  O1  UNL     1      15.700  17.801  29.208  1.00  0.00    -0.353 OA
HETATM    3  C5  UNL     1      15.325  16.688  28.457  1.00  0.00     0.180 C 
HETATM    4  C7  UNL     1      14.428  17.279  27.421  1.00  0.00     0.182 C 
HETATM    5  C8  UNL     1      13.648  18.304  28.235  1.00  0.00     0.198 C 
ENDROOT
BRANCH   1   6
HETATM    6  N2  UNL     1      14.671  19.838  29.823  1.00  0.00    -0.280 N 
HETATM    7  C3  UNL     1      15.841  20.468  29.619  1.00  0.00     0.102 A 
HETATM    8  C2  UNL     1      16.044  21.785  29.945  1.00  0.00     0.065 A 
HETATM    9  C1  UNL     1      15.010  22.500  30.508  1.00  0.00     0.103 A 
HETATM   10  N3  UNL     1      13.848  21.861  30.708  1.00  0.00    -0.295 N 
HETATM   11  C9  UNL     1      13.675  20.555  30.373  1.00  0.00     0.330 A 
ATOM     12  H3  UNL     1      13.069  22.371  31.124  1.00  0.00     0.172 HD
HETATM   13  O8  UNL     1      12.581  19.964  30.565  1.00  0.00    -0.246 OA
BRANCH   9  14
HETATM   14  N1  UNL     1      15.225  23.726  30.803  1.00  0.00    -0.385 N 
ATOM     15  H12 UNL     1      15.131  24.505  30.150  1.00  0.00     0.157 HD
ATOM     16  H11 UNL     1      15.510  23.941  31.758  1.00  0.00     0.157 HD
ENDBRANCH   9  14
ENDBRANCH   1   6
BRANCH   5  17
HETATM   17  O7  UNL     1      12.442  17.717  28.602  1.00  0.00    -0.388 OA
ATOM     18  H7  UNL     1      11.947  18.337  29.123  1.00  0.00     0.210 HD
ENDBRANCH   5  17
BRANCH   3  19
HETATM   19  C6  UNL     1      16.505  15.956  27.895  1.00  0.00     0.217 C 
BRANCH  19  20
HETATM   20  O2  UNL     1      16.147  14.828  27.217  1.00  0.00    -0.280 OA
BRANCH  20  21
HETATM   21  P1  UNL     1      16.864  13.450  27.813  1.00  0.00     0.422 P 
HETATM   22  O3  UNL     1      18.174  13.492  28.750  1.00  0.00    -0.617 OA
HETATM   23  O4  UNL     1      16.054  11.991  27.607  1.00  0.00    -0.617 OA
HETATM   24  O5  UNL     1      17.569  13.209  26.477  1.00  0.00    -0.617 OA
ENDBRANCH  20  21
ENDBRANCH  19  20
ENDBRANCH   3  19
BRANCH   4  25
HETATM   25  O6  UNL     1      13.570  16.348  26.843  1.00  0.00    -0.390 OA
ATOM     26  H6  UNL     1      12.652  16.562  26.958  1.00  0.00     0.210 HD
ENDBRANCH   4  25
TORSDOF 7
ENDMDL
