MODEL 6
REMARK VINA RESULT: -6.482937246      4.075      7.354
REMARK  7 active torsions:
REMARK  status: ('A' for Active; 'I' for Inactive)
REMARK    1  A    between atoms: N1_1  and  C1_4 
REMARK    2  A    between atoms: N2_7  and  C4_8 
REMARK    3  A    between atoms: C5_10  and  C6_11 
REMARK    4  A    between atoms: C6_11  and  O2_12 
REMARK    5  A    between atoms: O2_12  and  P1_13 
REMARK    6  A    between atoms: C7_17  and  O6_18 
REMARK    7  A    between atoms: C8_20  and  O7_21 
ROOT
HETATM    1  C4  UNL     1      15.985  16.703  28.324  1.00  0.00     0.263 C 
HETATM    2  O1  UNL     1      15.140  17.302  29.248  1.00  0.00    -0.353 OA
HETATM    3  C5  UNL     1      15.432  18.662  29.152  1.00  0.00     0.180 C 
HETATM    4  C7  UNL     1      15.402  18.900  27.678  1.00  0.00     0.182 C 
HETATM    5  C8  UNL     1      16.082  17.643  27.149  1.00  0.00     0.198 C 
ENDROOT
BRANCH   1   6
HETATM    6  N2  UNL     1      15.566  15.394  27.922  1.00  0.00    -0.280 N 
HETATM    7  C3  UNL     1      14.303  15.165  27.525  1.00  0.00     0.102 A 
HETATM    8  C2  UNL     1      13.858  13.928  27.130  1.00  0.00     0.065 A 
HETATM    9  C1  UNL     1      14.738  12.869  27.139  1.00  0.00     0.103 A 
HETATM   10  N3  UNL     1      15.996  13.108  27.537  1.00  0.00    -0.295 N 
HETATM   11  C9  UNL     1      16.409  14.345  27.922  1.00  0.00     0.330 A 
ATOM     12  H3  UNL     1      16.664  12.338  27.553  1.00  0.00     0.172 HD
HETATM   13  O8  UNL     1      17.591  14.559  28.295  1.00  0.00    -0.246 OA
BRANCH   9  14
HETATM   14  N1  UNL     1      14.299  11.727  26.767  1.00  0.00    -0.385 N 
ATOM     15  H12 UNL     1      13.494  11.253  27.178  1.00  0.00     0.157 HD
ATOM     16  H11 UNL     1      14.787  11.256  26.005  1.00  0.00     0.157 HD
ENDBRANCH   9  14
ENDBRANCH   1   6
BRANCH   5  17
HETATM   17  O7  UNL     1      17.420  17.951  26.932  1.00  0.00    -0.388 OA
ATOM     18  H7  UNL     1      17.815  17.254  26.421  1.00  0.00     0.210 HD
ENDBRANCH   5  17
BRANCH   3  19
HETATM   19  C6  UNL     1      14.467  19.508  29.924  1.00  0.00     0.217 C 
BRANCH  19  20
HETATM   20  O2  UNL     1      15.092  20.391  30.755  1.00  0.00    -0.280 OA
BRANCH  20  21
HETATM   21  P1  UNL     1      15.073  21.954  30.184  1.00  0.00     0.422 P 
HETATM   22  O3  UNL     1      14.423  22.349  28.764  1.00  0.00    -0.617 OA
HETATM   23  O4  UNL     1      15.548  23.178  31.234  1.00  0.00    -0.617 OA
HETATM   24  O5  UNL     1      16.526  21.830  29.724  1.00  0.00    -0.617 OA
ENDBRANCH  20  21
ENDBRANCH  19  20
ENDBRANCH   3  19
BRANCH   4  25
HETATM   25  O6  UNL     1      16.100  20.040  27.293  1.00  0.00    -0.390 OA
ATOM     26  H6  UNL     1      15.827  20.379  26.448  1.00  0.00     0.210 HD
ENDBRANCH   4  25
TORSDOF 7
ENDMDL
