MODEL 5
REMARK VINA RESULT: -6.227892974      3.089      5.649
REMARK  6 active torsions:
REMARK  status: ('A' for Active; 'I' for Inactive)
REMARK    1  A    between atoms: N4_10  and  C5_11 
REMARK    2  A    between atoms: C6_13  and  C7_14 
REMARK    3  A    between atoms: C7_14  and  O2_15 
REMARK    4  A    between atoms: C8_17  and  O3_18 
REMARK    5  A    between atoms: C9_20  and  O4_21 
REMARK    6  A    between atoms: O4_21  and  P1_22 
ROOT
HETATM    1  C5  UNL     1      19.098  31.772  21.398  1.00  0.00     0.263 C 
HETATM    2  O1  UNL     1      17.877  31.171  21.574  1.00  0.00    -0.353 OA
HETATM    3  C6  UNL     1      16.887  32.011  21.143  1.00  0.00     0.179 C 
HETATM    4  C8  UNL     1      17.540  32.840  20.055  1.00  0.00     0.183 C 
HETATM    5  C9  UNL     1      18.872  33.126  20.775  1.00  0.00     0.216 C 
ENDROOT
BRANCH   1   6
HETATM    6  N4  UNL     1      19.893  30.918  20.534  1.00  0.00    -0.297 N 
HETATM    7  C2  UNL     1      21.129  31.238  20.136  1.00  0.00     0.146 A 
HETATM    8  N2  UNL     1      21.925  32.298  20.373  1.00  0.00    -0.314 N 
HETATM    9  C3  UNL     1      21.635  30.230  19.318  1.00  0.00     0.146 A 
HETATM   10  C1  UNL     1      23.153  32.377  19.842  1.00  0.00     0.196 A 
ATOM     11  H2  UNL     1      21.587  33.055  20.969  1.00  0.00     0.170 HD
HETATM   12  N1  UNL     1      23.980  33.496  20.098  1.00  0.00    -0.063 NA
HETATM   13  N5  UNL     1      23.630  31.392  19.050  1.00  0.00    -0.295 N 
HETATM   14  C10 UNL     1      22.899  30.297  18.764  1.00  0.00     0.278 A 
ATOM     15  H5  UNL     1      24.569  31.478  18.659  1.00  0.00     0.171 HD
HETATM   16  O8  UNL     1      23.341  29.384  18.029  1.00  0.00    -0.265 OA
HETATM   17  N3  UNL     1      20.658  29.312  19.248  1.00  0.00    -0.345 N 
HETATM   18  C4  UNL     1      19.612  29.740  19.987  1.00  0.00     0.188 A 
ATOM     19  H3  UNL     1      20.699  28.437  18.724  1.00  0.00     0.167 HD
ENDBRANCH   1   6
BRANCH   5  20
HETATM   20  O4  UNL     1      18.534  34.076  21.732  1.00  0.00    -0.270 OA
BRANCH  20  21
HETATM   21  P1  UNL     1      19.480  35.255  21.904  1.00  0.00     0.422 P 
HETATM   22  O5  UNL     1      19.738  34.799  23.490  1.00  0.00    -0.617 OA
HETATM   23  O6  UNL     1      18.234  36.292  21.565  1.00  0.00    -0.617 OA
HETATM   24  O7  UNL     1      20.505  34.830  20.724  1.00  0.00    -0.617 OA
ENDBRANCH  20  21
ENDBRANCH   5  20
BRANCH   3  25
HETATM   25  C7  UNL     1      15.660  31.292  20.648  1.00  0.00     0.198 C 
BRANCH  25  26
HETATM   26  O2  UNL     1      16.017  30.572  19.509  1.00  0.00    -0.398 OA
ATOM     27  H2  UNL     1      16.150  29.667  19.767  1.00  0.00     0.209 HD
ENDBRANCH  25  26
ENDBRANCH   3  25
BRANCH   4  28
HETATM   28  O3  UNL     1      16.879  34.040  19.832  1.00  0.00    -0.390 OA
ATOM     29  H3  UNL     1      16.097  33.932  19.303  1.00  0.00     0.210 HD
ENDBRANCH   4  28
TORSDOF 6
ENDMDL
