MODEL 10
REMARK VINA RESULT: -5.924637291      2.751      4.687
REMARK  6 active torsions:
REMARK  status: ('A' for Active; 'I' for Inactive)
REMARK    1  A    between atoms: N4_10  and  C5_11 
REMARK    2  A    between atoms: C6_13  and  C7_14 
REMARK    3  A    between atoms: C7_14  and  O2_15 
REMARK    4  A    between atoms: C8_17  and  O3_18 
REMARK    5  A    between atoms: C9_20  and  O4_21 
REMARK    6  A    between atoms: O4_21  and  P1_22 
ROOT
HETATM    1  C5  UNL     1      18.851  33.536  20.143  1.00  0.00     0.263 C 
HETATM    2  O1  UNL     1      19.221  34.519  19.260  1.00  0.00    -0.353 OA
HETATM    3  C6  UNL     1      18.805  35.735  19.729  1.00  0.00     0.179 C 
HETATM    4  C8  UNL     1      18.798  35.579  21.237  1.00  0.00     0.183 C 
HETATM    5  C9  UNL     1      18.143  34.186  21.303  1.00  0.00     0.216 C 
ENDROOT
BRANCH   1   6
HETATM    6  N4  UNL     1      20.057  32.851  20.575  1.00  0.00    -0.297 N 
HETATM    7  C2  UNL     1      20.042  31.633  21.125  1.00  0.00     0.146 A 
HETATM    8  N2  UNL     1      19.050  30.767  21.413  1.00  0.00    -0.314 N 
HETATM    9  C3  UNL     1      21.342  31.241  21.436  1.00  0.00     0.146 A 
HETATM   10  C1  UNL     1      19.309  29.579  21.977  1.00  0.00     0.196 A 
ATOM     11  H2  UNL     1      18.086  31.021  21.199  1.00  0.00     0.170 HD
HETATM   12  N1  UNL     1      18.259  28.678  22.275  1.00  0.00    -0.063 NA
HETATM   13  N5  UNL     1      20.575  29.212  22.272  1.00  0.00    -0.295 N 
HETATM   14  C10 UNL     1      21.623  30.019  22.016  1.00  0.00     0.278 A 
ATOM     15  H5  UNL     1      20.742  28.302  22.701  1.00  0.00     0.171 HD
HETATM   16  O8  UNL     1      22.797  29.679  22.290  1.00  0.00    -0.265 OA
HETATM   17  N3  UNL     1      22.118  32.267  21.052  1.00  0.00    -0.345 N 
HETATM   18  C4  UNL     1      21.329  33.233  20.534  1.00  0.00     0.188 A 
ATOM     19  H3  UNL     1      23.134  32.310  21.139  1.00  0.00     0.167 HD
ENDBRANCH   1   6
BRANCH   5  20
HETATM   20  O4  UNL     1      16.808  34.435  21.010  1.00  0.00    -0.270 OA
BRANCH  20  21
HETATM   21  P1  UNL     1      15.767  33.631  21.777  1.00  0.00     0.422 P 
HETATM   22  O5  UNL     1      15.122  35.054  22.366  1.00  0.00    -0.617 OA
HETATM   23  O6  UNL     1      16.981  32.893  22.629  1.00  0.00    -0.617 OA
HETATM   24  O7  UNL     1      15.136  32.885  20.485  1.00  0.00    -0.617 OA
ENDBRANCH  20  21
ENDBRANCH   5  20
BRANCH   3  25
HETATM   25  C7  UNL     1      19.671  36.883  19.281  1.00  0.00     0.198 C 
BRANCH  25  26
HETATM   26  O2  UNL     1      19.663  36.906  17.887  1.00  0.00    -0.398 OA
ATOM     27  H2  UNL     1      20.560  36.805  17.589  1.00  0.00     0.209 HD
ENDBRANCH  25  26
ENDBRANCH   3  25
BRANCH   4  28
HETATM   28  O3  UNL     1      17.971  36.500  21.863  1.00  0.00    -0.390 OA
ATOM     29  H3  UNL     1      17.752  36.246  22.752  1.00  0.00     0.210 HD
ENDBRANCH   4  28
TORSDOF 6
ENDMDL
