MODEL 9
REMARK VINA RESULT: -5.993805601      2.982      4.308
REMARK  6 active torsions:
REMARK  status: ('A' for Active; 'I' for Inactive)
REMARK    1  A    between atoms: N4_10  and  C5_11 
REMARK    2  A    between atoms: C6_13  and  C7_14 
REMARK    3  A    between atoms: C7_14  and  O2_15 
REMARK    4  A    between atoms: C8_17  and  O3_18 
REMARK    5  A    between atoms: C9_20  and  O4_21 
REMARK    6  A    between atoms: O4_21  and  P1_22 
ROOT
HETATM    1  C5  UNL     1      21.462  34.647  21.184  1.00  0.00     0.263 C 
HETATM    2  O1  UNL     1      20.150  34.831  20.831  1.00  0.00    -0.353 OA
HETATM    3  C6  UNL     1      19.996  36.068  20.268  1.00  0.00     0.179 C 
HETATM    4  C8  UNL     1      21.341  36.365  19.633  1.00  0.00     0.183 C 
HETATM    5  C9  UNL     1      22.234  35.880  20.791  1.00  0.00     0.216 C 
ENDROOT
BRANCH   1   6
HETATM    6  N4  UNL     1      21.950  33.472  20.481  1.00  0.00    -0.297 N 
HETATM    7  C2  UNL     1      21.252  32.334  20.400  1.00  0.00     0.146 A 
HETATM    8  N2  UNL     1      20.047  31.960  20.871  1.00  0.00    -0.314 N 
HETATM    9  C3  UNL     1      21.973  31.392  19.669  1.00  0.00     0.146 A 
HETATM   10  C1  UNL     1      19.564  30.730  20.644  1.00  0.00     0.196 A 
ATOM     11  H2  UNL     1      19.491  32.625  21.410  1.00  0.00     0.170 HD
HETATM   12  N1  UNL     1      18.297  30.349  21.143  1.00  0.00    -0.063 NA
HETATM   13  N5  UNL     1      20.275  29.827  19.933  1.00  0.00    -0.295 N 
HETATM   14  C10 UNL     1      21.488  30.122  19.427  1.00  0.00     0.278 A 
ATOM     15  H5  UNL     1      19.883  28.899  19.775  1.00  0.00     0.171 HD
HETATM   16  O8  UNL     1      22.147  29.284  18.769  1.00  0.00    -0.265 OA
HETATM   17  N3  UNL     1      23.113  32.013  19.327  1.00  0.00    -0.345 N 
HETATM   18  C4  UNL     1      23.086  33.268  19.824  1.00  0.00     0.188 A 
ATOM     19  H3  UNL     1      23.874  31.603  18.783  1.00  0.00     0.167 HD
ENDBRANCH   1   6
BRANCH   5  20
HETATM   20  O4  UNL     1      22.111  36.883  21.745  1.00  0.00    -0.270 OA
BRANCH  20  21
HETATM   21  P1  UNL     1      23.399  37.454  22.322  1.00  0.00     0.422 P 
HETATM   22  O5  UNL     1      23.010  36.795  23.807  1.00  0.00    -0.617 OA
HETATM   23  O6  UNL     1      22.869  38.982  21.965  1.00  0.00    -0.617 OA
HETATM   24  O7  UNL     1      24.400  36.699  21.297  1.00  0.00    -0.617 OA
ENDBRANCH  20  21
ENDBRANCH   5  20
BRANCH   3  25
HETATM   25  C7  UNL     1      18.870  36.141  19.271  1.00  0.00     0.198 C 
BRANCH  25  26
HETATM   26  O2  UNL     1      19.327  36.852  18.161  1.00  0.00    -0.398 OA
ATOM     27  H2  UNL     1      18.573  37.248  17.739  1.00  0.00     0.209 HD
ENDBRANCH  25  26
ENDBRANCH   3  25
BRANCH   4  28
HETATM   28  O3  UNL     1      21.548  37.723  19.439  1.00  0.00    -0.390 OA
ATOM     29  H3  UNL     1      21.947  38.142  20.193  1.00  0.00     0.210 HD
ENDBRANCH   4  28
TORSDOF 6
ENDMDL
