MODEL 1
REMARK VINA RESULT: -8.690197986      0.000      0.000
REMARK  4 active torsions:
REMARK  status: ('A' for Active; 'I' for Inactive)
REMARK    1  A    between atoms: O1_2  and  C2_3 
REMARK    2  A    between atoms: C5_6  and  C6_7 
REMARK    3  A    between atoms: C11_15  and  O3_16 
REMARK    4  A    between atoms: O3_16  and  C12_17 
ROOT
HETATM    1  C2  UNL     1      31.852  78.094  21.667  1.00  0.00     0.101 A 
HETATM    2  C3  UNL     1      32.173  77.577  22.904  1.00  0.00     0.040 A 
HETATM    3  C4  UNL     1      32.522  76.267  23.103  1.00  0.00     0.010 A 
HETATM    4  C5  UNL     1      32.556  75.419  22.027  1.00  0.00    -0.049 A 
HETATM    5  C10 UNL     1      32.244  75.904  20.792  1.00  0.00     0.047 A 
HETATM    6  C11 UNL     1      31.881  77.262  20.577  1.00  0.00     0.103 A 
ENDROOT
BRANCH   4   7
HETATM    7  C6  UNL     1      32.926  74.002  22.197  1.00  0.00     0.045 C 
HETATM    8  C7  UNL     1      31.766  73.203  22.759  1.00  0.00     0.132 C 
HETATM    9  N1  UNL     1      32.420  72.281  23.655  1.00  0.00    -0.360 N 
HETATM   10  C8  UNL     1      33.526  72.961  24.225  1.00  0.00     0.218 C 
ATOM     11  H1  UNL     1      32.140  71.319  23.844  1.00  0.00     0.162 HD
HETATM   12  O2  UNL     1      33.991  72.813  25.390  1.00  0.00    -0.274 OA
HETATM   13  C9  UNL     1      34.040  73.887  23.187  1.00  0.00     0.113 C 
ENDBRANCH   4   7
BRANCH   6  14
HETATM   14  O3  UNL     1      31.593  77.615  19.303  1.00  0.00    -0.343 OA
BRANCH  14  15
HETATM   15  C12 UNL     1      31.925  77.139  18.064  1.00  0.00     0.129 C 
HETATM   16  C13 UNL     1      30.652  77.118  17.221  1.00  0.00     0.032 C 
HETATM   17  C14 UNL     1      30.619  78.423  16.472  1.00  0.00     0.002 C 
HETATM   18  C15 UNL     1      32.006  78.989  16.498  1.00  0.00     0.002 C 
HETATM   19  C16 UNL     1      32.864  78.066  17.295  1.00  0.00     0.032 C 
ENDBRANCH  14  15
ENDBRANCH   6  14
BRANCH   1  20
HETATM   20  O1  UNL     1      31.504  79.418  21.489  1.00  0.00    -0.353 OA
HETATM   21  C1  UNL     1      31.552  80.413  22.460  1.00  0.00     0.210 C 
ENDBRANCH   1  20
TORSDOF 4
ENDMDL
