MODEL 5
REMARK VINA RESULT: -8.103337561      2.708      6.494
REMARK  4 active torsions:
REMARK  status: ('A' for Active; 'I' for Inactive)
REMARK    1  A    between atoms: O1_2  and  C2_3 
REMARK    2  A    between atoms: C5_6  and  C6_7 
REMARK    3  A    between atoms: C11_15  and  O3_16 
REMARK    4  A    between atoms: O3_16  and  C12_17 
ROOT
HETATM    1  C2  UNL     1      31.686  76.941  22.717  1.00  0.00     0.101 A 
HETATM    2  C3  UNL     1      31.594  78.065  21.925  1.00  0.00     0.040 A 
HETATM    3  C4  UNL     1      31.831  78.055  20.575  1.00  0.00     0.010 A 
HETATM    4  C5  UNL     1      32.176  76.874  19.972  1.00  0.00    -0.049 A 
HETATM    5  C10 UNL     1      32.272  75.745  20.730  1.00  0.00     0.047 A 
HETATM    6  C11 UNL     1      32.030  75.748  22.132  1.00  0.00     0.103 A 
ENDROOT
BRANCH   4   7
HETATM    7  C6  UNL     1      32.438  76.818  18.522  1.00  0.00     0.045 C 
HETATM    8  C7  UNL     1      32.995  78.138  18.022  1.00  0.00     0.132 C 
HETATM    9  N1  UNL     1      32.368  78.278  16.730  1.00  0.00    -0.360 N 
HETATM   10  C8  UNL     1      31.067  77.725  16.831  1.00  0.00     0.218 C 
ATOM     11  H1  UNL     1      32.784  78.696  15.898  1.00  0.00     0.162 HD
HETATM   12  O2  UNL     1      30.027  78.113  16.229  1.00  0.00    -0.274 OA
HETATM   13  C9  UNL     1      31.157  76.593  17.787  1.00  0.00     0.113 C 
ENDBRANCH   4   7
BRANCH   6  14
HETATM   14  O3  UNL     1      32.160  74.562  22.769  1.00  0.00    -0.343 OA
BRANCH  14  15
HETATM   15  C12 UNL     1      33.201  73.860  23.313  1.00  0.00     0.129 C 
HETATM   16  C13 UNL     1      32.614  72.847  24.293  1.00  0.00     0.032 C 
HETATM   17  C14 UNL     1      32.437  71.566  23.523  1.00  0.00     0.002 C 
HETATM   18  C15 UNL     1      33.293  71.660  22.296  1.00  0.00     0.002 C 
HETATM   19  C16 UNL     1      33.945  73.001  22.292  1.00  0.00     0.032 C 
ENDBRANCH  14  15
ENDBRANCH   6  14
BRANCH   1  20
HETATM   20  O1  UNL     1      31.443  76.974  24.076  1.00  0.00    -0.353 OA
HETATM   21  C1  UNL     1      30.251  76.626  24.701  1.00  0.00     0.210 C 
ENDBRANCH   1  20
TORSDOF 4
ENDMDL
