MODEL 2
REMARK VINA RESULT: -8.256820129      1.167      1.323
REMARK  4 active torsions:
REMARK  status: ('A' for Active; 'I' for Inactive)
REMARK    1  A    between atoms: O1_2  and  C2_3 
REMARK    2  A    between atoms: C5_6  and  C6_7 
REMARK    3  A    between atoms: C11_15  and  O3_16 
REMARK    4  A    between atoms: O3_16  and  C12_17 
ROOT
HETATM    1  C2  UNL     1      31.721  78.427  21.892  1.00  0.00     0.101 A 
HETATM    2  C3  UNL     1      31.664  77.865  23.149  1.00  0.00     0.040 A 
HETATM    3  C4  UNL     1      31.750  76.516  23.373  1.00  0.00     0.010 A 
HETATM    4  C5  UNL     1      31.901  75.674  22.303  1.00  0.00    -0.049 A 
HETATM    5  C10 UNL     1      31.961  76.203  21.047  1.00  0.00     0.047 A 
HETATM    6  C11 UNL     1      31.872  77.602  20.806  1.00  0.00     0.103 A 
ENDROOT
BRANCH   4   7
HETATM    7  C6  UNL     1      31.998  74.216  22.499  1.00  0.00     0.045 C 
HETATM    8  C7  UNL     1      32.768  73.892  23.766  1.00  0.00     0.132 C 
HETATM    9  N1  UNL     1      33.526  72.725  23.386  1.00  0.00    -0.360 N 
HETATM   10  C8  UNL     1      33.880  72.878  22.022  1.00  0.00     0.218 C 
ATOM     11  H1  UNL     1      33.764  71.935  23.988  1.00  0.00     0.162 HD
HETATM   12  O2  UNL     1      34.938  72.476  21.462  1.00  0.00    -0.274 OA
HETATM   13  C9  UNL     1      32.764  73.606  21.370  1.00  0.00     0.113 C 
ENDBRANCH   4   7
BRANCH   6  14
HETATM   14  O3  UNL     1      31.945  77.997  19.514  1.00  0.00    -0.343 OA
BRANCH  14  15
HETATM   15  C12 UNL     1      32.248  77.388  18.328  1.00  0.00     0.129 C 
HETATM   16  C13 UNL     1      30.937  77.138  17.587  1.00  0.00     0.032 C 
HETATM   17  C14 UNL     1      30.731  78.320  16.679  1.00  0.00     0.002 C 
HETATM   18  C15 UNL     1      32.054  79.007  16.532  1.00  0.00     0.002 C 
HETATM   19  C16 UNL     1      33.045  78.283  17.379  1.00  0.00     0.032 C 
ENDBRANCH  14  15
ENDBRANCH   6  14
BRANCH   1  20
HETATM   20  O1  UNL     1      31.632  79.790  21.689  1.00  0.00    -0.353 OA
HETATM   21  C1  UNL     1      31.553  80.760  22.681  1.00  0.00     0.210 C 
ENDBRANCH   1  20
TORSDOF 4
ENDMDL
