MODEL 12
REMARK VINA RESULT: -7.560104437      1.280      1.427
REMARK  4 active torsions:
REMARK  status: ('A' for Active; 'I' for Inactive)
REMARK    1  A    between atoms: O1_2  and  C2_3 
REMARK    2  A    between atoms: C5_6  and  C6_7 
REMARK    3  A    between atoms: C11_15  and  O3_16 
REMARK    4  A    between atoms: O3_16  and  C12_17 
ROOT
HETATM    1  C2  UNL     1      32.006  77.331  21.967  1.00  0.00     0.101 A 
HETATM    2  C3  UNL     1      32.142  76.842  23.249  1.00  0.00     0.040 A 
HETATM    3  C4  UNL     1      32.100  75.506  23.551  1.00  0.00     0.010 A 
HETATM    4  C5  UNL     1      31.915  74.602  22.538  1.00  0.00    -0.049 A 
HETATM    5  C10 UNL     1      31.778  75.057  21.260  1.00  0.00     0.047 A 
HETATM    6  C11 UNL     1      31.819  76.442  20.938  1.00  0.00     0.103 A 
ENDROOT
BRANCH   4   7
HETATM    7  C6  UNL     1      31.864  73.156  22.819  1.00  0.00     0.045 C 
HETATM    8  C7  UNL     1      32.406  72.855  24.205  1.00  0.00     0.132 C 
HETATM    9  N1  UNL     1      33.117  71.616  24.005  1.00  0.00    -0.360 N 
HETATM   10  C8  UNL     1      33.683  71.659  22.707  1.00  0.00     0.218 C 
ATOM     11  H1  UNL     1      33.197  70.850  24.675  1.00  0.00     0.162 HD
HETATM   12  O2  UNL     1      34.777  71.148  22.337  1.00  0.00    -0.274 OA
HETATM   13  C9  UNL     1      32.739  72.424  21.854  1.00  0.00     0.113 C 
ENDBRANCH   4   7
BRANCH   6  14
HETATM   14  O3  UNL     1      31.670  76.762  19.632  1.00  0.00    -0.343 OA
BRANCH  14  15
HETATM   15  C12 UNL     1      32.391  76.545  18.490  1.00  0.00     0.129 C 
HETATM   16  C13 UNL     1      31.407  76.151  17.391  1.00  0.00     0.032 C 
HETATM   17  C14 UNL     1      31.052  77.422  16.666  1.00  0.00     0.002 C 
HETATM   18  C15 UNL     1      32.104  78.435  16.998  1.00  0.00     0.002 C 
HETATM   19  C16 UNL     1      33.062  77.807  17.952  1.00  0.00     0.032 C 
ENDBRANCH  14  15
ENDBRANCH   6  14
BRANCH   1  20
HETATM   20  O1  UNL     1      32.051  78.681  21.685  1.00  0.00    -0.353 OA
HETATM   21  C1  UNL     1      31.444  79.691  22.424  1.00  0.00     0.210 C 
ENDBRANCH   1  20
TORSDOF 4
ENDMDL
