MODEL 7
REMARK VINA RESULT: -7.917436927      1.507      1.942
REMARK  4 active torsions:
REMARK  status: ('A' for Active; 'I' for Inactive)
REMARK    1  A    between atoms: O1_2  and  C2_3 
REMARK    2  A    between atoms: C5_6  and  C6_7 
REMARK    3  A    between atoms: C11_15  and  O3_16 
REMARK    4  A    between atoms: O3_16  and  C12_17 
ROOT
HETATM    1  C2  UNL     1      31.796  78.406  21.615  1.00  0.00     0.101 A 
HETATM    2  C3  UNL     1      32.111  77.774  22.799  1.00  0.00     0.040 A 
HETATM    3  C4  UNL     1      32.337  76.426  22.893  1.00  0.00     0.010 A 
HETATM    4  C5  UNL     1      32.247  75.657  21.763  1.00  0.00    -0.049 A 
HETATM    5  C10 UNL     1      31.938  76.256  20.577  1.00  0.00     0.047 A 
HETATM    6  C11 UNL     1      31.702  77.654  20.471  1.00  0.00     0.103 A 
ENDROOT
BRANCH   4   7
HETATM    7  C6  UNL     1      32.483  74.203  21.820  1.00  0.00     0.045 C 
HETATM    8  C7  UNL     1      33.402  73.849  22.974  1.00  0.00     0.132 C 
HETATM    9  N1  UNL     1      34.210  72.789  22.423  1.00  0.00    -0.360 N 
HETATM   10  C8  UNL     1      34.409  73.081  21.051  1.00  0.00     0.218 C 
ATOM     11  H1  UNL     1      34.571  71.979  22.928  1.00  0.00     0.162 HD
HETATM   12  O2  UNL     1      35.433  72.821  20.359  1.00  0.00    -0.274 OA
HETATM   13  C9  UNL     1      33.176  73.755  20.574  1.00  0.00     0.113 C 
ENDBRANCH   4   7
BRANCH   6  14
HETATM   14  O3  UNL     1      31.403  78.123  19.237  1.00  0.00    -0.343 OA
BRANCH  14  15
HETATM   15  C12 UNL     1      31.925  77.962  17.984  1.00  0.00     0.129 C 
HETATM   16  C13 UNL     1      32.069  76.463  17.731  1.00  0.00     0.032 C 
HETATM   17  C14 UNL     1      30.812  76.030  17.026  1.00  0.00     0.002 C 
HETATM   18  C15 UNL     1      30.163  77.262  16.472  1.00  0.00     0.002 C 
HETATM   19  C16 UNL     1      30.987  78.437  16.875  1.00  0.00     0.032 C 
ENDBRANCH  14  15
ENDBRANCH   6  14
BRANCH   1  20
HETATM   20  O1  UNL     1      31.572  79.766  21.542  1.00  0.00    -0.353 OA
HETATM   21  C1  UNL     1      31.524  80.645  22.618  1.00  0.00     0.210 C 
ENDBRANCH   1  20
TORSDOF 4
ENDMDL
