MODEL 8
REMARK VINA RESULT: -7.893715794      2.744      5.954
REMARK  4 active torsions:
REMARK  status: ('A' for Active; 'I' for Inactive)
REMARK    1  A    between atoms: O1_2  and  C2_3 
REMARK    2  A    between atoms: C5_6  and  C6_7 
REMARK    3  A    between atoms: C11_15  and  O3_16 
REMARK    4  A    between atoms: O3_16  and  C12_17 
ROOT
HETATM    1  C2  UNL     1      31.671  76.798  22.733  1.00  0.00     0.101 A 
HETATM    2  C3  UNL     1      31.719  77.980  22.026  1.00  0.00     0.040 A 
HETATM    3  C4  UNL     1      31.837  78.035  20.662  1.00  0.00     0.010 A 
HETATM    4  C5  UNL     1      31.912  76.864  19.955  1.00  0.00    -0.049 A 
HETATM    5  C10 UNL     1      31.866  75.679  20.629  1.00  0.00     0.047 A 
HETATM    6  C11 UNL     1      31.744  75.614  22.044  1.00  0.00     0.103 A 
ENDROOT
BRANCH   4   7
HETATM    7  C6  UNL     1      32.039  76.877  18.487  1.00  0.00     0.045 C 
HETATM    8  C7  UNL     1      30.998  77.788  17.862  1.00  0.00     0.132 C 
HETATM    9  N1  UNL     1      30.628  77.072  16.666  1.00  0.00    -0.360 N 
HETATM   10  C8  UNL     1      30.682  75.689  16.968  1.00  0.00     0.218 C 
ATOM     11  H1  UNL     1      30.374  77.485  15.768  1.00  0.00     0.162 HD
HETATM   12  O2  UNL     1      29.942  74.779  16.501  1.00  0.00    -0.274 OA
HETATM   13  C9  UNL     1      31.784  75.508  17.946  1.00  0.00     0.113 C 
ENDBRANCH   4   7
BRANCH   6  14
HETATM   14  O3  UNL     1      31.710  74.376  22.590  1.00  0.00    -0.343 OA
BRANCH  14  15
HETATM   15  C12 UNL     1      32.636  73.528  23.133  1.00  0.00     0.129 C 
HETATM   16  C13 UNL     1      32.434  72.154  22.497  1.00  0.00     0.032 C 
HETATM   17  C14 UNL     1      33.377  72.086  21.327  1.00  0.00     0.002 C 
HETATM   18  C15 UNL     1      34.410  73.153  21.522  1.00  0.00     0.002 C 
HETATM   19  C16 UNL     1      34.074  73.896  22.770  1.00  0.00     0.032 C 
ENDBRANCH  14  15
ENDBRANCH   6  14
BRANCH   1  20
HETATM   20  O1  UNL     1      31.552  76.765  24.109  1.00  0.00    -0.353 OA
HETATM   21  C1  UNL     1      30.382  76.527  24.821  1.00  0.00     0.210 C 
ENDBRANCH   1  20
TORSDOF 4
ENDMDL
