MODEL 4
REMARK VINA RESULT: -8.113356753      2.981      6.450
REMARK  4 active torsions:
REMARK  status: ('A' for Active; 'I' for Inactive)
REMARK    1  A    between atoms: O1_2  and  C2_3 
REMARK    2  A    between atoms: C5_6  and  C6_7 
REMARK    3  A    between atoms: C11_15  and  O3_16 
REMARK    4  A    between atoms: O3_16  and  C12_17 
ROOT
HETATM    1  C2  UNL     1      31.963  75.624  21.013  1.00  0.00     0.101 A 
HETATM    2  C3  UNL     1      31.744  74.647  20.066  1.00  0.00     0.040 A 
HETATM    3  C4  UNL     1      31.520  74.922  18.742  1.00  0.00     0.010 A 
HETATM    4  C5  UNL     1      31.510  76.228  18.328  1.00  0.00    -0.049 A 
HETATM    5  C10 UNL     1      31.725  77.215  19.243  1.00  0.00     0.047 A 
HETATM    6  C11 UNL     1      31.958  76.939  20.619  1.00  0.00     0.103 A 
ENDROOT
BRANCH   4   7
HETATM    7  C6  UNL     1      31.274  76.567  16.913  1.00  0.00     0.045 C 
HETATM    8  C7  UNL     1      30.576  77.908  16.787  1.00  0.00     0.132 C 
HETATM    9  N1  UNL     1      29.670  77.693  15.685  1.00  0.00    -0.360 N 
HETATM   10  C8  UNL     1      29.229  76.348  15.759  1.00  0.00     0.218 C 
ATOM     11  H1  UNL     1      29.398  78.380  14.983  1.00  0.00     0.162 HD
HETATM   12  O2  UNL     1      28.094  75.901  15.432  1.00  0.00    -0.274 OA
HETATM   13  C9  UNL     1      30.362  75.555  16.298  1.00  0.00     0.113 C 
ENDBRANCH   4   7
BRANCH   6  14
HETATM   14  O3  UNL     1      32.156  78.008  21.424  1.00  0.00    -0.343 OA
BRANCH  14  15
HETATM   15  C12 UNL     1      32.010  78.258  22.761  1.00  0.00     0.129 C 
HETATM   16  C13 UNL     1      32.661  79.608  23.053  1.00  0.00     0.032 C 
HETATM   17  C14 UNL     1      31.565  80.635  22.962  1.00  0.00     0.002 C 
HETATM   18  C15 UNL     1      30.260  79.908  23.073  1.00  0.00     0.002 C 
HETATM   19  C16 UNL     1      30.554  78.450  23.182  1.00  0.00     0.032 C 
ENDBRANCH  14  15
ENDBRANCH   6  14
BRANCH   1  20
HETATM   20  O1  UNL     1      32.187  75.326  22.343  1.00  0.00    -0.353 OA
HETATM   21  C1  UNL     1      33.334  74.740  22.866  1.00  0.00     0.210 C 
ENDBRANCH   1  20
TORSDOF 4
ENDMDL
