MODEL 18
REMARK VINA RESULT: -7.907780484      4.997      7.989
REMARK  8 active torsions:
REMARK  status: ('A' for Active; 'I' for Inactive)
REMARK    1  A    between atoms: C4_6  and  C5_7 
REMARK    2  A    between atoms: C5_7  and  N2_8 
REMARK    3  A    between atoms: C8_11  and  C9_12 
REMARK    4  A    between atoms: C9_12  and  C10_13 
REMARK    5  A    between atoms: C10_13  and  O1_14 
REMARK    6  A    between atoms: O1_14  and  P1_15 
REMARK    7  A    between atoms: P1_15  and  O4_18 
REMARK    8  A    between atoms: O4_18  and  P2_19 
ROOT
HETATM    1  N2  UNL     1      26.655 -33.211  10.760  1.00  0.00    -0.307 N 
HETATM    2  C6  UNL     1      27.964 -33.098  10.879  1.00  0.00     0.025 A 
HETATM    3  C7  UNL     1      28.951 -34.166  10.387  1.00  0.00     0.069 C 
HETATM    4  C8  UNL     1      28.432 -31.995  11.537  1.00  0.00     0.012 A 
HETATM    5  S1  UNL     1      26.998 -31.154  11.943  1.00  0.00    -0.032 SA
HETATM    6  C11 UNL     1      25.879 -32.254  11.261  1.00  0.00     0.291 A 
HETATM    7  O8  UNL     1      24.590 -32.194  11.220  1.00  0.00    -0.259 OA
ENDROOT
BRANCH   1   8
HETATM    8  C5  UNL     1      26.101 -34.429  10.110  1.00  0.00     0.176 C 
BRANCH   8   9
HETATM    9  C4  UNL     1      26.085 -34.157   8.620  1.00  0.00     0.017 A 
HETATM   10  C3  UNL     1      25.479 -33.092   8.041  1.00  0.00     0.101 A 
HETATM   11  N1  UNL     1      25.486 -32.963   6.679  1.00  0.00    -0.355 N 
HETATM   12  C2  UNL     1      26.089 -33.881   5.915  1.00  0.00     0.078 A 
ATOM     13  H1  UNL     1      25.028 -32.162   6.244  1.00  0.00     0.166 HD
HETATM   14  C1  UNL     1      26.155 -33.786   4.411  1.00  0.00     0.089 C 
HETATM   15  N4  UNL     1      26.693 -34.947   6.514  1.00  0.00    -0.334 N 
HETATM   16  C12 UNL     1      26.695 -35.088   7.834  1.00  0.00     0.127 A 
ATOM     17  H4  UNL     1      27.154 -35.650   5.935  1.00  0.00     0.168 HD
HETATM   18  N3  UNL     1      27.326 -36.229   8.482  1.00  0.00    -0.082 NA
ENDBRANCH   8   9
ENDBRANCH   1   8
BRANCH   4  19
HETATM   19  C9  UNL     1      29.837 -31.618  11.815  1.00  0.00     0.075 C 
BRANCH  19  20
HETATM   20  C10 UNL     1      30.465 -30.983  10.579  1.00  0.00     0.186 C 
BRANCH  20  21
HETATM   21  O1  UNL     1      29.893 -29.700  10.515  1.00  0.00    -0.289 OA
BRANCH  21  22
HETATM   22  P1  UNL     1      30.814 -28.446  10.512  1.00  0.00     0.418 P 
HETATM   23  O2  UNL     1      31.629 -28.820   9.181  1.00  0.00    -0.624 OA
HETATM   24  O3  UNL     1      29.548 -27.408  10.534  1.00  0.00    -0.624 OA
BRANCH  22  25
HETATM   25  O4  UNL     1      31.759 -27.265  10.890  1.00  0.00    -0.173 OA
BRANCH  25  26
HETATM   26  P2  UNL     1      31.919 -26.748  12.427  1.00  0.00     0.431 P 
HETATM   27  O5  UNL     1      30.986 -25.468  12.941  1.00  0.00    -0.616 OA
HETATM   28  O6  UNL     1      33.114 -25.864  12.108  1.00  0.00    -0.616 OA
HETATM   29  O7  UNL     1      32.785 -27.577  13.566  1.00  0.00    -0.616 OA
ENDBRANCH  25  26
ENDBRANCH  22  25
ENDBRANCH  21  22
ENDBRANCH  20  21
ENDBRANCH  19  20
ENDBRANCH   4  19
TORSDOF 8
ENDMDL
