MODEL 5
REMARK VINA RESULT: -9.465978841      1.447      2.302
REMARK  8 active torsions:
REMARK  status: ('A' for Active; 'I' for Inactive)
REMARK    1  A    between atoms: C4_6  and  C5_7 
REMARK    2  A    between atoms: C5_7  and  N2_8 
REMARK    3  A    between atoms: C8_11  and  C9_12 
REMARK    4  A    between atoms: C9_12  and  C10_13 
REMARK    5  A    between atoms: C10_13  and  O1_14 
REMARK    6  A    between atoms: O1_14  and  P1_15 
REMARK    7  A    between atoms: P1_15  and  O4_18 
REMARK    8  A    between atoms: O4_18  and  P2_19 
ROOT
HETATM    1  N2  UNL     1      26.566 -32.710  10.294  1.00  0.00    -0.307 N 
HETATM    2  C6  UNL     1      26.589 -32.577  11.606  1.00  0.00     0.025 A 
HETATM    3  C7  UNL     1      27.854 -32.778  12.453  1.00  0.00     0.069 C 
HETATM    4  C8  UNL     1      25.397 -32.310  12.222  1.00  0.00     0.012 A 
HETATM    5  S1  UNL     1      24.297 -32.240  10.912  1.00  0.00    -0.032 SA
HETATM    6  C11 UNL     1      25.410 -32.561   9.652  1.00  0.00     0.291 A 
HETATM    7  O8  UNL     1      25.209 -32.641   8.380  1.00  0.00    -0.259 OA
ENDROOT
BRANCH   1   8
HETATM    8  C5  UNL     1      27.829 -33.066   9.592  1.00  0.00     0.176 C 
BRANCH   8   9
HETATM    9  C4  UNL     1      27.721 -34.531   9.220  1.00  0.00     0.017 A 
HETATM   10  C3  UNL     1      26.861 -35.026   8.296  1.00  0.00     0.101 A 
HETATM   11  N1  UNL     1      26.813 -36.373   8.067  1.00  0.00    -0.355 N 
HETATM   12  C2  UNL     1      27.611 -37.205   8.747  1.00  0.00     0.078 A 
ATOM     13  H1  UNL     1      26.165 -36.747   7.373  1.00  0.00     0.166 HD
HETATM   14  C1  UNL     1      27.625 -38.697   8.524  1.00  0.00     0.089 C 
HETATM   15  N4  UNL     1      28.469 -36.690   9.672  1.00  0.00    -0.334 N 
HETATM   16  C12 UNL     1      28.528 -35.385   9.909  1.00  0.00     0.127 A 
ATOM     17  H4  UNL     1      29.079 -37.320  10.194  1.00  0.00     0.168 HD
HETATM   18  N3  UNL     1      29.431 -34.826  10.905  1.00  0.00    -0.082 NA
ENDBRANCH   8   9
ENDBRANCH   1   8
BRANCH   4  19
HETATM   19  C9  UNL     1      25.132 -32.115  13.666  1.00  0.00     0.075 C 
BRANCH  19  20
HETATM   20  C10 UNL     1      23.632 -32.011  13.915  1.00  0.00     0.186 C 
BRANCH  20  21
HETATM   21  O1  UNL     1      23.229 -33.330  14.189  1.00  0.00    -0.289 OA
BRANCH  21  22
HETATM   22  P1  UNL     1      22.579 -33.667  15.561  1.00  0.00     0.418 P 
HETATM   23  O2  UNL     1      21.057 -33.647  15.053  1.00  0.00    -0.624 OA
HETATM   24  O3  UNL     1      23.454 -35.040  15.738  1.00  0.00    -0.624 OA
BRANCH  22  25
HETATM   25  O4  UNL     1      22.190 -33.750  17.069  1.00  0.00    -0.173 OA
BRANCH  25  26
HETATM   26  P2  UNL     1      21.885 -32.416  17.954  1.00  0.00     0.431 P 
HETATM   27  O5  UNL     1      20.893 -31.241  17.313  1.00  0.00    -0.616 OA
HETATM   28  O6  UNL     1      23.156 -31.710  17.508  1.00  0.00    -0.616 OA
HETATM   29  O7  UNL     1      22.317 -32.277  19.543  1.00  0.00    -0.616 OA
ENDBRANCH  25  26
ENDBRANCH  22  25
ENDBRANCH  21  22
ENDBRANCH  20  21
ENDBRANCH  19  20
ENDBRANCH   4  19
TORSDOF 8
ENDMDL
