MODEL 2
REMARK VINA RESULT: -10.493527989      0.481      1.008
REMARK  8 active torsions:
REMARK  status: ('A' for Active; 'I' for Inactive)
REMARK    1  A    between atoms: C4_6  and  C5_7 
REMARK    2  A    between atoms: C5_7  and  N2_8 
REMARK    3  A    between atoms: C8_11  and  C9_12 
REMARK    4  A    between atoms: C9_12  and  C10_13 
REMARK    5  A    between atoms: C10_13  and  O1_14 
REMARK    6  A    between atoms: O1_14  and  P1_15 
REMARK    7  A    between atoms: P1_15  and  O4_18 
REMARK    8  A    between atoms: O4_18  and  P2_19 
ROOT
HETATM    1  N2  UNL     1      27.160 -32.736  10.735  1.00  0.00    -0.307 N 
HETATM    2  C6  UNL     1      25.861 -32.537  10.861  1.00  0.00     0.025 A 
HETATM    3  C7  UNL     1      24.883 -32.576   9.678  1.00  0.00     0.069 C 
HETATM    4  C8  UNL     1      25.403 -32.216  12.109  1.00  0.00     0.012 A 
HETATM    5  S1  UNL     1      26.830 -32.229  13.055  1.00  0.00    -0.032 SA
HETATM    6  C11 UNL     1      27.933 -32.635  11.812  1.00  0.00     0.291 A 
HETATM    7  O8  UNL     1      29.210 -32.812  11.874  1.00  0.00    -0.259 OA
ENDROOT
BRANCH   1   8
HETATM    8  C5  UNL     1      27.708 -33.022   9.382  1.00  0.00     0.176 C 
BRANCH   8   9
HETATM    9  C4  UNL     1      27.736 -34.529   9.233  1.00  0.00     0.017 A 
HETATM   10  C3  UNL     1      28.388 -35.370  10.073  1.00  0.00     0.101 A 
HETATM   11  N1  UNL     1      28.387 -36.715   9.823  1.00  0.00    -0.355 N 
HETATM   12  C2  UNL     1      27.744 -37.205   8.756  1.00  0.00     0.078 A 
ATOM     13  H1  UNL     1      28.879 -37.348  10.453  1.00  0.00     0.166 HD
HETATM   14  C1  UNL     1      27.683 -38.678   8.438  1.00  0.00     0.089 C 
HETATM   15  N4  UNL     1      27.094 -36.345   7.923  1.00  0.00    -0.334 N 
HETATM   16  C12 UNL     1      27.086 -35.036   8.149  1.00  0.00     0.127 A 
ATOM     17  H4  UNL     1      26.603 -36.714   7.108  1.00  0.00     0.168 HD
HETATM   18  N3  UNL     1      26.406 -34.108   7.258  1.00  0.00    -0.082 NA
ENDBRANCH   8   9
ENDBRANCH   1   8
BRANCH   4  19
HETATM   19  C9  UNL     1      24.011 -31.940  12.534  1.00  0.00     0.075 C 
BRANCH  19  20
HETATM   20  C10 UNL     1      23.892 -32.059  14.049  1.00  0.00     0.186 C 
BRANCH  20  21
HETATM   21  O1  UNL     1      23.391 -33.355  14.262  1.00  0.00    -0.289 OA
BRANCH  21  22
HETATM   22  P1  UNL     1      22.631 -33.680  15.580  1.00  0.00     0.418 P 
HETATM   23  O2  UNL     1      21.151 -33.583  14.967  1.00  0.00    -0.624 OA
HETATM   24  O3  UNL     1      23.429 -35.093  15.795  1.00  0.00    -0.624 OA
BRANCH  22  25
HETATM   25  O4  UNL     1      22.133 -33.764  17.055  1.00  0.00    -0.173 OA
BRANCH  25  26
HETATM   26  P2  UNL     1      21.863 -32.429  17.950  1.00  0.00     0.431 P 
HETATM   27  O5  UNL     1      20.891 -31.230  17.324  1.00  0.00    -0.616 OA
HETATM   28  O6  UNL     1      23.145 -31.748  17.499  1.00  0.00    -0.616 OA
HETATM   29  O7  UNL     1      22.310 -32.309  19.537  1.00  0.00    -0.616 OA
ENDBRANCH  25  26
ENDBRANCH  22  25
ENDBRANCH  21  22
ENDBRANCH  20  21
ENDBRANCH  19  20
ENDBRANCH   4  19
TORSDOF 8
ENDMDL
