MODEL 1
REMARK VINA RESULT: -10.501351324      0.000      0.000
REMARK  8 active torsions:
REMARK  status: ('A' for Active; 'I' for Inactive)
REMARK    1  A    between atoms: C4_6  and  C5_7 
REMARK    2  A    between atoms: C5_7  and  N2_8 
REMARK    3  A    between atoms: C8_11  and  C9_12 
REMARK    4  A    between atoms: C9_12  and  C10_13 
REMARK    5  A    between atoms: C10_13  and  O1_14 
REMARK    6  A    between atoms: O1_14  and  P1_15 
REMARK    7  A    between atoms: P1_15  and  O4_18 
REMARK    8  A    between atoms: O4_18  and  P2_19 
ROOT
HETATM    1  N2  UNL     1      27.189 -32.741  10.771  1.00  0.00    -0.307 N 
HETATM    2  C6  UNL     1      25.889 -32.582  10.925  1.00  0.00     0.025 A 
HETATM    3  C7  UNL     1      24.886 -32.664   9.765  1.00  0.00     0.069 C 
HETATM    4  C8  UNL     1      25.449 -32.264  12.180  1.00  0.00     0.012 A 
HETATM    5  S1  UNL     1      26.895 -32.223  13.094  1.00  0.00    -0.032 SA
HETATM    6  C11 UNL     1      27.983 -32.605  11.830  1.00  0.00     0.291 A 
HETATM    7  O8  UNL     1      29.267 -32.741  11.865  1.00  0.00    -0.259 OA
ENDROOT
BRANCH   1   8
HETATM    8  C5  UNL     1      27.717 -33.022   9.409  1.00  0.00     0.176 C 
BRANCH   8   9
HETATM    9  C4  UNL     1      27.755 -34.529   9.260  1.00  0.00     0.017 A 
HETATM   10  C3  UNL     1      28.406 -35.366  10.104  1.00  0.00     0.101 A 
HETATM   11  N1  UNL     1      28.416 -36.711   9.854  1.00  0.00    -0.355 N 
HETATM   12  C2  UNL     1      27.785 -37.205   8.782  1.00  0.00     0.078 A 
ATOM     13  H1  UNL     1      28.907 -37.341  10.488  1.00  0.00     0.166 HD
HETATM   14  C1  UNL     1      27.735 -38.678   8.463  1.00  0.00     0.089 C 
HETATM   15  N4  UNL     1      27.135 -36.348   7.944  1.00  0.00    -0.334 N 
HETATM   16  C12 UNL     1      27.117 -35.040   8.171  1.00  0.00     0.127 A 
ATOM     17  H4  UNL     1      26.653 -36.720   7.125  1.00  0.00     0.168 HD
HETATM   18  N3  UNL     1      26.438 -34.116   7.274  1.00  0.00    -0.082 NA
ENDBRANCH   8   9
ENDBRANCH   1   8
BRANCH   4  19
HETATM   19  C9  UNL     1      24.058 -32.029  12.635  1.00  0.00     0.075 C 
BRANCH  19  20
HETATM   20  C10 UNL     1      23.947 -32.280  14.134  1.00  0.00     0.186 C 
BRANCH  20  21
HETATM   21  O1  UNL     1      22.861 -33.165  14.262  1.00  0.00    -0.289 OA
BRANCH  21  22
HETATM   22  P1  UNL     1      22.393 -33.610  15.677  1.00  0.00     0.418 P 
HETATM   23  O2  UNL     1      20.834 -33.743  15.321  1.00  0.00    -0.624 OA
HETATM   24  O3  UNL     1      23.423 -34.883  15.713  1.00  0.00    -0.624 OA
BRANCH  22  25
HETATM   25  O4  UNL     1      22.170 -33.777  17.210  1.00  0.00    -0.173 OA
BRANCH  25  26
HETATM   26  P2  UNL     1      21.780 -32.517  18.167  1.00  0.00     0.431 P 
HETATM   27  O5  UNL     1      22.308 -32.519  19.747  1.00  0.00    -0.616 OA
HETATM   28  O6  UNL     1      20.418 -33.086  18.528  1.00  0.00    -0.616 OA
HETATM   29  O7  UNL     1      21.092 -31.130  17.586  1.00  0.00    -0.616 OA
ENDBRANCH  25  26
ENDBRANCH  22  25
ENDBRANCH  21  22
ENDBRANCH  20  21
ENDBRANCH  19  20
ENDBRANCH   4  19
TORSDOF 8
ENDMDL
