MODEL 14
REMARK VINA RESULT: -8.324604367      3.228      5.345
REMARK  8 active torsions:
REMARK  status: ('A' for Active; 'I' for Inactive)
REMARK    1  A    between atoms: C4_6  and  C5_7 
REMARK    2  A    between atoms: C5_7  and  N2_8 
REMARK    3  A    between atoms: C8_11  and  C9_12 
REMARK    4  A    between atoms: C9_12  and  C10_13 
REMARK    5  A    between atoms: C10_13  and  O1_14 
REMARK    6  A    between atoms: O1_14  and  P1_15 
REMARK    7  A    between atoms: P1_15  and  O4_18 
REMARK    8  A    between atoms: O4_18  and  P2_19 
ROOT
HETATM    1  N2  UNL     1      28.827 -31.891  11.335  1.00  0.00    -0.307 N 
HETATM    2  C6  UNL     1      27.640 -32.188  10.840  1.00  0.00     0.025 A 
HETATM    3  C7  UNL     1      27.190 -31.781   9.430  1.00  0.00     0.069 C 
HETATM    4  C8  UNL     1      26.766 -32.833  11.670  1.00  0.00     0.012 A 
HETATM    5  S1  UNL     1      27.670 -33.009  13.114  1.00  0.00    -0.032 SA
HETATM    6  C11 UNL     1      29.108 -32.247  12.586  1.00  0.00     0.291 A 
HETATM    7  O8  UNL     1      30.215 -32.054  13.221  1.00  0.00    -0.259 OA
ENDROOT
BRANCH   1   8
HETATM    8  C5  UNL     1      29.784 -31.131  10.487  1.00  0.00     0.176 C 
BRANCH   8   9
HETATM    9  C4  UNL     1      29.498 -29.662  10.719  1.00  0.00     0.017 A 
HETATM   10  C3  UNL     1      28.397 -29.185  11.349  1.00  0.00     0.101 A 
HETATM   11  N1  UNL     1      28.213 -27.835  11.467  1.00  0.00    -0.355 N 
HETATM   12  C2  UNL     1      29.115 -26.982  10.966  1.00  0.00     0.078 A 
ATOM     13  H1  UNL     1      27.384 -27.476  11.941  1.00  0.00     0.166 HD
HETATM   14  C1  UNL     1      28.985 -25.484  11.085  1.00  0.00     0.089 C 
HETATM   15  N4  UNL     1      30.216 -27.479  10.335  1.00  0.00    -0.334 N 
HETATM   16  C12 UNL     1      30.410 -28.787  10.210  1.00  0.00     0.127 A 
ATOM     17  H4  UNL     1      30.906 -26.833   9.950  1.00  0.00     0.168 HD
HETATM   18  N3  UNL     1      31.575 -29.328   9.525  1.00  0.00    -0.082 NA
ENDBRANCH   8   9
ENDBRANCH   1   8
BRANCH   4  19
HETATM   19  C9  UNL     1      25.384 -33.280  11.383  1.00  0.00     0.075 C 
BRANCH  19  20
HETATM   20  C10 UNL     1      24.396 -32.157  11.677  1.00  0.00     0.186 C 
BRANCH  20  21
HETATM   21  O1  UNL     1      24.657 -31.801  13.012  1.00  0.00    -0.289 OA
BRANCH  21  22
HETATM   22  P1  UNL     1      23.520 -31.898  14.070  1.00  0.00     0.418 P 
HETATM   23  O2  UNL     1      23.631 -33.480  14.315  1.00  0.00    -0.624 OA
HETATM   24  O3  UNL     1      24.214 -30.782  15.046  1.00  0.00    -0.624 OA
BRANCH  22  25
HETATM   25  O4  UNL     1      22.199 -31.754  14.884  1.00  0.00    -0.173 OA
BRANCH  25  26
HETATM   26  P2  UNL     1      21.868 -32.706  16.165  1.00  0.00     0.431 P 
HETATM   27  O5  UNL     1      20.528 -33.693  16.101  1.00  0.00    -0.616 OA
HETATM   28  O6  UNL     1      21.133 -31.608  16.916  1.00  0.00    -0.616 OA
HETATM   29  O7  UNL     1      22.921 -32.916  17.421  1.00  0.00    -0.616 OA
ENDBRANCH  25  26
ENDBRANCH  22  25
ENDBRANCH  21  22
ENDBRANCH  20  21
ENDBRANCH  19  20
ENDBRANCH   4  19
TORSDOF 8
ENDMDL
