MODEL 12
REMARK VINA RESULT: -8.816854490      2.925      4.785
REMARK  8 active torsions:
REMARK  status: ('A' for Active; 'I' for Inactive)
REMARK    1  A    between atoms: C4_6  and  C5_7 
REMARK    2  A    between atoms: C5_7  and  N2_8 
REMARK    3  A    between atoms: C8_11  and  C9_12 
REMARK    4  A    between atoms: C9_12  and  C10_13 
REMARK    5  A    between atoms: C10_13  and  O1_14 
REMARK    6  A    between atoms: O1_14  and  P1_15 
REMARK    7  A    between atoms: P1_15  and  O4_18 
REMARK    8  A    between atoms: O4_18  and  P2_19 
ROOT
HETATM    1  N2  UNL     1      27.203 -31.813  11.197  1.00  0.00    -0.307 N 
HETATM    2  C6  UNL     1      26.352 -31.719  12.200  1.00  0.00     0.025 A 
HETATM    3  C7  UNL     1      26.785 -31.501  13.657  1.00  0.00     0.069 C 
HETATM    4  C8  UNL     1      25.028 -31.893  11.906  1.00  0.00     0.012 A 
HETATM    5  S1  UNL     1      25.043 -32.165  10.216  1.00  0.00    -0.032 SA
HETATM    6  C11 UNL     1      26.733 -32.049   9.975  1.00  0.00     0.291 A 
HETATM    7  O8  UNL     1      27.416 -32.155   8.884  1.00  0.00    -0.259 OA
ENDROOT
BRANCH   1   8
HETATM    8  C5  UNL     1      28.658 -31.695  11.484  1.00  0.00     0.176 C 
BRANCH   8   9
HETATM    9  C4  UNL     1      29.072 -30.299  11.068  1.00  0.00     0.017 A 
HETATM   10  C3  UNL     1      28.388 -29.171  11.382  1.00  0.00     0.101 A 
HETATM   11  N1  UNL     1      28.824 -27.961  10.918  1.00  0.00    -0.355 N 
HETATM   12  C2  UNL     1      29.923 -27.883  10.158  1.00  0.00     0.078 A 
ATOM     13  H1  UNL     1      28.309 -27.112  11.153  1.00  0.00     0.166 HD
HETATM   14  C1  UNL     1      30.471 -26.578   9.635  1.00  0.00     0.089 C 
HETATM   15  N4  UNL     1      30.598 -29.027   9.851  1.00  0.00    -0.334 N 
HETATM   16  C12 UNL     1      30.188 -30.210  10.292  1.00  0.00     0.127 A 
ATOM     17  H4  UNL     1      31.436 -28.973   9.271  1.00  0.00     0.168 HD
HETATM   18  N3  UNL     1      30.894 -31.440   9.959  1.00  0.00    -0.082 NA
ENDBRANCH   8   9
ENDBRANCH   1   8
BRANCH   4  19
HETATM   19  C9  UNL     1      23.867 -31.844  12.825  1.00  0.00     0.075 C 
BRANCH  19  20
HETATM   20  C10 UNL     1      23.841 -33.088  13.706  1.00  0.00     0.186 C 
BRANCH  20  21
HETATM   21  O1  UNL     1      22.513 -33.168  14.161  1.00  0.00    -0.289 OA
BRANCH  21  22
HETATM   22  P1  UNL     1      22.228 -33.593  15.630  1.00  0.00     0.418 P 
HETATM   23  O2  UNL     1      20.653 -33.844  15.446  1.00  0.00    -0.624 OA
HETATM   24  O3  UNL     1      23.344 -34.790  15.593  1.00  0.00    -0.624 OA
BRANCH  22  25
HETATM   25  O4  UNL     1      22.177 -33.720  17.183  1.00  0.00    -0.173 OA
BRANCH  25  26
HETATM   26  P2  UNL     1      21.891 -32.435  18.144  1.00  0.00     0.431 P 
HETATM   27  O5  UNL     1      20.922 -31.208  17.570  1.00  0.00    -0.616 OA
HETATM   28  O6  UNL     1      23.176 -31.727  17.744  1.00  0.00    -0.616 OA
HETATM   29  O7  UNL     1      22.320 -32.397  19.740  1.00  0.00    -0.616 OA
ENDBRANCH  25  26
ENDBRANCH  22  25
ENDBRANCH  21  22
ENDBRANCH  20  21
ENDBRANCH  19  20
ENDBRANCH   4  19
TORSDOF 8
ENDMDL
