MODEL 3
REMARK VINA RESULT: -4.738287610      7.365      9.355
REMARK  6 active torsions:
REMARK  status: ('A' for Active; 'I' for Inactive)
REMARK    1  A    between atoms: O1_1  and  C1_3 
REMARK    2  A    between atoms: C1_3  and  C2_4 
REMARK    3  A    between atoms: C3_6  and  O3_7 
REMARK    4  A    between atoms: C4_9  and  O4_10 
REMARK    5  A    between atoms: C5_12  and  O5_13 
REMARK    6  A    between atoms: C6_15  and  O6_16 
ROOT
HETATM    1  C2  UNL     1      -3.915   8.086  16.630  1.00  0.00     0.179 C 
HETATM    2  O2  UNL     1      -2.867   7.427  16.063  1.00  0.00    -0.349 OA
HETATM    3  C3  UNL     1      -3.198   6.573  15.033  1.00  0.00     0.288 C 
HETATM    4  C4  UNL     1      -4.118   5.524  15.617  1.00  0.00     0.204 C 
HETATM    5  C5  UNL     1      -5.443   6.264  15.820  1.00  0.00     0.183 C 
HETATM    6  C6  UNL     1      -5.137   7.294  16.889  1.00  0.00     0.180 C 
ENDROOT
BRANCH   1   7
HETATM    7  C1  UNL     1      -3.416   8.687  17.950  1.00  0.00     0.198 C 
BRANCH   7   8
HETATM    8  O1  UNL     1      -2.121   9.131  17.865  1.00  0.00    -0.398 OA
ATOM      9  H1  UNL     1      -1.506   8.531  18.271  1.00  0.00     0.209 HD
ENDBRANCH   7   8
ENDBRANCH   1   7
BRANCH   6  10
HETATM   10  O6  UNL     1      -6.238   8.166  17.026  1.00  0.00    -0.390 OA
ATOM     11  H6  UNL     1      -6.327   8.686  16.236  1.00  0.00     0.210 HD
ENDBRANCH   6  10
BRANCH   3  12
HETATM   12  O3  UNL     1      -2.073   6.010  14.485  1.00  0.00    -0.369 OA
ATOM     13  H3  UNL     1      -2.292   5.507  13.709  1.00  0.00     0.212 HD
ENDBRANCH   3  12
BRANCH   5  14
HETATM   14  O5  UNL     1      -5.757   6.857  14.600  1.00  0.00    -0.390 OA
ATOM     15  H5  UNL     1      -5.554   7.781  14.687  1.00  0.00     0.210 HD
ENDBRANCH   5  14
BRANCH   4  16
HETATM   16  O4  UNL     1      -4.238   4.400  14.867  1.00  0.00    -0.388 OA
ATOM     17  H4  UNL     1      -4.025   4.515  13.949  1.00  0.00     0.210 HD
ENDBRANCH   4  16
TORSDOF 6
ENDMDL
