MODEL 4
REMARK VINA RESULT: -4.599795980      6.489      9.549
REMARK  6 active torsions:
REMARK  status: ('A' for Active; 'I' for Inactive)
REMARK    1  A    between atoms: O1_1  and  C1_3 
REMARK    2  A    between atoms: C1_3  and  C2_4 
REMARK    3  A    between atoms: C3_6  and  O3_7 
REMARK    4  A    between atoms: C4_9  and  O4_10 
REMARK    5  A    between atoms: C5_12  and  O5_13 
REMARK    6  A    between atoms: C6_15  and  O6_16 
ROOT
HETATM    1  C2  UNL     1      -2.994   6.485  15.544  1.00  0.00     0.179 C 
HETATM    2  O2  UNL     1      -2.914   7.666  16.219  1.00  0.00    -0.349 OA
HETATM    3  C3  UNL     1      -3.880   7.856  17.183  1.00  0.00     0.288 C 
HETATM    4  C4  UNL     1      -5.214   7.843  16.471  1.00  0.00     0.204 C 
HETATM    5  C5  UNL     1      -5.435   6.368  16.126  1.00  0.00     0.183 C 
HETATM    6  C6  UNL     1      -4.343   6.051  15.122  1.00  0.00     0.180 C 
ENDROOT
BRANCH   1   7
HETATM    7  C1  UNL     1      -2.096   6.606  14.306  1.00  0.00     0.198 C 
BRANCH   7   8
HETATM    8  O1  UNL     1      -0.812   6.192  14.550  1.00  0.00    -0.398 OA
ATOM      9  H1  UNL     1      -0.215   6.919  14.678  1.00  0.00     0.209 HD
ENDBRANCH   7   8
ENDBRANCH   1   7
BRANCH   6  10
HETATM   10  O6  UNL     1      -4.330   4.661  14.872  1.00  0.00    -0.390 OA
ATOM     11  H6  UNL     1      -4.027   4.205  15.648  1.00  0.00     0.210 HD
ENDBRANCH   6  10
BRANCH   3  12
HETATM   12  O3  UNL     1      -3.676   9.037  17.852  1.00  0.00    -0.369 OA
ATOM     13  H3  UNL     1      -3.875   8.941  18.776  1.00  0.00     0.212 HD
ENDBRANCH   3  12
BRANCH   5  14
HETATM   14  O5  UNL     1      -5.277   5.655  17.310  1.00  0.00    -0.390 OA
ATOM     15  H5  UNL     1      -5.181   6.298  18.003  1.00  0.00     0.210 HD
ENDBRANCH   5  14
BRANCH   4  16
HETATM   16  O4  UNL     1      -6.235   8.389  17.178  1.00  0.00    -0.388 OA
ATOM     17  H4  UNL     1      -5.963   8.961  17.885  1.00  0.00     0.210 HD
ENDBRANCH   4  16
TORSDOF 6
ENDMDL
