MODEL 1
REMARK VINA RESULT: -7.266137007      0.000      0.000
REMARK  6 active torsions:
REMARK  status: ('A' for Active; 'I' for Inactive)
REMARK    1  A    between atoms: O1_1  and  C1_3 
REMARK    2  A    between atoms: C1_3  and  C2_4 
REMARK    3  A    between atoms: C3_6  and  O3_7 
REMARK    4  A    between atoms: C4_9  and  O4_10 
REMARK    5  A    between atoms: C5_12  and  O5_13 
REMARK    6  A    between atoms: C6_15  and  O6_16 
ROOT
HETATM    1  C2  UNL     1       2.661   6.847  12.007  1.00  0.00     0.179 C 
HETATM    2  O2  UNL     1       3.325   6.600  10.844  1.00  0.00    -0.349 OA
HETATM    3  C3  UNL     1       4.683   6.828  10.883  1.00  0.00     0.288 C 
HETATM    4  C4  UNL     1       4.868   8.297  11.195  1.00  0.00     0.204 C 
HETATM    5  C5  UNL     1       4.510   8.408  12.680  1.00  0.00     0.183 C 
HETATM    6  C6  UNL     1       3.031   8.081  12.734  1.00  0.00     0.180 C 
ENDROOT
BRANCH   1   7
HETATM    7  C1  UNL     1       1.163   6.889  11.677  1.00  0.00     0.198 C 
BRANCH   7   8
HETATM    8  O1  UNL     1       0.381   6.587  12.762  1.00  0.00    -0.398 OA
ATOM      9  H1  UNL     1       0.712   5.843  13.251  1.00  0.00     0.209 HD
ENDBRANCH   7   8
ENDBRANCH   1   7
BRANCH   6  10
HETATM   10  O6  UNL     1       2.628   7.967  14.082  1.00  0.00    -0.390 OA
ATOM     11  H6  UNL     1       3.020   8.669  14.588  1.00  0.00     0.210 HD
ENDBRANCH   6  10
BRANCH   3  12
HETATM   12  O3  UNL     1       5.271   6.487   9.691  1.00  0.00    -0.369 OA
ATOM     13  H3  UNL     1       6.144   6.857   9.627  1.00  0.00     0.212 HD
ENDBRANCH   3  12
BRANCH   5  14
HETATM   14  O5  UNL     1       5.279   7.459  13.346  1.00  0.00    -0.390 OA
ATOM     15  H5  UNL     1       6.055   7.909  13.660  1.00  0.00     0.210 HD
ENDBRANCH   5  14
BRANCH   4  16
HETATM   16  O4  UNL     1       6.100   8.784  10.900  1.00  0.00    -0.388 OA
ATOM     17  H4  UNL     1       6.102   9.677  10.578  1.00  0.00     0.210 HD
ENDBRANCH   4  16
TORSDOF 6
ENDMDL
