MODEL 9
REMARK VINA RESULT: -3.978903298      7.653      9.732
REMARK  6 active torsions:
REMARK  status: ('A' for Active; 'I' for Inactive)
REMARK    1  A    between atoms: O1_1  and  C1_3 
REMARK    2  A    between atoms: C1_3  and  C2_4 
REMARK    3  A    between atoms: C3_6  and  O3_7 
REMARK    4  A    between atoms: C4_9  and  O4_10 
REMARK    5  A    between atoms: C5_12  and  O5_13 
REMARK    6  A    between atoms: C6_15  and  O6_16 
ROOT
HETATM    1  C2  UNL     1      -5.773   5.591  16.245  1.00  0.00     0.179 C 
HETATM    2  O2  UNL     1      -5.074   6.465  17.021  1.00  0.00    -0.349 OA
HETATM    3  C3  UNL     1      -4.323   7.392  16.331  1.00  0.00     0.288 C 
HETATM    4  C4  UNL     1      -3.312   6.614  15.518  1.00  0.00     0.204 C 
HETATM    5  C5  UNL     1      -4.139   6.005  14.383  1.00  0.00     0.183 C 
HETATM    6  C6  UNL     1      -5.064   5.025  15.078  1.00  0.00     0.180 C 
ENDROOT
BRANCH   1   7
HETATM    7  C1  UNL     1      -6.238   4.446  17.154  1.00  0.00     0.198 C 
BRANCH   7   8
HETATM    8  O1  UNL     1      -5.202   3.875  17.847  1.00  0.00    -0.398 OA
ATOM      9  H1  UNL     1      -5.501   3.248  18.494  1.00  0.00     0.209 HD
ENDBRANCH   7   8
ENDBRANCH   1   7
BRANCH   6  10
HETATM   10  O6  UNL     1      -6.008   4.537  14.149  1.00  0.00    -0.390 OA
ATOM     11  H6  UNL     1      -6.021   3.588  14.182  1.00  0.00     0.210 HD
ENDBRANCH   6  10
BRANCH   3  12
HETATM   12  O3  UNL     1      -3.712   8.267  17.194  1.00  0.00    -0.369 OA
ATOM     13  H3  UNL     1      -2.925   8.630  16.806  1.00  0.00     0.212 HD
ENDBRANCH   3  12
BRANCH   5  14
HETATM   14  O5  UNL     1      -4.838   7.054  13.794  1.00  0.00    -0.390 OA
ATOM     15  H5  UNL     1      -4.498   7.144  12.911  1.00  0.00     0.210 HD
ENDBRANCH   5  14
BRANCH   4  16
HETATM   16  O4  UNL     1      -2.256   7.347  15.083  1.00  0.00    -0.388 OA
ATOM     17  H4  UNL     1      -1.541   6.834  14.728  1.00  0.00     0.210 HD
ENDBRANCH   4  16
TORSDOF 6
ENDMDL
