MODEL 5
REMARK VINA RESULT: -4.612039630      1.181      1.607
REMARK  1 active torsions:
REMARK  status: ('A' for Active; 'I' for Inactive)
REMARK    1  A    between atoms: C2_2  and  S1_3 
ROOT
HETATM    1  S1  UNL     1      85.808  -6.272   7.593  1.00  0.00     0.126 S 
HETATM    2  O1  UNL     1      85.033  -4.883   8.202  1.00  0.00    -0.592 OA
HETATM    3  O2  UNL     1      85.544  -7.518   8.086  1.00  0.00    -0.592 OA
HETATM    4  O3  UNL     1      85.120  -6.151   5.900  1.00  0.00    -0.592 OA
ENDROOT
BRANCH   1   5
HETATM    5  C2  UNL     1      87.440  -5.774   7.341  1.00  0.00     0.123 C 
HETATM    6  C1  UNL     1      87.978  -5.826   6.137  1.00  0.00     0.026 C 
ENDBRANCH   1   5
TORSDOF 1
ENDMDL
