MODEL 4
REMARK VINA RESULT: -4.673677904      1.190      1.525
REMARK  1 active torsions:
REMARK  status: ('A' for Active; 'I' for Inactive)
REMARK    1  A    between atoms: C2_2  and  S1_3 
ROOT
HETATM    1  S1  UNL     1      85.714  -5.817   7.480  1.00  0.00     0.126 S 
HETATM    2  O1  UNL     1      85.163  -6.091   5.892  1.00  0.00    -0.592 OA
HETATM    3  O2  UNL     1      85.063  -4.971   8.331  1.00  0.00    -0.592 OA
HETATM    4  O3  UNL     1      85.478  -7.536   8.066  1.00  0.00    -0.592 OA
ENDROOT
BRANCH   1   5
HETATM    5  C2  UNL     1      87.430  -5.734   7.327  1.00  0.00     0.123 C 
HETATM    6  C1  UNL     1      88.003  -5.856   6.144  1.00  0.00     0.026 C 
ENDBRANCH   1   5
TORSDOF 1
ENDMDL
