MODEL 3
REMARK VINA RESULT: -4.837997234      0.242      1.860
REMARK  1 active torsions:
REMARK  status: ('A' for Active; 'I' for Inactive)
REMARK    1  A    between atoms: C2_2  and  S1_3 
ROOT
HETATM    1  S1  UNL     1      85.966  -6.387   7.839  1.00  0.00     0.126 S 
HETATM    2  O1  UNL     1      87.175  -5.786   8.879  1.00  0.00    -0.592 OA
HETATM    3  O2  UNL     1      85.303  -7.550   8.104  1.00  0.00    -0.592 OA
HETATM    4  O3  UNL     1      84.808  -4.986   8.058  1.00  0.00    -0.592 OA
ENDROOT
BRANCH   1   5
HETATM    5  C2  UNL     1      86.580  -6.086   6.255  1.00  0.00     0.123 C 
HETATM    6  C1  UNL     1      87.852  -5.779   6.077  1.00  0.00     0.026 C 
ENDBRANCH   1   5
TORSDOF 1
ENDMDL
