MODEL 1
REMARK VINA RESULT: -4.862949982      0.000      0.000
REMARK  1 active torsions:
REMARK  status: ('A' for Active; 'I' for Inactive)
REMARK    1  A    between atoms: C2_2  and  S1_3 
ROOT
HETATM    1  S1  UNL     1      86.143  -6.033   8.068  1.00  0.00     0.126 S 
HETATM    2  O1  UNL     1      84.793  -4.995   8.047  1.00  0.00    -0.592 OA
HETATM    3  O2  UNL     1      87.085  -5.969   9.054  1.00  0.00    -0.592 OA
HETATM    4  O3  UNL     1      85.192  -7.585   8.262  1.00  0.00    -0.592 OA
ENDROOT
BRANCH   1   5
HETATM    5  C2  UNL     1      86.631  -6.129   6.416  1.00  0.00     0.123 C 
HETATM    6  C1  UNL     1      87.849  -5.769   6.056  1.00  0.00     0.026 C 
ENDBRANCH   1   5
TORSDOF 1
ENDMDL
