MODEL 2
REMARK VINA RESULT: -4.860534317      0.276      1.895
REMARK  1 active torsions:
REMARK  status: ('A' for Active; 'I' for Inactive)
REMARK    1  A    between atoms: C2_2  and  S1_3 
ROOT
HETATM    1  S1  UNL     1      85.731  -5.961   7.769  1.00  0.00     0.126 S 
HETATM    2  O1  UNL     1      85.349  -7.589   8.094  1.00  0.00    -0.592 OA
HETATM    3  O2  UNL     1      84.874  -4.945   8.079  1.00  0.00    -0.592 OA
HETATM    4  O3  UNL     1      87.176  -5.874   8.890  1.00  0.00    -0.592 OA
ENDROOT
BRANCH   1   5
HETATM    5  C2  UNL     1      86.493  -6.003   6.222  1.00  0.00     0.123 C 
HETATM    6  C1  UNL     1      87.801  -5.860   6.116  1.00  0.00     0.026 C 
ENDBRANCH   1   5
TORSDOF 1
ENDMDL
