MODEL 6
REMARK VINA RESULT: -7.703295613      2.632      6.529
REMARK  5 active torsions:
REMARK  status: ('A' for Active; 'I' for Inactive)
REMARK    1  A    between atoms: C4_9  and  C5_10 
REMARK    2  A    between atoms: C6_14  and  C7_15 
REMARK    3  A    between atoms: C7_15  and  O2_16 
REMARK    4  A    between atoms: C8_18  and  O3_19 
REMARK    5  A    between atoms: C9_21  and  O4_22 
ROOT
HETATM    1  C5  UNL     1       3.364  19.459  24.384  1.00  0.00     0.254 C 
HETATM    2  N3  UNL     1       3.850  19.774  25.663  1.00  0.00    -0.055 N 
ATOM      3  H31 UNL     1       4.167  20.733  25.811  1.00  0.00     0.278 HD
ATOM      4  H32 UNL     1       4.748  19.368  25.926  1.00  0.00     0.278 HD
HETATM    5  C6  UNL     1       2.644  19.327  26.452  1.00  0.00     0.241 C 
HETATM    6  C8  UNL     1       2.651  17.863  26.015  1.00  0.00     0.182 C 
HETATM    7  C9  UNL     1       2.741  18.063  24.511  1.00  0.00     0.184 C 
ENDROOT
BRANCH   1   8
HETATM    8  C4  UNL     1       4.131  19.593  23.178  1.00  0.00     0.019 A 
HETATM    9  C3  UNL     1       5.426  19.295  22.933  1.00  0.00     0.075 A 
HETATM   10  N2  UNL     1       6.297  18.601  23.704  1.00  0.00    -0.350 N 
HETATM   11  C11 UNL     1       5.761  19.724  21.668  1.00  0.00     0.128 A 
HETATM   12  C2  UNL     1       7.518  18.311  23.241  1.00  0.00     0.184 A 
ATOM     13  H2  UNL     1       6.020  18.298  24.638  1.00  0.00     0.166 HD
HETATM   14  N1  UNL     1       7.872  18.732  21.988  1.00  0.00    -0.318 N 
HETATM   15  C1  UNL     1       7.023  19.423  21.208  1.00  0.00     0.275 A 
ATOM     16  H1  UNL     1       8.805  18.516  21.637  1.00  0.00     0.169 HD
HETATM   17  O1  UNL     1       7.329  19.820  20.054  1.00  0.00    -0.266 OA
HETATM   18  N4  UNL     1       4.659  20.284  21.144  1.00  0.00    -0.359 N 
HETATM   19  C10 UNL     1       3.651  20.224  22.023  1.00  0.00     0.100 A 
ATOM     20  H4  UNL     1       4.598  20.695  20.212  1.00  0.00     0.165 HD
ENDBRANCH   1   8
BRANCH   7  21
HETATM   21  O4  UNL     1       1.541  17.935  23.899  1.00  0.00    -0.390 OA
ATOM     22  H4  UNL     1       1.082  17.130  24.110  1.00  0.00     0.210 HD
ENDBRANCH   7  21
BRANCH   5  23
HETATM   23  C7  UNL     1       2.769  19.537  27.902  1.00  0.00     0.199 C 
BRANCH  23  24
HETATM   24  O2  UNL     1       1.848  18.837  28.697  1.00  0.00    -0.399 OA
ATOM     25  H2  UNL     1       1.137  18.417  28.228  1.00  0.00     0.209 HD
ENDBRANCH  23  24
ENDBRANCH   5  23
BRANCH   6  26
HETATM   26  O3  UNL     1       1.621  17.119  26.454  1.00  0.00    -0.391 OA
ATOM     27  H3  UNL     1       1.499  16.285  26.016  1.00  0.00     0.210 HD
ENDBRANCH   6  26
TORSDOF 5
ENDMDL
