MODEL 1
REMARK VINA RESULT: -8.847914500      0.000      0.000
REMARK  5 active torsions:
REMARK  status: ('A' for Active; 'I' for Inactive)
REMARK    1  A    between atoms: C4_9  and  C5_10 
REMARK    2  A    between atoms: C6_14  and  C7_15 
REMARK    3  A    between atoms: C7_15  and  O2_16 
REMARK    4  A    between atoms: C8_18  and  O3_19 
REMARK    5  A    between atoms: C9_21  and  O4_22 
ROOT
HETATM    1  C5  UNL     1       3.716  18.736  25.001  1.00  0.00     0.254 C 
HETATM    2  N3  UNL     1       3.182  19.394  23.881  1.00  0.00    -0.055 N 
ATOM      3  H31 UNL     1       2.999  20.392  23.979  1.00  0.00     0.278 HD
ATOM      4  H32 UNL     1       2.217  19.175  23.637  1.00  0.00     0.278 HD
HETATM    5  C6  UNL     1       4.244  18.991  22.887  1.00  0.00     0.241 C 
HETATM    6  C8  UNL     1       4.056  17.478  22.996  1.00  0.00     0.182 C 
HETATM    7  C9  UNL     1       4.115  17.339  24.509  1.00  0.00     0.184 C 
ENDROOT
BRANCH   1   8
HETATM    8  C4  UNL     1       3.073  18.686  26.285  1.00  0.00     0.019 A 
HETATM    9  C3  UNL     1       2.267  17.743  26.817  1.00  0.00     0.075 A 
HETATM   10  N2  UNL     1       2.008  16.493  26.363  1.00  0.00    -0.350 N 
HETATM   11  C11 UNL     1       1.775  18.192  28.022  1.00  0.00     0.128 A 
HETATM   12  C2  UNL     1       1.259  15.657  27.090  1.00  0.00     0.184 A 
ATOM     13  H2  UNL     1       2.385  16.190  25.465  1.00  0.00     0.166 HD
HETATM   14  N1  UNL     1       0.757  16.085  28.289  1.00  0.00    -0.318 N 
HETATM   15  C1  UNL     1       1.002  17.322  28.757  1.00  0.00     0.275 A 
ATOM     16  H1  UNL     1       0.182  15.450  28.842  1.00  0.00     0.169 HD
HETATM   17  O1  UNL     1       0.549  17.736  29.856  1.00  0.00    -0.266 OA
HETATM   18  N4  UNL     1       2.291  19.415  28.220  1.00  0.00    -0.359 N 
HETATM   19  C10 UNL     1       3.082  19.751  27.194  1.00  0.00     0.100 A 
ATOM     20  H4  UNL     1       2.106  20.003  29.033  1.00  0.00     0.165 HD
ENDBRANCH   1   8
BRANCH   7  21
HETATM   21  O4  UNL     1       5.328  16.926  24.944  1.00  0.00    -0.390 OA
ATOM     22  H4  UNL     1       5.385  15.990  25.100  1.00  0.00     0.210 HD
ENDBRANCH   7  21
BRANCH   5  23
HETATM   23  C7  UNL     1       4.038  19.541  21.539  1.00  0.00     0.199 C 
BRANCH  23  24
HETATM   24  O2  UNL     1       4.785  18.935  20.517  1.00  0.00    -0.399 OA
ATOM     25  H2  UNL     1       4.424  18.130  20.166  1.00  0.00     0.209 HD
ENDBRANCH  23  24
ENDBRANCH   5  23
BRANCH   6  26
HETATM   26  O3  UNL     1       4.929  16.731  22.298  1.00  0.00    -0.391 OA
ATOM     27  H3  UNL     1       4.616  15.875  22.030  1.00  0.00     0.210 HD
ENDBRANCH   6  26
TORSDOF 5
ENDMDL
