MODEL 4
REMARK VINA RESULT: -8.066751919      2.118      6.305
REMARK  5 active torsions:
REMARK  status: ('A' for Active; 'I' for Inactive)
REMARK    1  A    between atoms: C4_9  and  C5_10 
REMARK    2  A    between atoms: C6_14  and  C7_15 
REMARK    3  A    between atoms: C7_15  and  O2_16 
REMARK    4  A    between atoms: C8_18  and  O3_19 
REMARK    5  A    between atoms: C9_21  and  O4_22 
ROOT
HETATM    1  C5  UNL     1       3.152  17.987  25.478  1.00  0.00     0.254 C 
HETATM    2  N3  UNL     1       2.146  17.045  25.749  1.00  0.00    -0.055 N 
ATOM      3  H31 UNL     1       2.264  16.117  25.341  1.00  0.00     0.278 HD
ATOM      4  H32 UNL     1       1.242  17.197  25.303  1.00  0.00     0.278 HD
HETATM    5  C6  UNL     1       2.186  17.136  27.255  1.00  0.00     0.241 C 
HETATM    6  C8  UNL     1       1.839  18.620  27.374  1.00  0.00     0.182 C 
HETATM    7  C9  UNL     1       2.856  19.182  26.393  1.00  0.00     0.184 C 
ENDROOT
BRANCH   1   8
HETATM    8  C4  UNL     1       3.524  18.407  24.156  1.00  0.00     0.019 A 
HETATM    9  C3  UNL     1       4.747  18.546  23.599  1.00  0.00     0.075 A 
HETATM   10  N2  UNL     1       5.946  18.134  24.075  1.00  0.00    -0.350 N 
HETATM   11  C11 UNL     1       4.617  19.110  22.350  1.00  0.00     0.128 A 
HETATM   12  C2  UNL     1       7.046  18.268  23.324  1.00  0.00     0.184 A 
ATOM     13  H2  UNL     1       6.011  17.723  25.006  1.00  0.00     0.166 HD
HETATM   14  N1  UNL     1       6.939  18.829  22.081  1.00  0.00    -0.318 N 
HETATM   15  C1  UNL     1       5.758  19.244  21.592  1.00  0.00     0.275 A 
ATOM     16  H1  UNL     1       7.778  18.935  21.510  1.00  0.00     0.169 HD
HETATM   17  O1  UNL     1       5.638  19.765  20.452  1.00  0.00    -0.266 OA
HETATM   18  N4  UNL     1       3.305  19.310  22.149  1.00  0.00    -0.359 N 
HETATM   19  C10 UNL     1       2.609  18.897  23.216  1.00  0.00     0.100 A 
ATOM     20  H4  UNL     1       2.897  19.718  21.308  1.00  0.00     0.165 HD
ENDBRANCH   1   8
BRANCH   7  21
HETATM   21  O4  UNL     1       3.947  19.687  27.012  1.00  0.00    -0.390 OA
ATOM     22  H4  UNL     1       3.797  20.520  27.445  1.00  0.00     0.210 HD
ENDBRANCH   7  21
BRANCH   5  23
HETATM   23  C7  UNL     1       1.248  16.229  27.931  1.00  0.00     0.199 C 
BRANCH  23  24
HETATM   24  O2  UNL     1       1.419  14.863  27.655  1.00  0.00    -0.399 OA
ATOM     25  H2  UNL     1       1.126  14.267  28.334  1.00  0.00     0.209 HD
ENDBRANCH  23  24
ENDBRANCH   5  23
BRANCH   6  26
HETATM   26  O3  UNL     1       1.872  19.127  28.618  1.00  0.00    -0.391 OA
ATOM     27  H3  UNL     1       1.127  18.917  29.169  1.00  0.00     0.210 HD
ENDBRANCH   6  26
TORSDOF 5
ENDMDL
