MODEL 7
REMARK VINA RESULT: -7.505212559      1.825      6.306
REMARK  5 active torsions:
REMARK  status: ('A' for Active; 'I' for Inactive)
REMARK    1  A    between atoms: C4_9  and  C5_10 
REMARK    2  A    between atoms: C6_14  and  C7_15 
REMARK    3  A    between atoms: C7_15  and  O2_16 
REMARK    4  A    between atoms: C8_18  and  O3_19 
REMARK    5  A    between atoms: C9_21  and  O4_22 
ROOT
HETATM    1  C5  UNL     1       3.328  17.860  25.661  1.00  0.00     0.254 C 
HETATM    2  N3  UNL     1       2.306  16.946  25.962  1.00  0.00    -0.055 N 
ATOM      3  H31 UNL     1       2.482  15.967  25.734  1.00  0.00     0.278 HD
ATOM      4  H32 UNL     1       1.463  16.994  25.390  1.00  0.00     0.278 HD
HETATM    5  C6  UNL     1       2.156  17.286  27.424  1.00  0.00     0.241 C 
HETATM    6  C8  UNL     1       1.783  18.758  27.249  1.00  0.00     0.182 C 
HETATM    7  C9  UNL     1       2.909  19.180  26.319  1.00  0.00     0.184 C 
ENDROOT
BRANCH   1   8
HETATM    8  C4  UNL     1       3.859  18.065  24.342  1.00  0.00     0.019 A 
HETATM    9  C3  UNL     1       3.774  19.140  23.528  1.00  0.00     0.075 A 
HETATM   10  N2  UNL     1       3.337  20.389  23.816  1.00  0.00    -0.350 N 
HETATM   11  C11 UNL     1       4.316  18.827  22.302  1.00  0.00     0.128 A 
HETATM   12  C2  UNL     1       3.429  21.359  22.900  1.00  0.00     0.184 A 
ATOM     13  H2  UNL     1       2.937  20.590  24.733  1.00  0.00     0.166 HD
HETATM   14  N1  UNL     1       3.962  21.068  21.673  1.00  0.00    -0.318 N 
HETATM   15  C1  UNL     1       4.400  19.835  21.368  1.00  0.00     0.275 A 
ATOM     16  H1  UNL     1       4.028  21.806  20.973  1.00  0.00     0.169 HD
HETATM   17  O1  UNL     1       4.892  19.545  20.246  1.00  0.00    -0.266 OA
HETATM   18  N4  UNL     1       4.735  17.554  22.377  1.00  0.00    -0.359 N 
HETATM   19  C10 UNL     1       4.478  17.057  23.594  1.00  0.00     0.100 A 
ATOM     20  H4  UNL     1       5.182  17.039  21.618  1.00  0.00     0.165 HD
ENDBRANCH   1   8
BRANCH   7  21
HETATM   21  O4  UNL     1       3.910  19.814  26.972  1.00  0.00    -0.390 OA
ATOM     22  H4  UNL     1       4.080  20.695  26.659  1.00  0.00     0.210 HD
ENDBRANCH   7  21
BRANCH   5  23
HETATM   23  C7  UNL     1       1.149  16.476  28.125  1.00  0.00     0.199 C 
BRANCH  23  24
HETATM   24  O2  UNL     1       1.247  15.089  27.933  1.00  0.00    -0.399 OA
ATOM     25  H2  UNL     1       0.424  14.615  27.934  1.00  0.00     0.209 HD
ENDBRANCH  23  24
ENDBRANCH   5  23
BRANCH   6  26
HETATM   26  O3  UNL     1       1.656  19.466  28.385  1.00  0.00    -0.391 OA
ATOM     27  H3  UNL     1       0.775  19.758  28.592  1.00  0.00     0.210 HD
ENDBRANCH   6  26
TORSDOF 5
ENDMDL
