MODEL 1
REMARK VINA RESULT: -7.905828020      0.000      0.000
REMARK  9 active torsions:
REMARK  status: ('A' for Active; 'I' for Inactive)
REMARK    1  A    between atoms: C2_5  and  O1_6 
REMARK    2  A    between atoms: N4_11  and  C4_12 
REMARK    3  A    between atoms: C8_16  and  C9_17 
REMARK       I    between atoms: C9_17  and  N5_19 
REMARK    4  A    between atoms: N5_19  and  C10_21 
REMARK    5  A    between atoms: C10_21  and  C11_22 
REMARK    6  A    between atoms: C16_27  and  S1_28 
REMARK    7  A    between atoms: S1_28  and  C17_29 
REMARK    8  A    between atoms: C22_34  and  C23_35 
REMARK    9  A    between atoms: C23_35  and  O3_36 
ROOT
HETATM    1  C4  UNL     1      51.628  40.940  62.444  1.00  0.00     0.075 A 
HETATM    2  C5  UNL     1      52.629  40.197  61.861  1.00  0.00     0.033 A 
HETATM    3  C6  UNL     1      53.914  40.735  61.724  1.00  0.00     0.003 A 
HETATM    4  C7  UNL     1      54.182  42.025  62.177  1.00  0.00     0.017 A 
HETATM    5  C8  UNL     1      53.191  42.782  62.764  1.00  0.00     0.034 A 
HETATM    6  C24 UNL     1      51.933  42.204  62.877  1.00  0.00     0.050 A 
ENDROOT
BRANCH   5   7
HETATM    7  C9  UNL     1      53.433  44.139  63.252  1.00  0.00     0.252 C 
HETATM    8  O2  UNL     1      54.551  44.379  63.803  1.00  0.00    -0.268 OA
HETATM    9  N5  UNL     1      52.494  45.194  63.143  1.00  0.00    -0.353 N 
ATOM     10  H5  UNL     1      51.595  45.008  62.698  1.00  0.00     0.163 HD
BRANCH   9  11
HETATM   11  C10 UNL     1      52.767  46.534  63.643  1.00  0.00     0.162 C 
BRANCH  11  12
HETATM   12  C11 UNL     1      53.129  47.502  62.602  1.00  0.00    -0.023 A 
HETATM   13  C12 UNL     1      54.292  48.231  62.758  1.00  0.00     0.010 A 
HETATM   14  C13 UNL     1      54.609  49.186  61.813  1.00  0.00     0.001 A 
HETATM   15  C14 UNL     1      53.777  49.404  60.738  1.00  0.00     0.001 A 
HETATM   16  C15 UNL     1      52.626  48.658  60.617  1.00  0.00     0.019 A 
HETATM   17  C16 UNL     1      52.267  47.674  61.555  1.00  0.00     0.013 A 
BRANCH  17  18
HETATM   18  S1  UNL     1      50.777  46.769  61.242  1.00  0.00    -0.089 SA
BRANCH  18  19
HETATM   19  C17 UNL     1      49.536  47.228  62.423  1.00  0.00     0.014 A 
HETATM   20  C18 UNL     1      49.249  48.584  62.638  1.00  0.00     0.019 A 
HETATM   21  C19 UNL     1      48.266  48.972  63.522  1.00  0.00     0.001 A 
HETATM   22  C20 UNL     1      47.528  48.042  64.229  1.00  0.00     0.001 A 
HETATM   23  C21 UNL     1      47.814  46.717  64.013  1.00  0.00     0.011 A 
HETATM   24  C22 UNL     1      48.809  46.310  63.116  1.00  0.00    -0.018 A 
BRANCH  24  25
HETATM   25  C23 UNL     1      48.995  44.865  62.907  1.00  0.00     0.204 C 
BRANCH  25  26
HETATM   26  O3  UNL     1      47.869  44.147  63.380  1.00  0.00    -0.396 OA
ATOM     27  H3  UNL     1      47.954  43.971  64.310  1.00  0.00     0.209 HD
ENDBRANCH  25  26
ENDBRANCH  24  25
ENDBRANCH  18  19
ENDBRANCH  17  18
ENDBRANCH  11  12
ENDBRANCH   9  11
ENDBRANCH   5   7
BRANCH   1  28
HETATM   28  N4  UNL     1      50.305  40.459  62.616  1.00  0.00    -0.195 N 
HETATM   29  N3  UNL     1      49.222  41.221  62.570  1.00  0.00    -0.272 N 
HETATM   30  C3  UNL     1      48.119  40.487  62.768  1.00  0.00     0.146 A 
ATOM     31  H3  UNL     1      49.227  42.228  62.405  1.00  0.00     0.189 HD
HETATM   32  C2  UNL     1      46.762  40.718  62.828  1.00  0.00     0.175 A 
HETATM   33  C25 UNL     1      48.535  39.185  62.950  1.00  0.00     0.157 A 
HETATM   34  N2  UNL     1      45.929  39.710  63.052  1.00  0.00    -0.309 N 
HETATM   35  C1  UNL     1      46.328  38.418  63.235  1.00  0.00     0.196 A 
ATOM     36  H2  UNL     1      44.931  39.914  63.091  1.00  0.00     0.170 HD
HETATM   37  N1  UNL     1      45.381  37.391  63.470  1.00  0.00    -0.063 NA
HETATM   38  N7  UNL     1      47.651  38.190  63.176  1.00  0.00    -0.313 N 
ATOM     39  H7  UNL     1      47.997  37.239  63.306  1.00  0.00     0.170 HD
HETATM   40  N6  UNL     1      49.888  39.227  62.847  1.00  0.00    -0.262 N 
ATOM     41  H6  UNL     1      50.500  38.416  62.937  1.00  0.00     0.191 HD
BRANCH  32  42
HETATM   42  O1  UNL     1      46.349  42.035  62.643  1.00  0.00    -0.344 OA
ATOM     43  H1  UNL     1      45.472  42.343  62.834  1.00  0.00     0.219 HD
ENDBRANCH  32  42
ENDBRANCH   1  28
TORSDOF 9
ENDMDL
