MODEL 3
REMARK VINA RESULT: -7.844210335      2.094      2.820
REMARK  9 active torsions:
REMARK  status: ('A' for Active; 'I' for Inactive)
REMARK    1  A    between atoms: C2_5  and  O1_6 
REMARK    2  A    between atoms: N4_11  and  C4_12 
REMARK    3  A    between atoms: C8_16  and  C9_17 
REMARK       I    between atoms: C9_17  and  N5_19 
REMARK    4  A    between atoms: N5_19  and  C10_21 
REMARK    5  A    between atoms: C10_21  and  C11_22 
REMARK    6  A    between atoms: C16_27  and  S1_28 
REMARK    7  A    between atoms: S1_28  and  C17_29 
REMARK    8  A    between atoms: C22_34  and  C23_35 
REMARK    9  A    between atoms: C23_35  and  O3_36 
ROOT
HETATM    1  C4  UNL     1      51.167  41.145  62.105  1.00  0.00     0.075 A 
HETATM    2  C5  UNL     1      52.371  40.481  62.067  1.00  0.00     0.033 A 
HETATM    3  C6  UNL     1      53.561  41.193  61.878  1.00  0.00     0.003 A 
HETATM    4  C7  UNL     1      53.528  42.578  61.727  1.00  0.00     0.017 A 
HETATM    5  C8  UNL     1      52.331  43.259  61.763  1.00  0.00     0.034 A 
HETATM    6  C24 UNL     1      51.177  42.508  61.952  1.00  0.00     0.050 A 
ENDROOT
BRANCH   5   7
HETATM    7  C9  UNL     1      52.255  44.710  61.607  1.00  0.00     0.252 C 
HETATM    8  O2  UNL     1      53.176  45.411  62.130  1.00  0.00    -0.268 OA
HETATM    9  N5  UNL     1      51.218  45.375  60.907  1.00  0.00    -0.353 N 
ATOM     10  H5  UNL     1      50.477  44.818  60.482  1.00  0.00     0.163 HD
BRANCH   9  11
HETATM   11  C10 UNL     1      51.172  46.824  60.775  1.00  0.00     0.162 C 
BRANCH  11  12
HETATM   12  C11 UNL     1      50.345  47.493  61.786  1.00  0.00    -0.023 A 
HETATM   13  C12 UNL     1      50.972  48.051  62.883  1.00  0.00     0.010 A 
HETATM   14  C13 UNL     1      50.197  48.630  63.868  1.00  0.00     0.001 A 
HETATM   15  C14 UNL     1      48.825  48.648  63.753  1.00  0.00     0.001 A 
HETATM   16  C15 UNL     1      48.237  48.082  62.644  1.00  0.00     0.019 A 
HETATM   17  C16 UNL     1      48.989  47.484  61.618  1.00  0.00     0.013 A 
BRANCH  17  18
HETATM   18  S1  UNL     1      48.091  46.834  60.236  1.00  0.00    -0.089 SA
BRANCH  18  19
HETATM   19  C17 UNL     1      46.495  46.271  60.768  1.00  0.00     0.014 A 
HETATM   20  C18 UNL     1      45.355  47.030  60.466  1.00  0.00     0.019 A 
HETATM   21  C19 UNL     1      44.098  46.602  60.834  1.00  0.00     0.001 A 
HETATM   22  C20 UNL     1      43.913  45.413  61.513  1.00  0.00     0.001 A 
HETATM   23  C21 UNL     1      45.034  44.676  61.804  1.00  0.00     0.011 A 
HETATM   24  C22 UNL     1      46.317  45.099  61.435  1.00  0.00    -0.018 A 
BRANCH  24  25
HETATM   25  C23 UNL     1      47.447  44.205  61.736  1.00  0.00     0.204 C 
BRANCH  25  26
HETATM   26  O3  UNL     1      47.174  43.433  62.891  1.00  0.00    -0.396 OA
ATOM     27  H3  UNL     1      47.857  42.787  63.029  1.00  0.00     0.209 HD
ENDBRANCH  25  26
ENDBRANCH  24  25
ENDBRANCH  18  19
ENDBRANCH  17  18
ENDBRANCH  11  12
ENDBRANCH   9  11
ENDBRANCH   5   7
BRANCH   1  28
HETATM   28  N4  UNL     1      49.924  40.489  62.294  1.00  0.00    -0.195 N 
HETATM   29  N3  UNL     1      48.764  40.943  61.842  1.00  0.00    -0.272 N 
HETATM   30  C3  UNL     1      47.769  40.110  62.175  1.00  0.00     0.146 A 
ATOM     31  H3  UNL     1      48.645  41.807  61.313  1.00  0.00     0.189 HD
HETATM   32  C2  UNL     1      46.405  40.058  61.989  1.00  0.00     0.175 A 
HETATM   33  C25 UNL     1      48.339  39.070  62.878  1.00  0.00     0.157 A 
HETATM   34  N2  UNL     1      45.709  39.041  62.480  1.00  0.00    -0.309 N 
HETATM   35  C1  UNL     1      46.261  38.006  63.178  1.00  0.00     0.196 A 
ATOM     36  H2  UNL     1      44.701  39.032  62.326  1.00  0.00     0.170 HD
HETATM   37  N1  UNL     1      45.455  36.951  63.672  1.00  0.00    -0.063 NA
HETATM   38  N7  UNL     1      47.592  38.054  63.359  1.00  0.00    -0.313 N 
ATOM     39  H7  UNL     1      48.050  37.302  63.874  1.00  0.00     0.170 HD
HETATM   40  N6  UNL     1      49.665  39.355  62.921  1.00  0.00    -0.262 N 
ATOM     41  H6  UNL     1      50.367  38.773  63.377  1.00  0.00     0.191 HD
BRANCH  32  42
HETATM   42  O1  UNL     1      45.836  41.112  61.279  1.00  0.00    -0.344 OA
ATOM     43  H1  UNL     1      46.106  42.017  61.373  1.00  0.00     0.219 HD
ENDBRANCH  32  42
ENDBRANCH   1  28
TORSDOF 9
ENDMDL
