MODEL 2
REMARK VINA RESULT: -7.859666718      2.859      5.051
REMARK  9 active torsions:
REMARK  status: ('A' for Active; 'I' for Inactive)
REMARK    1  A    between atoms: C2_5  and  O1_6 
REMARK    2  A    between atoms: N4_11  and  C4_12 
REMARK    3  A    between atoms: C8_16  and  C9_17 
REMARK       I    between atoms: C9_17  and  N5_19 
REMARK    4  A    between atoms: N5_19  and  C10_21 
REMARK    5  A    between atoms: C10_21  and  C11_22 
REMARK    6  A    between atoms: C16_27  and  S1_28 
REMARK    7  A    between atoms: S1_28  and  C17_29 
REMARK    8  A    between atoms: C22_34  and  C23_35 
REMARK    9  A    between atoms: C23_35  and  O3_36 
ROOT
HETATM    1  C4  UNL     1      47.904  39.649  62.620  1.00  0.00     0.075 A 
HETATM    2  C5  UNL     1      49.226  39.590  62.995  1.00  0.00     0.033 A 
HETATM    3  C6  UNL     1      50.016  40.745  62.968  1.00  0.00     0.003 A 
HETATM    4  C7  UNL     1      49.464  41.958  62.562  1.00  0.00     0.017 A 
HETATM    5  C8  UNL     1      48.141  42.036  62.184  1.00  0.00     0.034 A 
HETATM    6  C24 UNL     1      47.399  40.862  62.227  1.00  0.00     0.050 A 
ENDROOT
BRANCH   5   7
HETATM    7  C9  UNL     1      47.527  43.289  61.751  1.00  0.00     0.252 C 
HETATM    8  O2  UNL     1      47.306  43.442  60.510  1.00  0.00    -0.268 OA
HETATM    9  N5  UNL     1      47.166  44.336  62.634  1.00  0.00    -0.353 N 
ATOM     10  H5  UNL     1      47.338  44.219  63.632  1.00  0.00     0.163 HD
BRANCH   9  11
HETATM   11  C10 UNL     1      46.560  45.575  62.166  1.00  0.00     0.162 C 
BRANCH  11  12
HETATM   12  C11 UNL     1      47.200  46.790  62.683  1.00  0.00    -0.023 A 
HETATM   13  C12 UNL     1      46.659  47.392  63.802  1.00  0.00     0.010 A 
HETATM   14  C13 UNL     1      47.219  48.568  64.259  1.00  0.00     0.001 A 
HETATM   15  C14 UNL     1      48.295  49.126  63.607  1.00  0.00     0.001 A 
HETATM   16  C15 UNL     1      48.806  48.496  62.494  1.00  0.00     0.019 A 
HETATM   17  C16 UNL     1      48.267  47.296  61.997  1.00  0.00     0.013 A 
BRANCH  17  18
HETATM   18  S1  UNL     1      49.059  46.586  60.580  1.00  0.00    -0.089 SA
BRANCH  18  19
HETATM   19  C17 UNL     1      50.405  45.554  61.099  1.00  0.00     0.014 A 
HETATM   20  C18 UNL     1      50.903  45.666  62.405  1.00  0.00     0.019 A 
HETATM   21  C19 UNL     1      51.923  44.854  62.850  1.00  0.00     0.001 A 
HETATM   22  C20 UNL     1      52.495  43.902  62.027  1.00  0.00     0.001 A 
HETATM   23  C21 UNL     1      52.003  43.799  60.750  1.00  0.00     0.011 A 
HETATM   24  C22 UNL     1      50.965  44.617  60.287  1.00  0.00    -0.018 A 
BRANCH  24  25
HETATM   25  C23 UNL     1      50.464  44.383  58.922  1.00  0.00     0.204 C 
BRANCH  25  26
HETATM   26  O3  UNL     1      49.676  43.207  58.879  1.00  0.00    -0.396 OA
ATOM     27  H3  UNL     1      48.763  43.423  58.733  1.00  0.00     0.209 HD
ENDBRANCH  25  26
ENDBRANCH  24  25
ENDBRANCH  18  19
ENDBRANCH  17  18
ENDBRANCH  11  12
ENDBRANCH   9  11
ENDBRANCH   5   7
BRANCH   1  28
HETATM   28  N4  UNL     1      47.045  38.521  62.623  1.00  0.00    -0.195 N 
HETATM   29  N3  UNL     1      45.863  38.484  63.222  1.00  0.00    -0.272 N 
HETATM   30  C3  UNL     1      45.286  37.286  63.052  1.00  0.00     0.146 A 
ATOM     31  H3  UNL     1      45.450  39.259  63.739  1.00  0.00     0.189 HD
HETATM   32  C2  UNL     1      44.105  36.684  63.429  1.00  0.00     0.175 A 
HETATM   33  C25 UNL     1      46.158  36.527  62.303  1.00  0.00     0.157 A 
HETATM   34  N2  UNL     1      43.857  35.432  63.069  1.00  0.00    -0.309 N 
HETATM   35  C1  UNL     1      44.712  34.669  62.327  1.00  0.00     0.196 A 
ATOM     36  H2  UNL     1      42.975  35.015  63.364  1.00  0.00     0.170 HD
HETATM   37  N1  UNL     1      44.380  33.337  61.978  1.00  0.00    -0.063 NA
HETATM   38  N7  UNL     1      45.864  35.255  61.958  1.00  0.00    -0.313 N 
ATOM     39  H7  UNL     1      46.534  34.724  61.401  1.00  0.00     0.170 HD
HETATM   40  N6  UNL     1      47.222  37.335  62.068  1.00  0.00    -0.262 N 
ATOM     41  H6  UNL     1      48.048  37.064  61.534  1.00  0.00     0.191 HD
BRANCH  32  42
HETATM   42  O1  UNL     1      43.230  37.457  64.187  1.00  0.00    -0.344 OA
ATOM     43  H1  UNL     1      42.596  38.056  63.811  1.00  0.00     0.219 HD
ENDBRANCH  32  42
ENDBRANCH   1  28
TORSDOF 9
ENDMDL
