MODEL 3
REMARK VINA RESULT: -5.285174152      0.454      1.960
REMARK  1 active torsions:
REMARK  status: ('A' for Active; 'I' for Inactive)
REMARK    1  A    between atoms: C1_2  and  C2_6 
ROOT
HETATM    1  C2  UNL     1      -6.528  31.213  33.915  1.00  0.00     0.004 A 
HETATM    2  C3  UNL     1      -5.503  30.490  34.455  1.00  0.00     0.015 A 
HETATM    3  C4  UNL     1      -5.709  29.437  35.358  1.00  0.00     0.001 A 
HETATM    4  C5  UNL     1      -6.991  29.138  35.700  1.00  0.00     0.000 A 
HETATM    5  C6  UNL     1      -8.076  29.823  35.196  1.00  0.00     0.001 A 
HETATM    6  C7  UNL     1      -7.825  30.848  34.313  1.00  0.00     0.015 A 
ENDROOT
BRANCH   1   7
HETATM    7  C1  UNL     1      -6.317  32.293  32.987  1.00  0.00     0.120 C 
HETATM    8  N1  UNL     1      -7.446  33.035  32.542  1.00  0.00    -0.082 NA
HETATM    9  N2  UNL     1      -5.170  32.597  32.564  1.00  0.00    -0.387 N 
ATOM     10  H22 UNL     1      -5.020  33.363  31.906  1.00  0.00     0.157 HD
ATOM     11  H21 UNL     1      -4.360  32.065  32.883  1.00  0.00     0.157 HD
ENDBRANCH   1   7
TORSDOF 1
ENDMDL
