MODEL 4
REMARK VINA RESULT: -5.275669913      0.450      1.151
REMARK  1 active torsions:
REMARK  status: ('A' for Active; 'I' for Inactive)
REMARK    1  A    between atoms: C1_2  and  C2_6 
ROOT
HETATM    1  C2  UNL     1      -6.576  31.220  33.916  1.00  0.00     0.004 A 
HETATM    2  C3  UNL     1      -7.830  30.851  34.311  1.00  0.00     0.015 A 
HETATM    3  C4  UNL     1      -8.066  29.803  35.211  1.00  0.00     0.001 A 
HETATM    4  C5  UNL     1      -6.987  29.136  35.703  1.00  0.00     0.000 A 
HETATM    5  C6  UNL     1      -5.692  29.451  35.351  1.00  0.00     0.001 A 
HETATM    6  C7  UNL     1      -5.510  30.487  34.464  1.00  0.00     0.015 A 
ENDROOT
BRANCH   1   7
HETATM    7  C1  UNL     1      -6.334  32.296  32.992  1.00  0.00     0.120 C 
HETATM    8  N1  UNL     1      -7.444  33.064  32.538  1.00  0.00    -0.082 NA
HETATM    9  N2  UNL     1      -5.178  32.576  32.578  1.00  0.00    -0.387 N 
ATOM     10  H22 UNL     1      -5.007  33.339  31.922  1.00  0.00     0.157 HD
ATOM     11  H21 UNL     1      -4.383  32.026  32.903  1.00  0.00     0.157 HD
ENDBRANCH   1   7
TORSDOF 1
ENDMDL
