MODEL 1
REMARK VINA RESULT: -5.723219952      0.000      0.000
REMARK  1 active torsions:
REMARK  status: ('A' for Active; 'I' for Inactive)
REMARK    1  A    between atoms: C1_2  and  C2_6 
ROOT
HETATM    1  C2  UNL     1      -6.983  31.063  33.960  1.00  0.00     0.004 A 
HETATM    2  C3  UNL     1      -8.204  30.740  34.478  1.00  0.00     0.015 A 
HETATM    3  C4  UNL     1      -8.382  29.735  35.439  1.00  0.00     0.001 A 
HETATM    4  C5  UNL     1      -7.278  29.061  35.861  1.00  0.00     0.000 A 
HETATM    5  C6  UNL     1      -6.012  29.331  35.384  1.00  0.00     0.001 A 
HETATM    6  C7  UNL     1      -5.887  30.326  34.443  1.00  0.00     0.015 A 
ENDROOT
BRANCH   1   7
HETATM    7  C1  UNL     1      -6.801  32.096  32.975  1.00  0.00     0.120 C 
HETATM    8  N1  UNL     1      -5.502  32.654  32.808  1.00  0.00    -0.082 NA
HETATM    9  N2  UNL     1      -7.751  32.515  32.262  1.00  0.00    -0.387 N 
ATOM     10  H22 UNL     1      -7.622  33.248  31.563  1.00  0.00     0.157 HD
ATOM     11  H21 UNL     1      -8.682  32.116  32.382  1.00  0.00     0.157 HD
ENDBRANCH   1   7
TORSDOF 1
ENDMDL
