MODEL 19
REMARK VINA RESULT: -4.290277185      3.883      4.681
REMARK  1 active torsions:
REMARK  status: ('A' for Active; 'I' for Inactive)
REMARK    1  A    between atoms: C1_2  and  C2_6 
ROOT
HETATM    1  C2  UNL     1      -7.961  28.997  36.801  1.00  0.00     0.004 A 
HETATM    2  C3  UNL     1      -9.075  29.783  36.723  1.00  0.00     0.015 A 
HETATM    3  C4  UNL     1      -9.288  30.699  35.684  1.00  0.00     0.001 A 
HETATM    4  C5  UNL     1      -8.333  30.796  34.719  1.00  0.00     0.000 A 
HETATM    5  C6  UNL     1      -7.183  30.036  34.731  1.00  0.00     0.001 A 
HETATM    6  C7  UNL     1      -7.017  29.150  35.771  1.00  0.00     0.015 A 
ENDROOT
BRANCH   1   7
HETATM    7  C1  UNL     1      -7.743  28.056  37.867  1.00  0.00     0.120 C 
HETATM    8  N1  UNL     1      -7.266  28.545  39.116  1.00  0.00    -0.082 NA
HETATM    9  N2  UNL     1      -7.962  26.823  37.728  1.00  0.00    -0.387 N 
ATOM     10  H22 UNL     1      -7.807  26.156  38.485  1.00  0.00     0.157 HD
ATOM     11  H21 UNL     1      -8.304  26.473  36.833  1.00  0.00     0.157 HD
ENDBRANCH   1   7
TORSDOF 1
ENDMDL
