MODEL 18
REMARK VINA RESULT: -4.319988665      3.769      4.805
REMARK  1 active torsions:
REMARK  status: ('A' for Active; 'I' for Inactive)
REMARK    1  A    between atoms: C1_2  and  C2_6 
ROOT
HETATM    1  C2  UNL     1      -7.796  29.156  36.688  1.00  0.00     0.004 A 
HETATM    2  C3  UNL     1      -6.782  29.264  35.780  1.00  0.00     0.015 A 
HETATM    3  C4  UNL     1      -6.847  30.110  34.664  1.00  0.00     0.001 A 
HETATM    4  C5  UNL     1      -7.977  30.848  34.494  1.00  0.00     0.000 A 
HETATM    5  C6  UNL     1      -9.042  30.792  35.368  1.00  0.00     0.001 A 
HETATM    6  C7  UNL     1      -8.933  29.947  36.449  1.00  0.00     0.015 A 
ENDROOT
BRANCH   1   7
HETATM    7  C1  UNL     1      -7.729  28.288  37.833  1.00  0.00     0.120 C 
HETATM    8  N1  UNL     1      -7.447  28.862  39.104  1.00  0.00    -0.082 NA
HETATM    9  N2  UNL     1      -7.912  27.045  37.742  1.00  0.00    -0.387 N 
ATOM     10  H22 UNL     1      -7.864  26.429  38.555  1.00  0.00     0.157 HD
ATOM     11  H21 UNL     1      -8.113  26.633  36.831  1.00  0.00     0.157 HD
ENDBRANCH   1   7
TORSDOF 1
ENDMDL
