MODEL 2
REMARK VINA RESULT: -5.708199412      0.034      1.586
REMARK  1 active torsions:
REMARK  status: ('A' for Active; 'I' for Inactive)
REMARK    1  A    between atoms: C1_2  and  C2_6 
ROOT
HETATM    1  C2  UNL     1      -6.943  31.054  33.958  1.00  0.00     0.004 A 
HETATM    2  C3  UNL     1      -5.900  30.311  34.432  1.00  0.00     0.015 A 
HETATM    3  C4  UNL     1      -6.059  29.299  35.388  1.00  0.00     0.001 A 
HETATM    4  C5  UNL     1      -7.315  29.059  35.854  1.00  0.00     0.000 A 
HETATM    5  C6  UNL     1      -8.417  29.768  35.423  1.00  0.00     0.001 A 
HETATM    6  C7  UNL     1      -8.211  30.752  34.483  1.00  0.00     0.015 A 
ENDROOT
BRANCH   1   7
HETATM    7  C1  UNL     1      -6.780  32.093  32.976  1.00  0.00     0.120 C 
HETATM    8  N1  UNL     1      -5.488  32.663  32.801  1.00  0.00    -0.082 NA
HETATM    9  N2  UNL     1      -7.740  32.506  32.273  1.00  0.00    -0.387 N 
ATOM     10  H22 UNL     1      -7.623  33.243  31.577  1.00  0.00     0.157 HD
ATOM     11  H21 UNL     1      -8.666  32.098  32.399  1.00  0.00     0.157 HD
ENDBRANCH   1   7
TORSDOF 1
ENDMDL
