MODEL 3
REMARK VINA RESULT: -7.394870540      1.356      2.437
REMARK  5 active torsions:
REMARK  status: ('A' for Active; 'I' for Inactive)
REMARK    1  A    between atoms: O1_2  and  C2_3 
REMARK    2  A    between atoms: C4_5  and  O2_6 
REMARK    3  A    between atoms: C7_9  and  C8_10 
REMARK    4  A    between atoms: C10_15  and  C11_16 
REMARK    5  A    between atoms: C11_16  and  N3_17 
ROOT
HETATM    1  C8  UNL     1      51.134  51.646  35.244  1.00  0.00     0.117 A 
HETATM    2  N1  UNL     1      50.842  52.225  36.429  1.00  0.00    -0.330 N 
ATOM      3  H1  UNL     1      51.576  52.302  37.133  1.00  0.00     0.168 HD
HETATM    4  C9  UNL     1      49.623  52.699  36.713  1.00  0.00     0.128 A 
HETATM    5  N2  UNL     1      49.275  53.309  37.939  1.00  0.00    -0.082 NA
HETATM    6  C10 UNL     1      48.640  52.569  35.708  1.00  0.00     0.036 A 
HETATM    7  C12 UNL     1      48.916  51.991  34.521  1.00  0.00     0.057 A 
HETATM    8  C13 UNL     1      47.942  51.835  33.466  1.00  0.00     0.013 A 
HETATM    9  C14 UNL     1      46.913  50.912  33.656  1.00  0.00     0.017 A 
HETATM   10  C15 UNL     1      45.983  50.614  32.704  1.00  0.00     0.025 A 
HETATM   11  C16 UNL     1      46.078  51.277  31.483  1.00  0.00     0.035 A 
HETATM   12 CL1  UNL     1      44.908  50.931  30.230  1.00  0.00    -0.084 Cl
HETATM   13  C17 UNL     1      47.091  52.186  31.296  1.00  0.00     0.048 A 
HETATM   14  C18 UNL     1      48.028  52.487  32.252  1.00  0.00     0.048 A 
HETATM   15 CL2  UNL     1      49.318  53.635  32.032  1.00  0.00    -0.083 Cl
HETATM   16  N4  UNL     1      50.201  51.523  34.292  1.00  0.00    -0.340 N 
ATOM     17  H4  UNL     1      50.435  51.085  33.401  1.00  0.00     0.167 HD
ENDROOT
BRANCH   1  18
HETATM   18  C7  UNL     1      52.484  51.158  35.004  1.00  0.00     0.013 A 
HETATM   19  C6  UNL     1      52.712  50.184  34.052  1.00  0.00     0.052 A 
HETATM   20  C4  UNL     1      53.978  49.690  33.785  1.00  0.00     0.071 A 
HETATM   21  C3  UNL     1      55.039  50.206  34.512  1.00  0.00     0.073 A 
HETATM   22  C2  UNL     1      54.859  51.185  35.479  1.00  0.00     0.071 A 
HETATM   23  C19 UNL     1      53.581  51.636  35.698  1.00  0.00     0.052 A 
BRANCH  20  24
HETATM   24  O2  UNL     1      54.096  48.720  32.814  1.00  0.00    -0.356 OA
HETATM   25  C5  UNL     1      53.378  47.525  32.749  1.00  0.00     0.210 C 
ENDBRANCH  20  24
BRANCH  22  26
HETATM   26  O1  UNL     1      55.971  51.659  36.173  1.00  0.00    -0.356 OA
HETATM   27  C1  UNL     1      57.234  51.526  35.553  1.00  0.00     0.210 C 
ENDBRANCH  22  26
ENDBRANCH   1  18
BRANCH   6  28
HETATM   28  C11 UNL     1      47.344  53.158  36.055  1.00  0.00     0.274 C 
BRANCH  28  29
HETATM   29  N3  UNL     1      46.620  52.341  36.973  1.00  0.00    -0.075 N 
ATOM     30  H33 UNL     1      45.637  52.267  36.709  1.00  0.00     0.274 HD
ATOM     31  H32 UNL     1      46.882  51.360  36.884  1.00  0.00     0.274 HD
ATOM     32  H31 UNL     1      46.723  52.668  37.933  1.00  0.00     0.274 HD
ENDBRANCH  28  29
ENDBRANCH   6  28
TORSDOF 5
ENDMDL
