MODEL 1
REMARK VINA RESULT: -7.431381588      0.000      0.000
REMARK  5 active torsions:
REMARK  status: ('A' for Active; 'I' for Inactive)
REMARK    1  A    between atoms: O1_2  and  C2_3 
REMARK    2  A    between atoms: C4_5  and  O2_6 
REMARK    3  A    between atoms: C7_9  and  C8_10 
REMARK    4  A    between atoms: C10_15  and  C11_16 
REMARK    5  A    between atoms: C11_16  and  N3_17 
ROOT
HETATM    1  C8  UNL     1      51.003  51.877  35.456  1.00  0.00     0.117 A 
HETATM    2  N1  UNL     1      50.560  52.057  36.719  1.00  0.00    -0.330 N 
ATOM      3  H1  UNL     1      51.244  52.160  37.470  1.00  0.00     0.168 HD
HETATM    4  C9  UNL     1      49.257  52.105  37.022  1.00  0.00     0.128 A 
HETATM    5  N2  UNL     1      48.753  52.290  38.328  1.00  0.00    -0.082 NA
HETATM    6  C10 UNL     1      48.350  51.958  35.950  1.00  0.00     0.036 A 
HETATM    7  C12 UNL     1      48.777  51.774  34.684  1.00  0.00     0.057 A 
HETATM    8  C13 UNL     1      47.885  51.617  33.559  1.00  0.00     0.013 A 
HETATM    9  C14 UNL     1      47.151  50.433  33.464  1.00  0.00     0.017 A 
HETATM   10  C15 UNL     1      46.341  50.132  32.410  1.00  0.00     0.025 A 
HETATM   11  C16 UNL     1      46.250  51.066  31.381  1.00  0.00     0.035 A 
HETATM   12 CL1  UNL     1      45.223  50.725  30.007  1.00  0.00    -0.084 Cl
HETATM   13  C17 UNL     1      46.972  52.231  31.474  1.00  0.00     0.048 A 
HETATM   14  C18 UNL     1      47.788  52.537  32.534  1.00  0.00     0.048 A 
HETATM   15 CL2  UNL     1      48.710  54.008  32.668  1.00  0.00    -0.083 Cl
HETATM   16  N4  UNL     1      50.141  51.737  34.440  1.00  0.00    -0.340 N 
ATOM     17  H4  UNL     1      50.488  51.603  33.491  1.00  0.00     0.167 HD
ENDROOT
BRANCH   1  18
HETATM   18  C7  UNL     1      52.435  51.841  35.201  1.00  0.00     0.013 A 
HETATM   19  C6  UNL     1      53.164  53.013  35.157  1.00  0.00     0.052 A 
HETATM   20  C4  UNL     1      54.528  53.029  34.921  1.00  0.00     0.071 A 
HETATM   21  C3  UNL     1      55.164  51.813  34.725  1.00  0.00     0.073 A 
HETATM   22  C2  UNL     1      54.474  50.610  34.760  1.00  0.00     0.071 A 
HETATM   23  C19 UNL     1      53.123  50.658  34.999  1.00  0.00     0.052 A 
BRANCH  20  24
HETATM   24  O2  UNL     1      55.161  54.253  34.898  1.00  0.00    -0.356 OA
HETATM   25  C5  UNL     1      54.803  55.382  35.638  1.00  0.00     0.210 C 
ENDBRANCH  20  24
BRANCH  22  26
HETATM   26  O1  UNL     1      55.177  49.424  34.554  1.00  0.00    -0.356 OA
HETATM   27  C1  UNL     1      56.069  49.009  35.568  1.00  0.00     0.210 C 
ENDBRANCH  22  26
ENDBRANCH   1  18
BRANCH   6  28
HETATM   28  C11 UNL     1      46.941  52.077  36.336  1.00  0.00     0.274 C 
BRANCH  28  29
HETATM   29  N3  UNL     1      46.520  53.439  36.388  1.00  0.00    -0.075 N 
ATOM     30  H33 UNL     1      46.320  53.729  37.344  1.00  0.00     0.274 HD
ATOM     31  H32 UNL     1      47.292  54.074  36.186  1.00  0.00     0.274 HD
ATOM     32  H31 UNL     1      45.725  53.612  35.773  1.00  0.00     0.274 HD
ENDBRANCH  28  29
ENDBRANCH   6  28
TORSDOF 5
ENDMDL
