MODEL 2
REMARK VINA RESULT: -7.429279934      0.159      2.392
REMARK  5 active torsions:
REMARK  status: ('A' for Active; 'I' for Inactive)
REMARK    1  A    between atoms: O1_2  and  C2_3 
REMARK    2  A    between atoms: C4_5  and  O2_6 
REMARK    3  A    between atoms: C7_9  and  C8_10 
REMARK    4  A    between atoms: C10_15  and  C11_16 
REMARK    5  A    between atoms: C11_16  and  N3_17 
ROOT
HETATM    1  C8  UNL     1      51.042  51.896  35.463  1.00  0.00     0.117 A 
HETATM    2  N1  UNL     1      50.630  52.024  36.742  1.00  0.00    -0.330 N 
ATOM      3  H1  UNL     1      51.331  52.122  37.478  1.00  0.00     0.168 HD
HETATM    4  C9  UNL     1      49.335  52.028  37.080  1.00  0.00     0.128 A 
HETATM    5  N2  UNL     1      48.861  52.157  38.405  1.00  0.00    -0.082 NA
HETATM    6  C10 UNL     1      48.403  51.889  36.029  1.00  0.00     0.036 A 
HETATM    7  C12 UNL     1      48.800  51.757  34.747  1.00  0.00     0.057 A 
HETATM    8  C13 UNL     1      47.882  51.611  33.641  1.00  0.00     0.013 A 
HETATM    9  C14 UNL     1      47.177  50.412  33.528  1.00  0.00     0.017 A 
HETATM   10  C15 UNL     1      46.347  50.122  32.486  1.00  0.00     0.025 A 
HETATM   11  C16 UNL     1      46.203  51.085  31.491  1.00  0.00     0.035 A 
HETATM   12 CL1  UNL     1      45.148  50.760  30.134  1.00  0.00    -0.084 Cl
HETATM   13  C17 UNL     1      46.896  52.266  31.602  1.00  0.00     0.048 A 
HETATM   14  C18 UNL     1      47.733  52.561  32.649  1.00  0.00     0.048 A 
HETATM   15 CL2  UNL     1      48.619  54.050  32.806  1.00  0.00    -0.083 Cl
HETATM   16  N4  UNL     1      50.157  51.765  34.466  1.00  0.00    -0.340 N 
ATOM     17  H4  UNL     1      50.481  51.670  33.504  1.00  0.00     0.167 HD
ENDROOT
BRANCH   1  18
HETATM   18  C7  UNL     1      52.468  51.907  35.169  1.00  0.00     0.013 A 
HETATM   19  C6  UNL     1      53.164  50.720  35.058  1.00  0.00     0.052 A 
HETATM   20  C4  UNL     1      54.519  50.679  34.776  1.00  0.00     0.071 A 
HETATM   21  C3  UNL     1      55.180  51.886  34.604  1.00  0.00     0.073 A 
HETATM   22  C2  UNL     1      54.522  53.103  34.706  1.00  0.00     0.071 A 
HETATM   23  C19 UNL     1      53.179  53.080  34.986  1.00  0.00     0.052 A 
BRANCH  20  24
HETATM   24  O2  UNL     1      55.119  49.442  34.686  1.00  0.00    -0.356 OA
HETATM   25  C5  UNL     1      56.045  48.906  35.583  1.00  0.00     0.210 C 
ENDBRANCH  20  24
BRANCH  22  26
HETATM   26  O1  UNL     1      55.249  54.278  34.521  1.00  0.00    -0.356 OA
HETATM   27  C1  UNL     1      55.038  55.329  35.443  1.00  0.00     0.210 C 
ENDBRANCH  22  26
ENDBRANCH   1  18
BRANCH   6  28
HETATM   28  C11 UNL     1      47.002  51.958  36.455  1.00  0.00     0.274 C 
BRANCH  28  29
HETATM   29  N3  UNL     1      46.531  53.303  36.511  1.00  0.00    -0.075 N 
ATOM     30  H33 UNL     1      46.505  53.648  37.471  1.00  0.00     0.274 HD
ATOM     31  H32 UNL     1      47.218  53.953  36.128  1.00  0.00     0.274 HD
ATOM     32  H31 UNL     1      45.625  53.406  36.054  1.00  0.00     0.274 HD
ENDBRANCH  28  29
ENDBRANCH   6  28
TORSDOF 5
ENDMDL
