MODEL 8
REMARK VINA RESULT: -6.301746922      2.252      3.120
REMARK  3 active torsions:
REMARK  status: ('A' for Active; 'I' for Inactive)
REMARK    1  A    between atoms: C1_2  and  C2_3 
REMARK       I    between atoms: C1_2  and  N2_16 
REMARK    2  A    between atoms: C2_3  and  C3_4 
REMARK    3  A    between atoms: N2_16  and  O3_18 
ROOT
HETATM    1  C3  UNL     1      58.146  50.850  36.948  1.00  0.00     0.153 C 
HETATM    2  S1  UNL     1      56.369  50.483  36.935  1.00  0.00    -0.113 SA
HETATM    3  C4  UNL     1      56.020  49.716  35.361  1.00  0.00     0.028 A 
HETATM    4  C5  UNL     1      54.702  49.633  34.967  1.00  0.00     0.021 A 
HETATM    5  C6  UNL     1      54.323  49.059  33.768  1.00  0.00     0.002 A 
HETATM    6  C7  UNL     1      55.328  48.568  32.971  1.00  0.00     0.002 A 
HETATM    7  C8  UNL     1      56.643  48.643  33.345  1.00  0.00     0.031 A 
HETATM    8  C9  UNL     1      57.000  49.223  34.556  1.00  0.00     0.051 A 
HETATM    9  N1  UNL     1      58.351  49.290  34.923  1.00  0.00    -0.325 N 
ATOM     10  H1  UNL     1      59.034  48.901  34.274  1.00  0.00     0.169 HD
HETATM   11  C10 UNL     1      58.837  49.849  36.114  1.00  0.00     0.236 C 
HETATM   12  O2  UNL     1      59.970  49.464  36.514  1.00  0.00    -0.272 OA
ENDROOT
BRANCH   1  13
HETATM   13  C2  UNL     1      58.403  52.268  36.441  1.00  0.00     0.130 C 
BRANCH  13  14
HETATM   14  C1  UNL     1      58.675  53.123  37.635  1.00  0.00     0.242 C 
HETATM   15  O1  UNL     1      58.723  54.383  37.561  1.00  0.00    -0.271 OA
HETATM   16  N2  UNL     1      58.879  52.436  38.865  1.00  0.00    -0.237 N 
ATOM     17  H2  UNL     1      58.838  51.418  38.907  1.00  0.00     0.197 HD
BRANCH  16  18
HETATM   18  O3  UNL     1      59.126  53.159  39.965  1.00  0.00    -0.287 OA
ATOM     19  H3  UNL     1      59.262  52.700  40.786  1.00  0.00     0.244 HD
ENDBRANCH  16  18
ENDBRANCH  13  14
ENDBRANCH   1  13
TORSDOF 3
ENDMDL
