MODEL 7
REMARK VINA RESULT: -6.302544453      3.922      5.187
REMARK  3 active torsions:
REMARK  status: ('A' for Active; 'I' for Inactive)
REMARK    1  A    between atoms: C1_2  and  C2_3 
REMARK       I    between atoms: C1_2  and  N2_16 
REMARK    2  A    between atoms: C2_3  and  C3_4 
REMARK    3  A    between atoms: N2_16  and  O3_18 
ROOT
HETATM    1  C3  UNL     1      59.134  49.819  35.488  1.00  0.00     0.153 C 
HETATM    2  S1  UNL     1      58.631  50.281  37.169  1.00  0.00    -0.113 SA
HETATM    3  C4  UNL     1      56.862  50.523  37.122  1.00  0.00     0.028 A 
HETATM    4  C5  UNL     1      56.278  51.186  38.179  1.00  0.00     0.021 A 
HETATM    5  C6  UNL     1      54.918  51.426  38.241  1.00  0.00     0.002 A 
HETATM    6  C7  UNL     1      54.160  50.971  37.191  1.00  0.00     0.002 A 
HETATM    7  C8  UNL     1      54.723  50.310  36.132  1.00  0.00     0.031 A 
HETATM    8  C9  UNL     1      56.093  50.080  36.091  1.00  0.00     0.051 A 
HETATM    9  N1  UNL     1      56.651  49.400  35.000  1.00  0.00    -0.325 N 
ATOM     10  H1  UNL     1      56.017  49.095  34.262  1.00  0.00     0.169 HD
HETATM   11  C10 UNL     1      58.013  49.108  34.843  1.00  0.00     0.236 C 
HETATM   12  O2  UNL     1      58.315  48.149  34.081  1.00  0.00    -0.272 OA
ENDROOT
BRANCH   1  13
HETATM   13  C2  UNL     1      59.539  51.057  34.691  1.00  0.00     0.130 C 
BRANCH  13  14
HETATM   14  C1  UNL     1      60.790  50.717  33.950  1.00  0.00     0.242 C 
HETATM   15  O1  UNL     1      61.334  51.527  33.147  1.00  0.00    -0.271 OA
HETATM   16  N2  UNL     1      61.336  49.427  34.199  1.00  0.00    -0.237 N 
ATOM     17  H2  UNL     1      60.883  48.785  34.849  1.00  0.00     0.197 HD
BRANCH  16  18
HETATM   18  O3  UNL     1      62.458  49.075  33.558  1.00  0.00    -0.287 OA
ATOM     19  H3  UNL     1      62.600  48.156  33.367  1.00  0.00     0.244 HD
ENDBRANCH  16  18
ENDBRANCH  13  14
ENDBRANCH   1  13
TORSDOF 3
ENDMDL
