MODEL 9
REMARK VINA RESULT: -6.294386355      1.992      2.503
REMARK  3 active torsions:
REMARK  status: ('A' for Active; 'I' for Inactive)
REMARK    1  A    between atoms: C1_2  and  C2_3 
REMARK       I    between atoms: C1_2  and  N2_16 
REMARK    2  A    between atoms: C2_3  and  C3_4 
REMARK    3  A    between atoms: N2_16  and  O3_18 
ROOT
HETATM    1  C3  UNL     1      58.102  50.967  38.616  1.00  0.00     0.153 C 
HETATM    2  S1  UNL     1      58.941  51.798  37.238  1.00  0.00    -0.113 SA
HETATM    3  C4  UNL     1      58.479  50.914  35.756  1.00  0.00     0.028 A 
HETATM    4  C5  UNL     1      59.226  51.137  34.620  1.00  0.00     0.021 A 
HETATM    5  C6  UNL     1      58.954  50.505  33.421  1.00  0.00     0.002 A 
HETATM    6  C7  UNL     1      57.895  49.631  33.407  1.00  0.00     0.002 A 
HETATM    7  C8  UNL     1      57.143  49.396  34.527  1.00  0.00     0.031 A 
HETATM    8  C9  UNL     1      57.434  50.044  35.721  1.00  0.00     0.051 A 
HETATM    9  N1  UNL     1      56.652  49.793  36.857  1.00  0.00    -0.325 N 
ATOM     10  H1  UNL     1      55.883  49.130  36.761  1.00  0.00     0.169 HD
HETATM   11  C10 UNL     1      56.844  50.381  38.115  1.00  0.00     0.236 C 
HETATM   12  O2  UNL     1      55.854  50.417  38.895  1.00  0.00    -0.272 OA
ENDROOT
BRANCH   1  13
HETATM   13  C2  UNL     1      59.008  49.899  39.228  1.00  0.00     0.130 C 
BRANCH  13  14
HETATM   14  C1  UNL     1      58.896  50.021  40.712  1.00  0.00     0.242 C 
HETATM   15  O1  UNL     1      58.592  51.110  41.275  1.00  0.00    -0.271 OA
HETATM   16  N2  UNL     1      59.152  48.836  41.459  1.00  0.00    -0.237 N 
ATOM     17  H2  UNL     1      59.397  47.965  40.989  1.00  0.00     0.197 HD
BRANCH  16  18
HETATM   18  O3  UNL     1      59.064  48.894  42.794  1.00  0.00    -0.287 OA
ATOM     19  H3  UNL     1      59.385  48.157  43.300  1.00  0.00     0.244 HD
ENDBRANCH  16  18
ENDBRANCH  13  14
ENDBRANCH   1  13
TORSDOF 3
ENDMDL
