MODEL 4
REMARK VINA RESULT: -10.268848117      1.196      1.360
REMARK  8 active torsions:
REMARK  status: ('A' for Active; 'I' for Inactive)
REMARK    1  A    between atoms: C4_4  and  C5_5 
REMARK    2  A    between atoms: C15_15  and  C16_16 
REMARK    3  A    between atoms: C16_16  and  C18_18 
REMARK    4  A    between atoms: C19_19  and  C20_20 
REMARK    5  A    between atoms: C20_20  and  O1_21 
REMARK    6  A    between atoms: C20_20  and  C21_23 
REMARK    7  A    between atoms: C25_27  and  O2_28 
REMARK    8  A    between atoms: C27_31  and  O3_32 
ROOT
HETATM    1  C5  UNL     1      13.874  22.593  34.294  1.00  0.00     0.004 C 
HETATM    2  C6  UNL     1      13.663  23.726  33.682  1.00  0.00    -0.075 C 
HETATM    3  C7  UNL     1      13.945  23.848  32.235  1.00  0.00     0.034 C 
HETATM    4  C8  UNL     1      13.798  25.248  31.745  1.00  0.00     0.005 C 
HETATM    5  C9  UNL     1      12.650  26.033  32.238  1.00  0.00     0.010 C 
HETATM    6  C10 UNL     1      11.995  25.444  33.445  1.00  0.00    -0.032 C 
HETATM    7  C11 UNL     1      11.066  24.288  33.136  1.00  0.00     0.016 C 
HETATM    8  C12 UNL     1      13.148  24.942  34.332  1.00  0.00     0.023 C 
HETATM    9  C13 UNL     1      12.431  24.674  35.618  1.00  0.00     0.010 C 
HETATM   10  C14 UNL     1      11.353  25.715  35.698  1.00  0.00     0.007 C 
HETATM   11  C15 UNL     1      11.346  26.412  34.338  1.00  0.00     0.002 C 
ENDROOT
BRANCH   1  12
HETATM   12  C4  UNL     1      14.385  21.455  33.570  1.00  0.00     0.008 C 
HETATM   13  C3  UNL     1      14.494  20.239  34.074  1.00  0.00    -0.048 C 
HETATM   14  C2  UNL     1      15.019  19.132  33.289  1.00  0.00    -0.033 C 
HETATM   15  C24 UNL     1      14.075  19.959  35.458  1.00  0.00     0.071 C 
HETATM   16  C1  UNL     1      14.963  19.119  31.971  1.00  0.00     0.022 C 
HETATM   17  C27 UNL     1      15.632  18.007  34.031  1.00  0.00     0.153 C 
HETATM   18  C26 UNL     1      14.659  17.533  35.057  1.00  0.00     0.068 C 
HETATM   19  C25 UNL     1      13.604  18.503  35.457  1.00  0.00     0.125 C 
BRANCH  17  20
HETATM   20  O3  UNL     1      16.856  18.380  34.606  1.00  0.00    -0.391 OA
ATOM     21  H3  UNL     1      16.940  18.045  35.490  1.00  0.00     0.210 HD
ENDBRANCH  17  20
BRANCH  19  22
HETATM   22  O2  UNL     1      12.512  18.481  34.560  1.00  0.00    -0.395 OA
ATOM     23  H2  UNL     1      12.868  18.805  33.741  1.00  0.00     0.210 HD
ENDBRANCH  19  22
ENDBRANCH   1  12
BRANCH  11  24
HETATM   24  C16 UNL     1       9.954  26.877  34.006  1.00  0.00     0.009 C 
HETATM   25  C17 UNL     1       9.801  28.315  34.378  1.00  0.00     0.014 C 
BRANCH  24  26
HETATM   26  C18 UNL     1       8.931  25.967  34.545  1.00  0.00    -0.024 C 
HETATM   27  C19 UNL     1       7.735  25.747  34.060  1.00  0.00     0.001 C 
BRANCH  27  28
HETATM   28  C20 UNL     1       6.772  24.782  34.709  1.00  0.00     0.144 C 
BRANCH  28  29
HETATM   29  O1  UNL     1       6.644  25.194  36.032  1.00  0.00    -0.391 OA
ATOM     30  H1  UNL     1       5.908  24.710  36.389  1.00  0.00     0.210 HD
ENDBRANCH  28  29
BRANCH  28  31
HETATM   31  C21 UNL     1       5.409  24.878  34.053  1.00  0.00     0.018 A 
HETATM   32  C22 UNL     1       4.675  23.611  33.705  1.00  0.00     0.008 A 
HETATM   33  C23 UNL     1       5.265  24.453  32.634  1.00  0.00     0.008 A 
ENDBRANCH  28  31
ENDBRANCH  27  28
ENDBRANCH  24  26
ENDBRANCH  11  24
TORSDOF 8
ENDMDL
