MODEL 7
REMARK VINA RESULT: -9.540080338      1.661      9.051
REMARK  8 active torsions:
REMARK  status: ('A' for Active; 'I' for Inactive)
REMARK    1  A    between atoms: C4_4  and  C5_5 
REMARK    2  A    between atoms: C15_15  and  C16_16 
REMARK    3  A    between atoms: C16_16  and  C18_18 
REMARK    4  A    between atoms: C19_19  and  C20_20 
REMARK    5  A    between atoms: C20_20  and  O1_21 
REMARK    6  A    between atoms: C20_20  and  C21_23 
REMARK    7  A    between atoms: C25_27  and  O2_28 
REMARK    8  A    between atoms: C27_31  and  O3_32 
ROOT
HETATM    1  C5  UNL     1       8.250  25.748  32.184  1.00  0.00     0.004 C 
HETATM    2  C6  UNL     1       9.171  26.209  32.985  1.00  0.00    -0.075 C 
HETATM    3  C7  UNL     1       8.809  27.165  34.055  1.00  0.00     0.034 C 
HETATM    4  C8  UNL     1      10.005  27.704  34.763  1.00  0.00     0.005 C 
HETATM    5  C9  UNL     1      11.093  26.762  35.091  1.00  0.00     0.010 C 
HETATM    6  C10 UNL     1      11.012  25.468  34.346  1.00  0.00    -0.032 C 
HETATM    7  C11 UNL     1      10.002  24.494  34.915  1.00  0.00     0.016 C 
HETATM    8  C12 UNL     1      10.596  25.848  32.913  1.00  0.00     0.023 C 
HETATM    9  C13 UNL     1      10.851  24.565  32.187  1.00  0.00     0.010 C 
HETATM   10  C14 UNL     1      12.045  23.955  32.861  1.00  0.00     0.007 C 
HETATM   11  C15 UNL     1      12.300  24.806  34.105  1.00  0.00     0.002 C 
ENDROOT
BRANCH   1  12
HETATM   12  C4  UNL     1       6.878  26.164  32.332  1.00  0.00     0.008 C 
HETATM   13  C3  UNL     1       5.966  25.499  33.018  1.00  0.00    -0.048 C 
HETATM   14  C2  UNL     1       4.595  25.974  33.129  1.00  0.00    -0.033 C 
HETATM   15  C24 UNL     1       6.314  24.246  33.711  1.00  0.00     0.071 C 
HETATM   16  C1  UNL     1       4.283  27.250  32.997  1.00  0.00     0.022 C 
HETATM   17  C27 UNL     1       3.547  24.964  33.391  1.00  0.00     0.153 C 
HETATM   18  C26 UNL     1       3.945  24.171  34.591  1.00  0.00     0.068 C 
HETATM   19  C25 UNL     1       5.394  24.183  34.932  1.00  0.00     0.125 C 
BRANCH  17  20
HETATM   20  O3  UNL     1       3.335  24.144  32.272  1.00  0.00    -0.391 OA
ATOM     21  H3  UNL     1       3.409  23.224  32.497  1.00  0.00     0.210 HD
ENDBRANCH  17  20
BRANCH  19  22
HETATM   22  O2  UNL     1       5.737  25.322  35.696  1.00  0.00    -0.395 OA
ATOM     23  H2  UNL     1       5.507  25.091  36.588  1.00  0.00     0.210 HD
ENDBRANCH  19  22
ENDBRANCH   1  12
BRANCH  11  24
HETATM   24  C16 UNL     1      12.888  23.955  35.198  1.00  0.00     0.009 C 
HETATM   25  C17 UNL     1      14.031  24.672  35.836  1.00  0.00     0.014 C 
BRANCH  24  26
HETATM   26  C18 UNL     1      13.172  22.588  34.733  1.00  0.00    -0.024 C 
HETATM   27  C19 UNL     1      13.148  21.490  35.446  1.00  0.00     0.001 C 
BRANCH  27  28
HETATM   28  C20 UNL     1      13.460  20.140  34.848  1.00  0.00     0.144 C 
BRANCH  28  29
HETATM   29  O1  UNL     1      12.240  19.482  34.718  1.00  0.00    -0.391 OA
ATOM     30  H1  UNL     1      12.362  18.620  35.099  1.00  0.00     0.210 HD
ENDBRANCH  28  29
BRANCH  28  31
HETATM   31  C21 UNL     1      14.055  20.302  33.463  1.00  0.00     0.018 A 
HETATM   32  C22 UNL     1      14.839  19.164  32.867  1.00  0.00     0.008 A 
HETATM   33  C23 UNL     1      15.534  20.394  33.325  1.00  0.00     0.008 A 
ENDBRANCH  28  31
ENDBRANCH  27  28
ENDBRANCH  24  26
ENDBRANCH  11  24
TORSDOF 8
ENDMDL
