MODEL 3
REMARK VINA RESULT: -10.269623786      1.638      9.170
REMARK  8 active torsions:
REMARK  status: ('A' for Active; 'I' for Inactive)
REMARK    1  A    between atoms: C4_4  and  C5_5 
REMARK    2  A    between atoms: C15_15  and  C16_16 
REMARK    3  A    between atoms: C16_16  and  C18_18 
REMARK    4  A    between atoms: C19_19  and  C20_20 
REMARK    5  A    between atoms: C20_20  and  O1_21 
REMARK    6  A    between atoms: C20_20  and  C21_23 
REMARK    7  A    between atoms: C25_27  and  O2_28 
REMARK    8  A    between atoms: C27_31  and  O3_32 
ROOT
HETATM    1  C5  UNL     1       9.187  25.786  34.360  1.00  0.00     0.004 C 
HETATM    2  C6  UNL     1      10.290  25.441  34.968  1.00  0.00    -0.075 C 
HETATM    3  C7  UNL     1      10.227  24.682  36.236  1.00  0.00     0.034 C 
HETATM    4  C8  UNL     1      11.568  24.516  36.865  1.00  0.00     0.005 C 
HETATM    5  C9  UNL     1      12.706  24.190  35.983  1.00  0.00     0.010 C 
HETATM    6  C10 UNL     1      12.430  24.432  34.534  1.00  0.00    -0.032 C 
HETATM    7  C11 UNL     1      11.613  23.340  33.875  1.00  0.00     0.016 C 
HETATM    8  C12 UNL     1      11.643  25.753  34.482  1.00  0.00     0.023 C 
HETATM    9  C13 UNL     1      11.696  26.066  33.020  1.00  0.00     0.010 C 
HETATM   10  C14 UNL     1      13.029  25.560  32.551  1.00  0.00     0.007 C 
HETATM   11  C15 UNL     1      13.608  24.766  33.723  1.00  0.00     0.002 C 
ENDROOT
BRANCH   1  12
HETATM   12  C4  UNL     1       7.905  25.436  34.917  1.00  0.00     0.008 C 
HETATM   13  C3  UNL     1       6.757  25.548  34.273  1.00  0.00    -0.048 C 
HETATM   14  C2  UNL     1       5.494  25.177  34.893  1.00  0.00    -0.033 C 
HETATM   15  C24 UNL     1       6.718  26.049  32.888  1.00  0.00     0.071 C 
HETATM   16  C1  UNL     1       5.427  24.298  35.875  1.00  0.00     0.022 C 
HETATM   17  C27 UNL     1       4.269  25.832  34.381  1.00  0.00     0.153 C 
HETATM   18  C26 UNL     1       4.222  25.652  32.901  1.00  0.00     0.068 C 
HETATM   19  C25 UNL     1       5.520  25.357  32.235  1.00  0.00     0.125 C 
BRANCH  17  20
HETATM   20  O3  UNL     1       4.225  27.187  34.743  1.00  0.00    -0.391 OA
ATOM     21  H3  UNL     1       3.503  27.635  34.320  1.00  0.00     0.210 HD
ENDBRANCH  17  20
BRANCH  19  22
HETATM   22  O2  UNL     1       5.829  23.979  32.290  1.00  0.00    -0.395 OA
ATOM     23  H2  UNL     1       5.047  23.544  31.972  1.00  0.00     0.210 HD
ENDBRANCH  19  22
ENDBRANCH   1  12
BRANCH  11  24
HETATM   24  C16 UNL     1      14.470  23.646  33.208  1.00  0.00     0.009 C 
HETATM   25  C17 UNL     1      14.442  23.633  31.715  1.00  0.00     0.014 C 
BRANCH  24  26
HETATM   26  C18 UNL     1      14.152  22.367  33.863  1.00  0.00    -0.024 C 
HETATM   27  C19 UNL     1      14.564  21.175  33.511  1.00  0.00     0.001 C 
BRANCH  27  28
HETATM   28  C20 UNL     1      14.165  19.933  34.270  1.00  0.00     0.144 C 
BRANCH  28  29
HETATM   29  O1  UNL     1      12.786  20.012  34.445  1.00  0.00    -0.391 OA
ATOM     30  H1  UNL     1      12.595  20.923  34.633  1.00  0.00     0.210 HD
ENDBRANCH  28  29
BRANCH  28  31
HETATM   31  C21 UNL     1      14.463  18.695  33.449  1.00  0.00     0.018 A 
HETATM   32  C22 UNL     1      14.757  17.400  34.159  1.00  0.00     0.008 A 
HETATM   33  C23 UNL     1      15.844  18.139  33.467  1.00  0.00     0.008 A 
ENDBRANCH  28  31
ENDBRANCH  27  28
ENDBRANCH  24  26
ENDBRANCH  11  24
TORSDOF 8
ENDMDL
