MODEL 2
REMARK VINA RESULT: -10.631241415      1.776      8.853
REMARK  8 active torsions:
REMARK  status: ('A' for Active; 'I' for Inactive)
REMARK    1  A    between atoms: C4_4  and  C5_5 
REMARK    2  A    between atoms: C15_15  and  C16_16 
REMARK    3  A    between atoms: C16_16  and  C18_18 
REMARK    4  A    between atoms: C19_19  and  C20_20 
REMARK    5  A    between atoms: C20_20  and  O1_21 
REMARK    6  A    between atoms: C20_20  and  C21_23 
REMARK    7  A    between atoms: C25_27  and  O2_28 
REMARK    8  A    between atoms: C27_31  and  O3_32 
ROOT
HETATM    1  C5  UNL     1       9.260  26.044  34.677  1.00  0.00     0.004 C 
HETATM    2  C6  UNL     1      10.351  25.485  35.127  1.00  0.00    -0.075 C 
HETATM    3  C7  UNL     1      10.264  24.385  36.112  1.00  0.00     0.034 C 
HETATM    4  C8  UNL     1      11.602  23.980  36.629  1.00  0.00     0.005 C 
HETATM    5  C9  UNL     1      12.713  23.884  35.662  1.00  0.00     0.010 C 
HETATM    6  C10 UNL     1      12.434  24.560  34.358  1.00  0.00    -0.032 C 
HETATM    7  C11 UNL     1      11.557  23.752  33.424  1.00  0.00     0.016 C 
HETATM    8  C12 UNL     1      11.712  25.869  34.723  1.00  0.00     0.023 C 
HETATM    9  C13 UNL     1      11.765  26.603  33.420  1.00  0.00     0.010 C 
HETATM   10  C14 UNL     1      13.066  26.202  32.789  1.00  0.00     0.007 C 
HETATM   11  C15 UNL     1      13.618  25.070  33.655  1.00  0.00     0.002 C 
ENDROOT
BRANCH   1  12
HETATM   12  C4  UNL     1       7.968  25.600  35.136  1.00  0.00     0.008 C 
HETATM   13  C3  UNL     1       6.867  25.633  34.408  1.00  0.00    -0.048 C 
HETATM   14  C2  UNL     1       5.590  25.168  34.931  1.00  0.00    -0.033 C 
HETATM   15  C24 UNL     1       6.896  26.137  33.024  1.00  0.00     0.071 C 
HETATM   16  C1  UNL     1       5.514  24.281  35.905  1.00  0.00     0.022 C 
HETATM   17  C27 UNL     1       4.364  25.737  34.328  1.00  0.00     0.153 C 
HETATM   18  C26 UNL     1       4.441  25.563  32.849  1.00  0.00     0.068 C 
HETATM   19  C25 UNL     1       5.803  25.365  32.282  1.00  0.00     0.125 C 
BRANCH  17  20
HETATM   20  O3  UNL     1       4.195  27.083  34.687  1.00  0.00    -0.391 OA
ATOM     21  H3  UNL     1       3.483  27.484  34.202  1.00  0.00     0.210 HD
ENDBRANCH  17  20
BRANCH  19  22
HETATM   22  O2  UNL     1       6.205  24.012  32.360  1.00  0.00    -0.395 OA
ATOM     23  H2  UNL     1       5.572  23.606  32.940  1.00  0.00     0.210 HD
ENDBRANCH  19  22
ENDBRANCH   1  12
BRANCH  11  24
HETATM   24  C16 UNL     1      14.418  24.118  32.808  1.00  0.00     0.009 C 
HETATM   25  C17 UNL     1      13.976  24.215  31.385  1.00  0.00     0.014 C 
BRANCH  24  26
HETATM   26  C18 UNL     1      14.438  22.763  33.379  1.00  0.00    -0.024 C 
HETATM   27  C19 UNL     1      14.629  21.637  32.738  1.00  0.00     0.001 C 
BRANCH  27  28
HETATM   28  C20 UNL     1      14.626  20.303  33.443  1.00  0.00     0.144 C 
BRANCH  28  29
HETATM   29  O1  UNL     1      15.951  20.037  33.774  1.00  0.00    -0.391 OA
ATOM     30  H1  UNL     1      16.452  20.155  32.975  1.00  0.00     0.210 HD
ENDBRANCH  28  29
BRANCH  28  31
HETATM   31  C21 UNL     1      13.830  20.389  34.730  1.00  0.00     0.018 A 
HETATM   32  C22 UNL     1      13.157  19.150  35.257  1.00  0.00     0.008 A 
HETATM   33  C23 UNL     1      12.350  20.248  34.668  1.00  0.00     0.008 A 
ENDBRANCH  28  31
ENDBRANCH  27  28
ENDBRANCH  24  26
ENDBRANCH  11  24
TORSDOF 8
ENDMDL
