MODEL 4
REMARK VINA RESULT: -6.208653172      3.552      4.945
REMARK  0 active torsions:
REMARK  status: ('A' for Active; 'I' for Inactive)
ROOT
HETATM    1  C1  UNL     1      16.081  16.459  21.301  1.00  0.00     0.050 C 
HETATM    2  C2  UNL     1      16.449  16.812  19.903  1.00  0.00    -0.034 A 
HETATM    3  C3  UNL     1      17.612  17.508  19.658  1.00  0.00     0.009 A 
HETATM    4  C4  UNL     1      17.960  17.839  18.365  1.00  0.00     0.002 A 
HETATM    5  C5  UNL     1      17.102  17.446  17.357  1.00  0.00     0.019 A 
HETATM    6  C6  UNL     1      15.944  16.752  17.600  1.00  0.00     0.059 A 
HETATM    7  C7  UNL     1      15.075  16.352  16.601  1.00  0.00     0.260 A 
HETATM    8  O1  UNL     1      15.390  16.653  15.421  1.00  0.00    -0.267 OA
HETATM    9  N1  UNL     1      13.949  15.673  16.898  1.00  0.00    -0.297 N 
ATOM     10  H1  UNL     1      13.327  15.391  16.140  1.00  0.00     0.171 HD
HETATM   11  C8  UNL     1      13.621  15.356  18.164  1.00  0.00     0.195 A 
HETATM   12  N2  UNL     1      12.422  14.638  18.408  1.00  0.00    -0.063 NA
HETATM   13  N3  UNL     1      14.449  15.733  19.155  1.00  0.00    -0.329 N 
ATOM     14  H3  UNL     1      14.213  15.499  20.119  1.00  0.00     0.168 HD
HETATM   15  C9  UNL     1      15.593  16.419  18.897  1.00  0.00     0.056 A 
ENDROOT
TORSDOF 0
ENDMDL
