MODEL 3
REMARK VINA RESULT: -6.256599401      4.079      5.924
REMARK  0 active torsions:
REMARK  status: ('A' for Active; 'I' for Inactive)
ROOT
HETATM    1  C1  UNL     1      13.742  18.055  15.596  1.00  0.00     0.050 C 
HETATM    2  C2  UNL     1      13.235  16.840  16.291  1.00  0.00    -0.034 A 
HETATM    3  C3  UNL     1      12.016  16.308  15.933  1.00  0.00     0.009 A 
HETATM    4  C4  UNL     1      11.539  15.183  16.572  1.00  0.00     0.002 A 
HETATM    5  C5  UNL     1      12.329  14.633  17.563  1.00  0.00     0.019 A 
HETATM    6  C6  UNL     1      13.543  15.162  17.920  1.00  0.00     0.059 A 
HETATM    7  C7  UNL     1      14.344  14.624  18.910  1.00  0.00     0.260 A 
HETATM    8  O1  UNL     1      13.912  13.598  19.494  1.00  0.00    -0.267 OA
HETATM    9  N1  UNL     1      15.529  15.187  19.220  1.00  0.00    -0.297 N 
ATOM     10  H1  UNL     1      16.099  14.768  19.955  1.00  0.00     0.171 HD
HETATM   11  C8  UNL     1      15.983  16.285  18.589  1.00  0.00     0.195 A 
HETATM   12  N2  UNL     1      17.240  16.827  18.962  1.00  0.00    -0.063 NA
HETATM   13  N3  UNL     1      15.223  16.829  17.621  1.00  0.00    -0.329 N 
ATOM     14  H3  UNL     1      15.555  17.661  17.134  1.00  0.00     0.168 HD
HETATM   15  C9  UNL     1      14.022  16.292  17.280  1.00  0.00     0.056 A 
ENDROOT
TORSDOF 0
ENDMDL
