MODEL 1
REMARK VINA RESULT: -7.648426363      0.000      0.000
REMARK  0 active torsions:
REMARK  status: ('A' for Active; 'I' for Inactive)
ROOT
HETATM    1  C1  UNL     1      14.994  16.171  19.288  1.00  0.00     0.050 C 
HETATM    2  C2  UNL     1      16.296  16.653  19.826  1.00  0.00    -0.034 A 
HETATM    3  C3  UNL     1      17.342  16.897  18.964  1.00  0.00     0.009 A 
HETATM    4  C4  UNL     1      18.552  17.343  19.455  1.00  0.00     0.002 A 
HETATM    5  C5  UNL     1      18.653  17.527  20.820  1.00  0.00     0.019 A 
HETATM    6  C6  UNL     1      17.612  17.285  21.679  1.00  0.00     0.059 A 
HETATM    7  C7  UNL     1      17.699  17.464  23.047  1.00  0.00     0.260 A 
HETATM    8  O1  UNL     1      18.800  17.871  23.497  1.00  0.00    -0.267 OA
HETATM    9  N1  UNL     1      16.642  17.209  23.845  1.00  0.00    -0.297 N 
ATOM     10  H1  UNL     1      16.736  17.351  24.850  1.00  0.00     0.171 HD
HETATM   11  C8  UNL     1      15.467  16.774  23.353  1.00  0.00     0.195 A 
HETATM   12  N2  UNL     1      14.393  16.526  24.247  1.00  0.00    -0.063 NA
HETATM   13  N3  UNL     1      15.355  16.591  22.025  1.00  0.00    -0.329 N 
ATOM     14  H3  UNL     1      14.471  16.263  21.639  1.00  0.00     0.168 HD
HETATM   15  C9  UNL     1      16.397  16.837  21.188  1.00  0.00     0.056 A 
ENDROOT
TORSDOF 0
ENDMDL
