MODEL 6
REMARK VINA RESULT: -6.021531859      4.291      5.727
REMARK  0 active torsions:
REMARK  status: ('A' for Active; 'I' for Inactive)
ROOT
HETATM    1  C1  UNL     1      18.082  18.083  17.560  1.00  0.00     0.050 C 
HETATM    2  C2  UNL     1      17.114  17.323  18.397  1.00  0.00    -0.034 A 
HETATM    3  C3  UNL     1      17.323  17.216  19.754  1.00  0.00     0.009 A 
HETATM    4  C4  UNL     1      16.430  16.513  20.536  1.00  0.00     0.002 A 
HETATM    5  C5  UNL     1      15.346  15.939  19.902  1.00  0.00     0.019 A 
HETATM    6  C6  UNL     1      15.138  16.046  18.551  1.00  0.00     0.059 A 
HETATM    7  C7  UNL     1      14.057  15.476  17.902  1.00  0.00     0.260 A 
HETATM    8  O1  UNL     1      13.242  14.835  18.613  1.00  0.00    -0.267 OA
HETATM    9  N1  UNL     1      13.903  15.613  16.569  1.00  0.00    -0.297 N 
ATOM     10  H1  UNL     1      13.096  15.182  16.118  1.00  0.00     0.171 HD
HETATM   11  C8  UNL     1      14.781  16.301  15.818  1.00  0.00     0.195 A 
HETATM   12  N2  UNL     1      14.560  16.408  14.420  1.00  0.00    -0.063 NA
HETATM   13  N3  UNL     1      15.841  16.866  16.424  1.00  0.00    -0.329 N 
ATOM     14  H3  UNL     1      16.514  17.391  15.866  1.00  0.00     0.168 HD
HETATM   15  C9  UNL     1      16.032  16.750  17.764  1.00  0.00     0.056 A 
ENDROOT
TORSDOF 0
ENDMDL
