MODEL 3
REMARK VINA RESULT: -6.454548735      2.874      4.533
REMARK  0 active torsions:
REMARK  status: ('A' for Active; 'I' for Inactive)
ROOT
HETATM    1  N1  UNL     1      20.414  17.451  19.356  1.00  0.00    -0.063 NA
HETATM    2  C1  UNL     1      19.127  17.278  19.947  1.00  0.00     0.195 A 
HETATM    3  N2  UNL     1      18.919  17.400  21.270  1.00  0.00    -0.330 N 
ATOM      4  H2  UNL     1      19.715  17.626  21.866  1.00  0.00     0.168 HD
HETATM    5  C2  UNL     1      17.714  17.239  21.848  1.00  0.00     0.050 A 
HETATM    6  C3  UNL     1      17.513  17.368  23.207  1.00  0.00     0.030 A 
HETATM    7  C4  UNL     1      16.259  17.197  23.773  1.00  0.00     0.002 A 
HETATM    8  C5  UNL     1      15.164  16.893  22.999  1.00  0.00     0.001 A 
HETATM    9  C6  UNL     1      15.375  16.766  21.633  1.00  0.00     0.019 A 
HETATM   10  C7  UNL     1      16.619  16.934  21.065  1.00  0.00     0.059 A 
HETATM   11  C8  UNL     1      16.836  16.808  19.700  1.00  0.00     0.260 A 
HETATM   12  O1  UNL     1      15.828  16.529  18.994  1.00  0.00    -0.267 OA
HETATM   13  N3  UNL     1      18.070  16.980  19.168  1.00  0.00    -0.297 N 
ATOM     14  H3  UNL     1      18.201  16.883  18.161  1.00  0.00     0.171 HD
ENDROOT
TORSDOF 0
ENDMDL
