MODEL 4
REMARK VINA RESULT: -6.344179014      1.366      1.761
REMARK  0 active torsions:
REMARK  status: ('A' for Active; 'I' for Inactive)
ROOT
HETATM    1  N1  UNL     1      15.730  16.749  23.909  1.00  0.00    -0.063 NA
HETATM    2  C1  UNL     1      16.223  16.885  22.577  1.00  0.00     0.195 A 
HETATM    3  N2  UNL     1      15.459  16.644  21.497  1.00  0.00    -0.330 N 
ATOM      4  H2  UNL     1      14.492  16.355  21.644  1.00  0.00     0.168 HD
HETATM    5  C2  UNL     1      15.905  16.765  20.233  1.00  0.00     0.050 A 
HETATM    6  C3  UNL     1      15.110  16.515  19.133  1.00  0.00     0.030 A 
HETATM    7  C4  UNL     1      15.598  16.649  17.842  1.00  0.00     0.002 A 
HETATM    8  C5  UNL     1      16.897  17.038  17.608  1.00  0.00     0.001 A 
HETATM    9  C6  UNL     1      17.688  17.287  18.721  1.00  0.00     0.019 A 
HETATM   10  C7  UNL     1      17.209  17.156  20.005  1.00  0.00     0.059 A 
HETATM   11  C8  UNL     1      17.996  17.403  21.122  1.00  0.00     0.260 A 
HETATM   12  O1  UNL     1      19.186  17.760  20.902  1.00  0.00    -0.267 OA
HETATM   13  N3  UNL     1      17.498  17.267  22.375  1.00  0.00    -0.297 N 
ATOM     14  H3  UNL     1      18.099  17.456  23.177  1.00  0.00     0.171 HD
ENDROOT
TORSDOF 0
ENDMDL
