MODEL 1
REMARK VINA RESULT: -7.522256820      0.000      0.000
REMARK  0 active torsions:
REMARK  status: ('A' for Active; 'I' for Inactive)
ROOT
HETATM    1  N1  UNL     1      14.358  16.711  24.457  1.00  0.00    -0.063 NA
HETATM    2  C1  UNL     1      15.402  16.919  23.507  1.00  0.00     0.195 A 
HETATM    3  N2  UNL     1      15.242  16.675  22.195  1.00  0.00    -0.330 N 
ATOM      4  H2  UNL     1      14.338  16.329  21.874  1.00  0.00     0.168 HD
HETATM    5  C2  UNL     1      16.214  16.863  21.283  1.00  0.00     0.050 A 
HETATM    6  C3  UNL     1      16.037  16.609  19.938  1.00  0.00     0.030 A 
HETATM    7  C4  UNL     1      17.058  16.813  19.022  1.00  0.00     0.002 A 
HETATM    8  C5  UNL     1      18.289  17.279  19.420  1.00  0.00     0.001 A 
HETATM    9  C6  UNL     1      18.458  17.532  20.774  1.00  0.00     0.019 A 
HETATM   10  C7  UNL     1      17.447  17.331  21.688  1.00  0.00     0.059 A 
HETATM   11  C8  UNL     1      17.610  17.582  23.044  1.00  0.00     0.260 A 
HETATM   12  O1  UNL     1      18.742  18.010  23.404  1.00  0.00    -0.267 OA
HETATM   13  N3  UNL     1      16.599  17.376  23.922  1.00  0.00    -0.297 N 
ATOM     14  H3  UNL     1      16.746  17.570  24.912  1.00  0.00     0.171 HD
ENDROOT
TORSDOF 0
ENDMDL
