MODEL 6
REMARK VINA RESULT: -5.934294803      3.950      5.233
REMARK  0 active torsions:
REMARK  status: ('A' for Active; 'I' for Inactive)
ROOT
HETATM    1  N1  UNL     1      11.565  15.644  17.859  1.00  0.00    -0.063 NA
HETATM    2  C1  UNL     1      12.934  16.048  17.852  1.00  0.00     0.195 A 
HETATM    3  N2  UNL     1      13.685  16.069  18.966  1.00  0.00    -0.330 N 
ATOM      4  H2  UNL     1      13.255  15.783  19.845  1.00  0.00     0.168 HD
HETATM    5  C2  UNL     1      14.977  16.448  18.982  1.00  0.00     0.050 A 
HETATM    6  C3  UNL     1      15.737  16.464  20.133  1.00  0.00     0.030 A 
HETATM    7  C4  UNL     1      17.067  16.860  20.117  1.00  0.00     0.002 A 
HETATM    8  C5  UNL     1      17.679  17.251  18.949  1.00  0.00     0.001 A 
HETATM    9  C6  UNL     1      16.906  17.231  17.797  1.00  0.00     0.019 A 
HETATM   10  C7  UNL     1      15.585  16.840  17.807  1.00  0.00     0.059 A 
HETATM   11  C8  UNL     1      14.807  16.818  16.657  1.00  0.00     0.260 A 
HETATM   12  O1  UNL     1      15.374  17.178  15.589  1.00  0.00    -0.267 OA
HETATM   13  N3  UNL     1      13.510  16.427  16.696  1.00  0.00    -0.297 N 
ATOM     14  H3  UNL     1      12.962  16.420  15.836  1.00  0.00     0.171 HD
ENDROOT
TORSDOF 0
ENDMDL
