MODEL 9
REMARK VINA RESULT: -5.634845670      5.901      6.873
REMARK  0 active torsions:
REMARK  status: ('A' for Active; 'I' for Inactive)
ROOT
HETATM    1  N1  UNL     1      14.131  13.784  19.307  1.00  0.00    -0.063 NA
HETATM    2  C1  UNL     1      13.654  14.707  18.329  1.00  0.00     0.195 A 
HETATM    3  N2  UNL     1      14.363  15.027  17.232  1.00  0.00    -0.330 N 
ATOM      4  H2  UNL     1      15.274  14.589  17.101  1.00  0.00     0.168 HD
HETATM    5  C2  UNL     1      13.932  15.896  16.299  1.00  0.00     0.050 A 
HETATM    6  C3  UNL     1      14.670  16.215  15.177  1.00  0.00     0.030 A 
HETATM    7  C4  UNL     1      14.198  17.114  14.232  1.00  0.00     0.002 A 
HETATM    8  C5  UNL     1      12.973  17.723  14.378  1.00  0.00     0.001 A 
HETATM    9  C6  UNL     1      12.238  17.395  15.509  1.00  0.00     0.019 A 
HETATM   10  C7  UNL     1      12.702  16.503  16.450  1.00  0.00     0.059 A 
HETATM   11  C8  UNL     1      11.972  16.171  17.584  1.00  0.00     0.260 A 
HETATM   12  O1  UNL     1      10.848  16.732  17.712  1.00  0.00    -0.267 OA
HETATM   13  N3  UNL     1      12.451  15.289  18.494  1.00  0.00    -0.297 N 
ATOM     14  H3  UNL     1      11.893  15.064  19.317  1.00  0.00     0.171 HD
ENDROOT
TORSDOF 0
ENDMDL
