MODEL 15
REMARK VINA RESULT: -7.770198506      5.410      8.473
REMARK  8 active torsions:
REMARK  status: ('A' for Active; 'I' for Inactive)
REMARK    1  A    between atoms: N5_13  and  C6_14 
REMARK    2  A    between atoms: C7_16  and  C8_17 
REMARK    3  A    between atoms: C8_17  and  O2_18 
REMARK    4  A    between atoms: O2_18  and  C9_19 
REMARK    5  A    between atoms: C9_19  and  C10_21 
REMARK    6  A    between atoms: C10_21  and  P1_22 
REMARK    7  A    between atoms: C11_26  and  O7_27 
REMARK    8  A    between atoms: C12_29  and  O8_30 
ROOT
HETATM    1  C6  UNL     1       1.831 -21.438   3.588  1.00  0.00     0.262 C 
HETATM    2  O1  UNL     1       0.787 -20.545   3.692  1.00  0.00    -0.353 OA
HETATM    3  C7  UNL     1       0.927 -19.826   4.872  1.00  0.00     0.180 C 
HETATM    4  C11 UNL     1       2.422 -19.648   4.974  1.00  0.00     0.182 C 
HETATM    5  C12 UNL     1       2.847 -21.100   4.668  1.00  0.00     0.198 C 
ENDROOT
BRANCH   1   6
HETATM    6  N5  UNL     1       2.521 -21.301   2.293  1.00  0.00    -0.297 N 
HETATM    7  C3  UNL     1       1.965 -21.124   1.084  1.00  0.00     0.142 A 
HETATM    8  N3  UNL     1       0.684 -21.014   0.670  1.00  0.00    -0.336 N 
HETATM    9  C4  UNL     1       2.950 -21.046   0.122  1.00  0.00     0.119 A 
HETATM   10  C2  UNL     1       0.388 -20.837  -0.630  1.00  0.00     0.183 A 
ATOM     11  H3  UNL     1      -0.070 -21.067   1.353  1.00  0.00     0.168 HD
HETATM   12  N2  UNL     1       1.376 -20.762  -1.569  1.00  0.00    -0.339 N 
HETATM   13  C1  UNL     1       2.671 -20.864  -1.216  1.00  0.00     0.148 A 
ATOM     14  H2  UNL     1       1.130 -20.628  -2.550  1.00  0.00     0.167 HD
HETATM   15  N1  UNL     1       3.659 -20.783  -2.226  1.00  0.00    -0.080 NA
HETATM   16  N4  UNL     1       4.112 -21.178   0.768  1.00  0.00    -0.346 N 
HETATM   17  C5  UNL     1       3.844 -21.331   2.078  1.00  0.00     0.188 A 
ATOM     18  H4  UNL     1       5.040 -21.164   0.344  1.00  0.00     0.167 HD
ENDBRANCH   1   6
BRANCH   5  19
HETATM   19  O8  UNL     1       2.673 -21.907   5.765  1.00  0.00    -0.388 OA
ATOM     20  H8  UNL     1       2.145 -21.469   6.422  1.00  0.00     0.210 HD
ENDBRANCH   5  19
BRANCH   3  21
HETATM   21  C8  UNL     1       0.135 -18.571   4.851  1.00  0.00     0.213 C 
BRANCH  21  22
HETATM   22  O2  UNL     1       0.053 -17.923   6.092  1.00  0.00    -0.318 OA
BRANCH  22  23
HETATM   23  C9  UNL     1      -1.104 -17.818   6.808  1.00  0.00     0.271 C 
HETATM   24  O3  UNL     1      -2.017 -18.667   6.683  1.00  0.00    -0.265 OA
BRANCH  23  25
HETATM   25  C10 UNL     1      -1.359 -16.695   7.786  1.00  0.00     0.256 C 
BRANCH  25  26
HETATM   26  P1  UNL     1      -2.282 -15.480   7.172  1.00  0.00     0.269 P 
HETATM   27  O4  UNL     1      -3.640 -15.969   7.973  1.00  0.00    -0.639 OA
HETATM   28  O5  UNL     1      -2.005 -15.964   5.600  1.00  0.00    -0.639 OA
HETATM   29  O6  UNL     1      -1.348 -14.297   7.812  1.00  0.00    -0.639 OA
ENDBRANCH  25  26
ENDBRANCH  23  25
ENDBRANCH  22  23
ENDBRANCH  21  22
ENDBRANCH   3  21
BRANCH   4  30
HETATM   30  O7  UNL     1       2.853 -19.374   6.250  1.00  0.00    -0.390 OA
ATOM     31  H7  UNL     1       3.758 -19.615   6.402  1.00  0.00     0.210 HD
ENDBRANCH   4  30
TORSDOF 8
ENDMDL
