MODEL 9
REMARK VINA RESULT: -8.435648962      5.418      8.613
REMARK  8 active torsions:
REMARK  status: ('A' for Active; 'I' for Inactive)
REMARK    1  A    between atoms: N5_13  and  C6_14 
REMARK    2  A    between atoms: C7_16  and  C8_17 
REMARK    3  A    between atoms: C8_17  and  O2_18 
REMARK    4  A    between atoms: O2_18  and  C9_19 
REMARK    5  A    between atoms: C9_19  and  C10_21 
REMARK    6  A    between atoms: C10_21  and  P1_22 
REMARK    7  A    between atoms: C11_26  and  O7_27 
REMARK    8  A    between atoms: C12_29  and  O8_30 
ROOT
HETATM    1  C6  UNL     1       3.931 -21.536   4.162  1.00  0.00     0.262 C 
HETATM    2  O1  UNL     1       2.702 -22.010   4.569  1.00  0.00    -0.353 OA
HETATM    3  C7  UNL     1       2.289 -21.288   5.681  1.00  0.00     0.180 C 
HETATM    4  C11 UNL     1       2.782 -19.896   5.373  1.00  0.00     0.182 C 
HETATM    5  C12 UNL     1       4.216 -20.253   4.929  1.00  0.00     0.198 C 
ENDROOT
BRANCH   1   6
HETATM    6  N5  UNL     1       3.917 -21.185   2.731  1.00  0.00    -0.297 N 
HETATM    7  C3  UNL     1       3.266 -21.815   1.739  1.00  0.00     0.142 A 
HETATM    8  N3  UNL     1       2.461 -22.898   1.713  1.00  0.00    -0.336 N 
HETATM    9  C4  UNL     1       3.512 -21.179   0.540  1.00  0.00     0.119 A 
HETATM   10  C2  UNL     1       1.922 -23.335   0.561  1.00  0.00     0.183 A 
ATOM     11  H3  UNL     1       2.257 -23.393   2.581  1.00  0.00     0.168 HD
HETATM   12  N2  UNL     1       2.176 -22.693  -0.617  1.00  0.00    -0.339 N 
HETATM   13  C1  UNL     1       2.972 -21.608  -0.654  1.00  0.00     0.148 A 
ATOM     14  H2  UNL     1       1.759 -23.041  -1.480  1.00  0.00     0.167 HD
HETATM   15  N1  UNL     1       3.207 -20.979  -1.899  1.00  0.00    -0.080 NA
HETATM   16  N4  UNL     1       4.321 -20.153   0.822  1.00  0.00    -0.346 N 
HETATM   17  C5  UNL     1       4.560 -20.164   2.145  1.00  0.00     0.188 A 
ATOM     18  H4  UNL     1       4.692 -19.480   0.151  1.00  0.00     0.167 HD
ENDBRANCH   1   6
BRANCH   5  19
HETATM   19  O8  UNL     1       5.020 -20.508   6.013  1.00  0.00    -0.388 OA
ATOM     20  H8  UNL     1       5.683 -21.152   5.793  1.00  0.00     0.210 HD
ENDBRANCH   5  19
BRANCH   3  21
HETATM   21  C8  UNL     1       0.826 -21.412   5.907  1.00  0.00     0.213 C 
BRANCH  21  22
HETATM   22  O2  UNL     1       0.092 -20.272   5.551  1.00  0.00    -0.318 OA
BRANCH  22  23
HETATM   23  C9  UNL     1      -1.262 -20.180   5.689  1.00  0.00     0.271 C 
HETATM   24  O3  UNL     1      -2.031 -20.837   4.949  1.00  0.00    -0.265 OA
BRANCH  23  25
HETATM   25  C10 UNL     1      -1.918 -19.300   6.728  1.00  0.00     0.256 C 
BRANCH  25  26
HETATM   26  P1  UNL     1      -1.307 -17.774   6.783  1.00  0.00     0.269 P 
HETATM   27  O4  UNL     1       0.090 -18.251   7.522  1.00  0.00    -0.639 OA
HETATM   28  O5  UNL     1      -2.593 -17.211   7.685  1.00  0.00    -0.639 OA
HETATM   29  O6  UNL     1      -1.338 -17.583   5.157  1.00  0.00    -0.639 OA
ENDBRANCH  25  26
ENDBRANCH  23  25
ENDBRANCH  22  23
ENDBRANCH  21  22
ENDBRANCH   3  21
BRANCH   4  30
HETATM   30  O7  UNL     1       2.903 -19.101   6.487  1.00  0.00    -0.390 OA
ATOM     31  H7  UNL     1       3.106 -18.196   6.284  1.00  0.00     0.210 HD
ENDBRANCH   4  30
TORSDOF 8
ENDMDL
