MODEL 1
REMARK VINA RESULT: -6.453520277      0.000      0.000
REMARK  3 active torsions:
REMARK  status: ('A' for Active; 'I' for Inactive)
REMARK    1  A    between atoms: C1_2  and  C2_4 
REMARK    2  A    between atoms: C2_4  and  O3_5 
REMARK    3  A    between atoms: O3_5  and  P1_6 
ROOT
HETATM    1  O3  UNL     1      86.315 -13.385  65.857  1.00  0.00    -0.272 OA
ENDROOT
BRANCH   1   2
HETATM    2  C2  UNL     1      86.235 -14.701  66.183  1.00  0.00     0.295 C 
BRANCH   2   3
HETATM    3  C1  UNL     1      86.317 -15.480  64.919  1.00  0.00     0.198 C 
HETATM    4  O1  UNL     1      87.337 -16.171  64.612  1.00  0.00    -0.646 OA
HETATM    5  O2  UNL     1      85.281 -15.497  63.997  1.00  0.00    -0.646 OA
ENDBRANCH   2   3
ENDBRANCH   1   2
BRANCH   1   6
HETATM    6  P1  UNL     1      84.831 -12.690  66.165  1.00  0.00     0.422 P 
HETATM    7  O4  UNL     1      85.491 -11.331  66.341  1.00  0.00    -0.617 OA
HETATM    8  O5  UNL     1      83.853 -12.209  64.969  1.00  0.00    -0.617 OA
HETATM    9  O6  UNL     1      84.254 -12.673  67.731  1.00  0.00    -0.617 OA
ENDBRANCH   1   6
TORSDOF 3
ENDMDL
