MODEL 3
REMARK VINA RESULT: -6.112699680      0.846      1.948
REMARK  3 active torsions:
REMARK  status: ('A' for Active; 'I' for Inactive)
REMARK    1  A    between atoms: C1_2  and  C2_4 
REMARK    2  A    between atoms: C2_4  and  O3_5 
REMARK    3  A    between atoms: O3_5  and  P1_6 
ROOT
HETATM    1  O3  UNL     1      85.842 -13.642  65.518  1.00  0.00    -0.272 OA
ENDROOT
BRANCH   1   2
HETATM    2  C2  UNL     1      84.947 -14.521  64.994  1.00  0.00     0.295 C 
BRANCH   2   3
HETATM    3  C1  UNL     1      85.716 -15.529  64.217  1.00  0.00     0.198 C 
HETATM    4  O1  UNL     1      85.197 -16.194  63.267  1.00  0.00    -0.646 OA
HETATM    5  O2  UNL     1      87.047 -15.805  64.485  1.00  0.00    -0.646 OA
ENDBRANCH   2   3
ENDBRANCH   1   2
BRANCH   1   6
HETATM    6  P1  UNL     1      84.986 -12.475  66.347  1.00  0.00     0.422 P 
HETATM    7  O4  UNL     1      83.866 -12.550  65.320  1.00  0.00    -0.617 OA
HETATM    8  O5  UNL     1      84.038 -12.848  67.605  1.00  0.00    -0.617 OA
HETATM    9  O6  UNL     1      85.267 -10.866  66.003  1.00  0.00    -0.617 OA
ENDBRANCH   1   6
TORSDOF 3
ENDMDL
