MODEL 3
REMARK VINA RESULT: -9.639902957      3.139      7.995
REMARK  9 active torsions:
REMARK  status: ('A' for Active; 'I' for Inactive)
REMARK    1  A    between atoms: C5_9  and  N3_10 
REMARK       I    between atoms: N3_10  and  C6_12 
REMARK    2  A    between atoms: C6_12  and  C7_14 
REMARK       I    between atoms: N4_18  and  C11_19 
REMARK    3  A    between atoms: C11_19  and  C12_21 
REMARK    4  A    between atoms: C12_21  and  C13_22 
REMARK    5  A    between atoms: C12_21  and  N5_29 
REMARK    6  A    between atoms: C13_22  and  C14_23 
REMARK    7  A    between atoms: N5_29  and  S2_31 
REMARK    8  A    between atoms: S2_31  and  C20_34 
REMARK    9  A    between atoms: C20_34  and  C21_35 
ROOT
HETATM    1  C7  UNL     1      11.396 -17.210  12.278  1.00  0.00     0.179 C 
HETATM    2  C8  UNL     1      11.840 -17.117  10.840  1.00  0.00     0.037 C 
HETATM    3  C9  UNL     1      11.268 -15.809  10.315  1.00  0.00     0.022 C 
HETATM    4  C10 UNL     1      11.235 -14.982  11.581  1.00  0.00     0.127 C 
HETATM    5  N4  UNL     1      10.722 -15.951  12.551  1.00  0.00    -0.337 N 
HETATM    6  C11 UNL     1       9.749 -15.678  13.522  1.00  0.00     0.244 C 
HETATM    7  O2  UNL     1       9.481 -16.625  14.330  1.00  0.00    -0.271 OA
ENDROOT
BRANCH   6   8
HETATM    8  C12 UNL     1       9.032 -14.352  13.640  1.00  0.00     0.185 C 
BRANCH   8   9
HETATM    9  C13 UNL     1       7.677 -14.551  13.026  1.00  0.00     0.040 C 
BRANCH   9  10
HETATM   10  C14 UNL     1       7.312 -13.637  11.914  1.00  0.00    -0.012 C 
HETATM   11  C15 UNL     1       8.368 -13.385  10.900  1.00  0.00     0.005 C 
HETATM   12  C16 UNL     1       7.882 -13.331   9.482  1.00  0.00     0.000 C 
HETATM   13  C17 UNL     1       6.991 -14.452   9.070  1.00  0.00     0.000 C 
HETATM   14  C18 UNL     1       6.364 -15.194  10.208  1.00  0.00     0.000 C 
HETATM   15  C19 UNL     1       6.036 -14.206  11.293  1.00  0.00     0.005 C 
ENDBRANCH   9  10
ENDBRANCH   8   9
BRANCH   8  16
HETATM   16  N5  UNL     1       8.904 -14.148  15.086  1.00  0.00    -0.305 N 
ATOM     17  H5  UNL     1       8.180 -14.567  15.669  1.00  0.00     0.173 HD
BRANCH  16  18
HETATM   18  S2  UNL     1      10.148 -13.098  15.666  1.00  0.00     0.231 S 
HETATM   19  O3  UNL     1      10.252 -11.879  14.822  1.00  0.00    -0.206 OA
HETATM   20  O4  UNL     1       9.934 -12.766  17.114  1.00  0.00    -0.206 OA
BRANCH  18  21
HETATM   21  C20 UNL     1      11.665 -14.060  15.584  1.00  0.00     0.201 C 
BRANCH  21  22
HETATM   22  C21 UNL     1      12.863 -13.217  15.481  1.00  0.00    -0.043 A 
HETATM   23  C22 UNL     1      13.502 -12.788  16.617  1.00  0.00     0.008 A 
HETATM   24  C23 UNL     1      14.631 -11.997  16.563  1.00  0.00     0.001 A 
HETATM   25  C24 UNL     1      15.124 -11.631  15.330  1.00  0.00     0.000 A 
HETATM   26  C25 UNL     1      14.496 -12.053  14.199  1.00  0.00     0.001 A 
HETATM   27  C26 UNL     1      13.367 -12.843  14.257  1.00  0.00     0.008 A 
ENDBRANCH  21  22
ENDBRANCH  18  21
ENDBRANCH  16  18
ENDBRANCH   8  16
ENDBRANCH   6   8
BRANCH   1  28
HETATM   28  C6  UNL     1      12.524 -17.496  13.168  1.00  0.00     0.241 C 
HETATM   29  N3  UNL     1      13.398 -16.486  13.636  1.00  0.00    -0.354 N 
ATOM     30  H3  UNL     1      13.229 -15.526  13.335  1.00  0.00     0.162 HD
HETATM   31  O1  UNL     1      12.774 -18.680  13.567  1.00  0.00    -0.271 OA
BRANCH  29  32
HETATM   32  C5  UNL     1      14.521 -16.738  14.520  1.00  0.00     0.089 C 
HETATM   33  C4  UNL     1      14.097 -16.723  15.970  1.00  0.00     0.073 C 
HETATM   34  C3  UNL     1      15.314 -16.812  16.839  1.00  0.00     0.010 A 
HETATM   35  C2  UNL     1      16.418 -16.036  16.592  1.00  0.00     0.024 A 
HETATM   36  S1  UNL     1      15.818 -17.691  18.212  1.00  0.00    -0.060 SA
HETATM   37  N2  UNL     1      17.435 -16.161  17.377  1.00  0.00    -0.342 N 
HETATM   38  C28 UNL     1      16.249 -15.124  15.388  1.00  0.00     0.060 C 
HETATM   39  C1  UNL     1      17.399 -17.015  18.385  1.00  0.00     0.159 A 
ATOM     40  H2  UNL     1      18.271 -15.598  17.219  1.00  0.00     0.167 HD
HETATM   41  N1  UNL     1      18.401 -17.304  19.367  1.00  0.00    -0.074 NA
HETATM   42  C27 UNL     1      15.706 -15.907  14.223  1.00  0.00     0.031 C 
ENDBRANCH  29  32
ENDBRANCH   1  28
TORSDOF 9
ENDMDL
