MODEL 1
REMARK VINA RESULT: -9.677815757      0.000      0.000
REMARK  9 active torsions:
REMARK  status: ('A' for Active; 'I' for Inactive)
REMARK    1  A    between atoms: C5_9  and  N3_10 
REMARK       I    between atoms: N3_10  and  C6_12 
REMARK    2  A    between atoms: C6_12  and  C7_14 
REMARK       I    between atoms: N4_18  and  C11_19 
REMARK    3  A    between atoms: C11_19  and  C12_21 
REMARK    4  A    between atoms: C12_21  and  C13_22 
REMARK    5  A    between atoms: C12_21  and  N5_29 
REMARK    6  A    between atoms: C13_22  and  C14_23 
REMARK    7  A    between atoms: N5_29  and  S2_31 
REMARK    8  A    between atoms: S2_31  and  C20_34 
REMARK    9  A    between atoms: C20_34  and  C21_35 
ROOT
HETATM    1  C7  UNL     1      12.813 -15.778  13.810  1.00  0.00     0.179 C 
HETATM    2  C8  UNL     1      13.475 -17.080  14.182  1.00  0.00     0.037 C 
HETATM    3  C9  UNL     1      14.479 -16.736  15.272  1.00  0.00     0.022 C 
HETATM    4  C10 UNL     1      13.805 -15.545  15.916  1.00  0.00     0.127 C 
HETATM    5  N4  UNL     1      13.345 -14.799  14.744  1.00  0.00    -0.337 N 
HETATM    6  C11 UNL     1      13.442 -13.410  14.587  1.00  0.00     0.244 C 
HETATM    7  O2  UNL     1      12.918 -12.926  13.531  1.00  0.00    -0.271 OA
ENDROOT
BRANCH   6   8
HETATM    8  C12 UNL     1      14.122 -12.498  15.584  1.00  0.00     0.185 C 
BRANCH   8   9
HETATM    9  C13 UNL     1      14.668 -11.345  14.795  1.00  0.00     0.040 C 
BRANCH   9  10
HETATM   10  C14 UNL     1      16.097 -11.429  14.398  1.00  0.00    -0.012 C 
HETATM   11  C15 UNL     1      16.415 -12.372  13.295  1.00  0.00     0.005 C 
HETATM   12  C16 UNL     1      17.434 -11.874  12.314  1.00  0.00     0.000 C 
HETATM   13  C17 UNL     1      17.205 -10.494  11.799  1.00  0.00     0.000 C 
HETATM   14  C18 UNL     1      16.287  -9.664  12.642  1.00  0.00     0.000 C 
HETATM   15  C19 UNL     1      16.540 -10.000  14.086  1.00  0.00     0.005 C 
ENDBRANCH   9  10
ENDBRANCH   8   9
BRANCH   8  16
HETATM   16  N5  UNL     1      13.029 -12.044  16.448  1.00  0.00    -0.305 N 
ATOM     17  H5  UNL     1      12.160 -11.628  16.114  1.00  0.00     0.173 HD
BRANCH  16  18
HETATM   18  S2  UNL     1      13.416 -12.309  18.112  1.00  0.00     0.231 S 
HETATM   19  O3  UNL     1      13.997 -13.662  18.313  1.00  0.00    -0.206 OA
HETATM   20  O4  UNL     1      14.316 -11.225  18.629  1.00  0.00    -0.206 OA
BRANCH  18  21
HETATM   21  C20 UNL     1      11.861 -12.145  18.999  1.00  0.00     0.201 C 
BRANCH  21  22
HETATM   22  C21 UNL     1      10.708 -12.576  18.199  1.00  0.00    -0.043 A 
HETATM   23  C22 UNL     1      10.899 -13.294  17.046  1.00  0.00     0.008 A 
HETATM   24  C23 UNL     1       9.842 -13.719  16.268  1.00  0.00     0.001 A 
HETATM   25  C24 UNL     1       8.561 -13.409  16.668  1.00  0.00     0.000 A 
HETATM   26  C25 UNL     1       8.362 -12.697  17.810  1.00  0.00     0.001 A 
HETATM   27  C26 UNL     1       9.422 -12.273  18.584  1.00  0.00     0.008 A 
ENDBRANCH  21  22
ENDBRANCH  18  21
ENDBRANCH  16  18
ENDBRANCH   8  16
ENDBRANCH   6   8
BRANCH   1  28
HETATM   28  C6  UNL     1      11.352 -15.898  13.829  1.00  0.00     0.241 C 
HETATM   29  N3  UNL     1      10.523 -15.227  12.897  1.00  0.00    -0.354 N 
ATOM     30  H3  UNL     1      10.969 -14.640  12.192  1.00  0.00     0.162 HD
HETATM   31  O1  UNL     1      10.754 -16.618  14.691  1.00  0.00    -0.271 OA
BRANCH  29  32
HETATM   32  C5  UNL     1       9.076 -15.328  12.888  1.00  0.00     0.089 C 
HETATM   33  C4  UNL     1       8.601 -16.385  11.919  1.00  0.00     0.073 C 
HETATM   34  C3  UNL     1       7.108 -16.326  11.820  1.00  0.00     0.010 A 
HETATM   35  C2  UNL     1       6.455 -15.129  11.673  1.00  0.00     0.024 A 
HETATM   36  S1  UNL     1       5.802 -17.424  11.836  1.00  0.00    -0.060 SA
HETATM   37  N2  UNL     1       5.166 -15.146  11.595  1.00  0.00    -0.342 N 
HETATM   38  C28 UNL     1       7.397 -13.938  11.626  1.00  0.00     0.060 C 
HETATM   39  C1  UNL     1       4.509 -16.292  11.655  1.00  0.00     0.159 A 
ATOM     40  H2  UNL     1       4.653 -14.271  11.486  1.00  0.00     0.167 HD
HETATM   41  N1  UNL     1       3.100 -16.535  11.585  1.00  0.00    -0.074 NA
HETATM   42  C27 UNL     1       8.393 -14.025  12.751  1.00  0.00     0.031 C 
ENDBRANCH  29  32
ENDBRANCH   1  28
TORSDOF 9
ENDMDL
