MODEL 2
REMARK VINA RESULT: -9.646436988      1.850      2.070
REMARK  9 active torsions:
REMARK  status: ('A' for Active; 'I' for Inactive)
REMARK    1  A    between atoms: C5_9  and  N3_10 
REMARK       I    between atoms: N3_10  and  C6_12 
REMARK    2  A    between atoms: C6_12  and  C7_14 
REMARK       I    between atoms: N4_18  and  C11_19 
REMARK    3  A    between atoms: C11_19  and  C12_21 
REMARK    4  A    between atoms: C12_21  and  C13_22 
REMARK    5  A    between atoms: C12_21  and  N5_29 
REMARK    6  A    between atoms: C13_22  and  C14_23 
REMARK    7  A    between atoms: N5_29  and  S2_31 
REMARK    8  A    between atoms: S2_31  and  C20_34 
REMARK    9  A    between atoms: C20_34  and  C21_35 
ROOT
HETATM    1  C7  UNL     1      14.467 -15.695  14.219  1.00  0.00     0.179 C 
HETATM    2  C8  UNL     1      15.671 -16.523  14.589  1.00  0.00     0.037 C 
HETATM    3  C9  UNL     1      16.520 -15.638  15.488  1.00  0.00     0.022 C 
HETATM    4  C10 UNL     1      15.457 -14.776  16.129  1.00  0.00     0.127 C 
HETATM    5  N4  UNL     1      14.600 -14.466  14.983  1.00  0.00    -0.337 N 
HETATM    6  C11 UNL     1      14.056 -13.204  14.704  1.00  0.00     0.244 C 
HETATM    7  O2  UNL     1      13.271 -13.140  13.703  1.00  0.00    -0.271 OA
ENDROOT
BRANCH   6   8
HETATM    8  C12 UNL     1      14.357 -11.964  15.515  1.00  0.00     0.185 C 
BRANCH   8   9
HETATM    9  C13 UNL     1      14.888 -10.948  14.546  1.00  0.00     0.040 C 
BRANCH   9  10
HETATM   10  C14 UNL     1      16.302 -11.112  14.121  1.00  0.00    -0.012 C 
HETATM   11  C15 UNL     1      16.562 -12.165  13.107  1.00  0.00     0.005 C 
HETATM   12  C16 UNL     1      17.565 -11.794  12.055  1.00  0.00     0.000 C 
HETATM   13  C17 UNL     1      17.357 -10.464  11.415  1.00  0.00     0.000 C 
HETATM   14  C18 UNL     1      16.487  -9.531  12.197  1.00  0.00     0.000 C 
HETATM   15  C19 UNL     1      16.773  -9.733  13.660  1.00  0.00     0.005 C 
ENDBRANCH   9  10
ENDBRANCH   8   9
BRANCH   8  16
HETATM   16  N5  UNL     1      13.046 -11.543  16.016  1.00  0.00    -0.305 N 
ATOM     17  H5  UNL     1      12.383 -10.968  15.496  1.00  0.00     0.173 HD
BRANCH  16  18
HETATM   18  S2  UNL     1      12.777 -12.156  17.609  1.00  0.00     0.231 S 
HETATM   19  O3  UNL     1      14.044 -12.646  18.212  1.00  0.00    -0.206 OA
HETATM   20  O4  UNL     1      12.103 -11.127  18.470  1.00  0.00    -0.206 OA
BRANCH  18  21
HETATM   21  C20 UNL     1      11.602 -13.503  17.414  1.00  0.00     0.201 C 
BRANCH  21  22
HETATM   22  C21 UNL     1      10.346 -13.070  16.790  1.00  0.00    -0.043 A 
HETATM   23  C22 UNL     1      10.304 -12.793  15.447  1.00  0.00     0.008 A 
HETATM   24  C23 UNL     1       9.143 -12.386  14.823  1.00  0.00     0.001 A 
HETATM   25  C24 UNL     1       7.997 -12.256  15.578  1.00  0.00     0.000 A 
HETATM   26  C25 UNL     1       8.031 -12.529  16.910  1.00  0.00     0.001 A 
HETATM   27  C26 UNL     1       9.194 -12.935  17.530  1.00  0.00     0.008 A 
ENDBRANCH  21  22
ENDBRANCH  18  21
ENDBRANCH  16  18
ENDBRANCH   8  16
ENDBRANCH   6   8
BRANCH   1  28
HETATM   28  C6  UNL     1      13.220 -16.426  14.463  1.00  0.00     0.241 C 
HETATM   29  N3  UNL     1      12.029 -16.157  13.746  1.00  0.00    -0.354 N 
ATOM     30  H3  UNL     1      12.050 -15.424  13.036  1.00  0.00     0.162 HD
HETATM   31  O1  UNL     1      13.148 -17.346  15.340  1.00  0.00    -0.271 OA
BRANCH  29  32
HETATM   32  C5  UNL     1      10.781 -16.864  13.963  1.00  0.00     0.089 C 
HETATM   33  C4  UNL     1      10.119 -17.233  12.656  1.00  0.00     0.073 C 
HETATM   34  C3  UNL     1       8.762 -17.799  12.935  1.00  0.00     0.010 A 
HETATM   35  C2  UNL     1       7.907 -17.188  13.817  1.00  0.00     0.024 A 
HETATM   36  S1  UNL     1       7.830 -19.138  12.433  1.00  0.00    -0.060 SA
HETATM   37  N2  UNL     1       6.751 -17.728  14.014  1.00  0.00    -0.342 N 
HETATM   38  C28 UNL     1       8.491 -15.930  14.437  1.00  0.00     0.060 C 
HETATM   39  C1  UNL     1       6.414 -18.836  13.377  1.00  0.00     0.159 A 
ATOM     40  H2  UNL     1       6.094 -17.297  14.665  1.00  0.00     0.167 HD
HETATM   41  N1  UNL     1       5.197 -19.587  13.444  1.00  0.00    -0.074 NA
HETATM   42  C27 UNL     1       9.886 -16.200  14.933  1.00  0.00     0.031 C 
ENDBRANCH  29  32
ENDBRANCH   1  28
TORSDOF 9
ENDMDL
