MODEL 1
REMARK VINA RESULT: -9.927042590      0.000      0.000
REMARK  15 active torsions:
REMARK  status: ('A' for Active; 'I' for Inactive)
REMARK    1  A    between atoms: C2_2  and  C4_4 
REMARK    2  A    between atoms: C4_4  and  N1_5 
REMARK    3  A    between atoms: C4_4  and  C29_38 
REMARK       I    between atoms: N1_5  and  C5_7 
REMARK    4  A    between atoms: C5_7  and  C6_9 
REMARK    5  A    between atoms: C6_9  and  C7_10 
REMARK    6  A    between atoms: C6_9  and  C14_17 
REMARK    7  A    between atoms: C7_10  and  C8_11 
REMARK    8  A    between atoms: C14_17  and  C15_18 
REMARK    9  A    between atoms: C15_18  and  O2_19 
REMARK   10  A    between atoms: C15_18  and  C16_21 
REMARK   11  A    between atoms: C16_21  and  C17_22 
REMARK   12  A    between atoms: C16_21  and  N2_29 
REMARK   13  A    between atoms: C17_22  and  C18_23 
REMARK       I    between atoms: N2_29  and  C24_31 
REMARK   14  A    between atoms: C24_31  and  O4_33 
REMARK   15  A    between atoms: O4_33  and  C25_34 
ROOT
HETATM    1  C6  UNL     1      -8.162  18.148  27.237  1.00  0.00     0.084 C 
ENDROOT
BRANCH   1   2
HETATM    2  C5  UNL     1      -8.080  17.137  26.199  1.00  0.00     0.222 C 
HETATM    3  N1  UNL     1      -8.429  17.496  24.843  1.00  0.00    -0.349 N 
ATOM      4  H1  UNL     1      -8.695  18.465  24.664  1.00  0.00     0.163 HD
HETATM    5  O1  UNL     1      -7.756  15.956  26.424  1.00  0.00    -0.273 OA
BRANCH   3   6
HETATM    6  C4  UNL     1      -8.429  16.592  23.730  1.00  0.00     0.155 C 
BRANCH   6   7
HETATM    7  C2  UNL     1      -9.780  16.205  23.252  1.00  0.00     0.007 C 
HETATM    8  C1  UNL     1     -10.787  16.208  24.381  1.00  0.00     0.012 C 
HETATM    9  C3  UNL     1      -9.749  14.784  22.704  1.00  0.00     0.012 C 
ENDBRANCH   6   7
BRANCH   6  10
HETATM   10  C29 UNL     1      -7.588  17.170  22.580  1.00  0.00     0.104 A 
HETATM   11  N3  UNL     1      -8.013  17.625  21.407  1.00  0.00    -0.353 N 
HETATM   12  C30 UNL     1      -6.930  18.035  20.681  1.00  0.00     0.106 A 
ATOM     13  H3  UNL     1      -8.984  17.663  21.099  1.00  0.00     0.166 HD
HETATM   14  C31 UNL     1      -5.804  17.815  21.440  1.00  0.00     0.106 A 
HETATM   15  N4  UNL     1      -6.245  17.284  22.585  1.00  0.00    -0.353 N 
ATOM     16  H4  UNL     1      -5.645  17.001  23.359  1.00  0.00     0.166 HD
ENDBRANCH   6  10
ENDBRANCH   3   6
ENDBRANCH   1   2
BRANCH   1  17
HETATM   17  C7  UNL     1      -6.854  18.571  27.863  1.00  0.00     0.052 C 
BRANCH  17  18
HETATM   18  C8  UNL     1      -5.704  18.766  27.023  1.00  0.00    -0.057 A 
HETATM   19  C9  UNL     1      -4.580  17.978  27.016  1.00  0.00     0.007 A 
HETATM   20  C10 UNL     1      -3.500  18.175  26.175  1.00  0.00     0.001 A 
HETATM   21  C11 UNL     1      -3.499  19.220  25.257  1.00  0.00     0.000 A 
HETATM   22  C12 UNL     1      -4.630  20.038  25.242  1.00  0.00     0.001 A 
HETATM   23  C13 UNL     1      -5.678  19.817  26.089  1.00  0.00     0.007 A 
ENDBRANCH  17  18
ENDBRANCH   1  17
BRANCH   1  24
HETATM   24  C14 UNL     1      -9.159  17.840  28.345  1.00  0.00     0.048 C 
BRANCH  24  25
HETATM   25  C15 UNL     1     -10.567  17.615  27.918  1.00  0.00     0.142 C 
BRANCH  25  26
HETATM   26  O2  UNL     1     -11.382  18.638  28.444  1.00  0.00    -0.393 OA
ATOM     27  H2  UNL     1     -12.078  18.832  27.827  1.00  0.00     0.210 HD
ENDBRANCH  25  26
BRANCH  25  28
HETATM   28  C16 UNL     1     -11.091  16.324  28.567  1.00  0.00     0.119 C 
BRANCH  28  29
HETATM   29  C17 UNL     1     -12.440  15.915  28.034  1.00  0.00     0.066 C 
BRANCH  29  30
HETATM   30  C18 UNL     1     -12.881  14.655  28.654  1.00  0.00    -0.056 A 
HETATM   31  C19 UNL     1     -13.934  14.652  29.553  1.00  0.00     0.007 A 
HETATM   32  C20 UNL     1     -14.362  13.497  30.150  1.00  0.00     0.001 A 
HETATM   33  C21 UNL     1     -13.750  12.280  29.864  1.00  0.00     0.000 A 
HETATM   34  C22 UNL     1     -12.703  12.287  28.966  1.00  0.00     0.001 A 
HETATM   35  C23 UNL     1     -12.268  13.464  28.363  1.00  0.00     0.007 A 
ENDBRANCH  29  30
ENDBRANCH  28  29
BRANCH  28  36
HETATM   36  N2  UNL     1     -11.093  16.507  29.982  1.00  0.00    -0.329 N 
HETATM   37  C24 UNL     1     -10.375  15.737  30.924  1.00  0.00     0.361 C 
HETATM   38  O3  UNL     1      -9.646  14.801  30.447  1.00  0.00    -0.238 OA
ATOM     39  H2  UNL     1     -11.668  17.266  30.348  1.00  0.00     0.165 HD
BRANCH  37  40
HETATM   40  O4  UNL     1     -10.414  15.928  32.271  1.00  0.00    -0.294 OA
BRANCH  40  41
HETATM   41  C25 UNL     1      -9.340  16.259  33.121  1.00  0.00     0.061 C 
HETATM   42  C26 UNL     1      -8.553  15.013  33.474  1.00  0.00     0.046 C 
HETATM   43  C27 UNL     1      -9.893  16.836  34.428  1.00  0.00     0.046 C 
HETATM   44  C28 UNL     1      -8.426  17.294  32.559  1.00  0.00     0.046 C 
ENDBRANCH  40  41
ENDBRANCH  37  40
ENDBRANCH  28  36
ENDBRANCH  25  28
ENDBRANCH  24  25
ENDBRANCH   1  24
TORSDOF 15
ENDMDL
