MODEL 5
REMARK VINA RESULT: -9.720595650      1.804      8.901
REMARK  15 active torsions:
REMARK  status: ('A' for Active; 'I' for Inactive)
REMARK    1  A    between atoms: C2_2  and  C4_4 
REMARK    2  A    between atoms: C4_4  and  N1_5 
REMARK    3  A    between atoms: C4_4  and  C29_38 
REMARK       I    between atoms: N1_5  and  C5_7 
REMARK    4  A    between atoms: C5_7  and  C6_9 
REMARK    5  A    between atoms: C6_9  and  C7_10 
REMARK    6  A    between atoms: C6_9  and  C14_17 
REMARK    7  A    between atoms: C7_10  and  C8_11 
REMARK    8  A    between atoms: C14_17  and  C15_18 
REMARK    9  A    between atoms: C15_18  and  O2_19 
REMARK   10  A    between atoms: C15_18  and  C16_21 
REMARK   11  A    between atoms: C16_21  and  C17_22 
REMARK   12  A    between atoms: C16_21  and  N2_29 
REMARK   13  A    between atoms: C17_22  and  C18_23 
REMARK       I    between atoms: N2_29  and  C24_31 
REMARK   14  A    between atoms: C24_31  and  O4_33 
REMARK   15  A    between atoms: O4_33  and  C25_34 
ROOT
HETATM    1  C6  UNL     1     -12.038  15.666  28.509  1.00  0.00     0.084 C 
ENDROOT
BRANCH   1   2
HETATM    2  C5  UNL     1     -10.869  15.179  29.219  1.00  0.00     0.222 C 
HETATM    3  N1  UNL     1     -10.633  15.631  30.571  1.00  0.00    -0.349 N 
ATOM      4  H1  UNL     1     -11.321  16.260  30.987  1.00  0.00     0.163 HD
HETATM    5  O1  UNL     1     -10.032  14.414  28.706  1.00  0.00    -0.273 OA
BRANCH   3   6
HETATM    6  C4  UNL     1      -9.502  15.262  31.373  1.00  0.00     0.155 C 
BRANCH   6   7
HETATM    7  C2  UNL     1      -8.348  16.190  31.273  1.00  0.00     0.007 C 
HETATM    8  C1  UNL     1      -7.674  16.380  32.614  1.00  0.00     0.012 C 
HETATM    9  C3  UNL     1      -8.827  17.567  30.831  1.00  0.00     0.012 C 
ENDBRANCH   6   7
BRANCH   6  10
HETATM   10  C29 UNL     1      -9.931  15.079  32.838  1.00  0.00     0.104 A 
HETATM   11  N3  UNL     1      -9.597  14.100  33.671  1.00  0.00    -0.353 N 
HETATM   12  C30 UNL     1     -10.210  14.321  34.872  1.00  0.00     0.106 A 
ATOM     13  H3  UNL     1      -8.984  13.314  33.451  1.00  0.00     0.166 HD
HETATM   14  C31 UNL     1     -10.949  15.476  34.763  1.00  0.00     0.106 A 
HETATM   15  N4  UNL     1     -10.758  15.904  33.510  1.00  0.00    -0.353 N 
ATOM     16  H4  UNL     1     -11.182  16.743  33.116  1.00  0.00     0.166 HD
ENDBRANCH   6  10
ENDBRANCH   3   6
ENDBRANCH   1   2
BRANCH   1  17
HETATM   17  C7  UNL     1     -13.064  14.628  28.122  1.00  0.00     0.052 C 
BRANCH  17  18
HETATM   18  C8  UNL     1     -13.730  13.879  29.152  1.00  0.00    -0.057 A 
HETATM   19  C9  UNL     1     -13.543  12.545  29.415  1.00  0.00     0.007 A 
HETATM   20  C10 UNL     1     -14.180  11.859  30.433  1.00  0.00     0.001 A 
HETATM   21  C11 UNL     1     -15.074  12.511  31.276  1.00  0.00     0.000 A 
HETATM   22  C12 UNL     1     -15.284  13.869  31.031  1.00  0.00     0.001 A 
HETATM   23  C13 UNL     1     -14.641  14.516  30.015  1.00  0.00     0.007 A 
ENDBRANCH  17  18
ENDBRANCH   1  17
BRANCH   1  24
HETATM   24  C14 UNL     1     -11.728  16.528  27.295  1.00  0.00     0.048 C 
BRANCH  24  25
HETATM   25  C15 UNL     1     -10.489  17.347  27.369  1.00  0.00     0.142 C 
BRANCH  25  26
HETATM   26  O2  UNL     1     -10.835  18.706  27.522  1.00  0.00    -0.393 OA
ATOM     27  H2  UNL     1     -10.513  19.019  28.359  1.00  0.00     0.210 HD
ENDBRANCH  25  26
BRANCH  25  28
HETATM   28  C16 UNL     1      -9.757  17.280  26.018  1.00  0.00     0.119 C 
BRANCH  28  29
HETATM   29  C17 UNL     1      -9.530  15.864  25.553  1.00  0.00     0.066 C 
BRANCH  29  30
HETATM   30  C18 UNL     1      -9.485  15.802  24.084  1.00  0.00    -0.056 A 
HETATM   31  C19 UNL     1      -8.285  15.573  23.433  1.00  0.00     0.007 A 
HETATM   32  C20 UNL     1      -8.211  15.517  22.067  1.00  0.00     0.001 A 
HETATM   33  C21 UNL     1      -9.351  15.684  21.286  1.00  0.00     0.000 A 
HETATM   34  C22 UNL     1     -10.546  15.910  21.939  1.00  0.00     0.001 A 
HETATM   35  C23 UNL     1     -10.616  15.970  23.328  1.00  0.00     0.007 A 
ENDBRANCH  29  30
ENDBRANCH  28  29
BRANCH  28  36
HETATM   36  N2  UNL     1      -8.544  18.021  26.131  1.00  0.00    -0.329 N 
HETATM   37  C24 UNL     1      -7.424  17.672  26.918  1.00  0.00     0.361 C 
HETATM   38  O3  UNL     1      -7.515  16.579  27.573  1.00  0.00    -0.238 OA
ATOM     39  H2  UNL     1      -8.479  18.884  25.592  1.00  0.00     0.165 HD
BRANCH  37  40
HETATM   40  O4  UNL     1      -6.287  18.414  27.017  1.00  0.00    -0.294 OA
BRANCH  40  41
HETATM   41  C25 UNL     1      -5.223  18.479  26.094  1.00  0.00     0.061 C 
HETATM   42  C26 UNL     1      -3.932  18.044  26.758  1.00  0.00     0.046 C 
HETATM   43  C27 UNL     1      -5.039  19.930  25.642  1.00  0.00     0.046 C 
HETATM   44  C28 UNL     1      -5.452  17.678  24.857  1.00  0.00     0.046 C 
ENDBRANCH  40  41
ENDBRANCH  37  40
ENDBRANCH  28  36
ENDBRANCH  25  28
ENDBRANCH  24  25
ENDBRANCH   1  24
TORSDOF 15
ENDMDL
