MODEL 4
REMARK VINA RESULT: -9.820860475      1.670      9.574
REMARK  15 active torsions:
REMARK  status: ('A' for Active; 'I' for Inactive)
REMARK    1  A    between atoms: C2_2  and  C4_4 
REMARK    2  A    between atoms: C4_4  and  N1_5 
REMARK    3  A    between atoms: C4_4  and  C29_38 
REMARK       I    between atoms: N1_5  and  C5_7 
REMARK    4  A    between atoms: C5_7  and  C6_9 
REMARK    5  A    between atoms: C6_9  and  C7_10 
REMARK    6  A    between atoms: C6_9  and  C14_17 
REMARK    7  A    between atoms: C7_10  and  C8_11 
REMARK    8  A    between atoms: C14_17  and  C15_18 
REMARK    9  A    between atoms: C15_18  and  O2_19 
REMARK   10  A    between atoms: C15_18  and  C16_21 
REMARK   11  A    between atoms: C16_21  and  C17_22 
REMARK   12  A    between atoms: C16_21  and  N2_29 
REMARK   13  A    between atoms: C17_22  and  C18_23 
REMARK       I    between atoms: N2_29  and  C24_31 
REMARK   14  A    between atoms: C24_31  and  O4_33 
REMARK   15  A    between atoms: O4_33  and  C25_34 
ROOT
HETATM    1  C6  UNL     1     -11.573  16.192  28.455  1.00  0.00     0.084 C 
ENDROOT
BRANCH   1   2
HETATM    2  C5  UNL     1     -10.722  15.622  29.484  1.00  0.00     0.222 C 
HETATM    3  N1  UNL     1     -10.913  16.032  30.856  1.00  0.00    -0.349 N 
ATOM      4  H1  UNL     1     -11.665  16.692  31.053  1.00  0.00     0.163 HD
HETATM    5  O1  UNL     1      -9.804  14.817  29.238  1.00  0.00    -0.273 OA
BRANCH   3   6
HETATM    6  C4  UNL     1     -10.121  15.579  31.964  1.00  0.00     0.155 C 
BRANCH   6   7
HETATM    7  C2  UNL     1      -9.117  16.561  32.444  1.00  0.00     0.007 C 
HETATM    8  C1  UNL     1      -8.741  17.543  31.356  1.00  0.00     0.012 C 
HETATM    9  C3  UNL     1      -7.834  15.841  32.838  1.00  0.00     0.012 C 
ENDBRANCH   6   7
BRANCH   6  10
HETATM   10  C29 UNL     1     -11.035  15.126  33.115  1.00  0.00     0.104 A 
HETATM   11  N3  UNL     1     -11.104  15.620  34.345  1.00  0.00    -0.353 N 
HETATM   12  C30 UNL     1     -12.041  14.914  35.046  1.00  0.00     0.106 A 
ATOM     13  H3  UNL     1     -10.551  16.397  34.707  1.00  0.00     0.166 HD
HETATM   14  C31 UNL     1     -12.557  13.950  34.211  1.00  0.00     0.106 A 
HETATM   15  N4  UNL     1     -11.915  14.108  33.048  1.00  0.00    -0.353 N 
ATOM     16  H4  UNL     1     -12.072  13.534  32.220  1.00  0.00     0.166 HD
ENDBRANCH   6  10
ENDBRANCH   3   6
ENDBRANCH   1   2
BRANCH   1  17
HETATM   17  C7  UNL     1     -12.645  15.285  27.897  1.00  0.00     0.052 C 
BRANCH  17  18
HETATM   18  C8  UNL     1     -13.327  14.378  28.778  1.00  0.00    -0.057 A 
HETATM   19  C9  UNL     1     -13.094  13.029  28.869  1.00  0.00     0.007 A 
HETATM   20  C10 UNL     1     -13.749  12.186  29.748  1.00  0.00     0.001 A 
HETATM   21  C11 UNL     1     -14.713  12.682  30.619  1.00  0.00     0.000 A 
HETATM   22  C12 UNL     1     -14.971  14.052  30.549  1.00  0.00     0.001 A 
HETATM   23  C13 UNL     1     -14.308  14.856  29.666  1.00  0.00     0.007 A 
ENDBRANCH  17  18
ENDBRANCH   1  17
BRANCH   1  24
HETATM   24  C14 UNL     1     -10.825  16.838  27.299  1.00  0.00     0.048 C 
BRANCH  24  25
HETATM   25  C15 UNL     1      -9.989  18.022  27.637  1.00  0.00     0.142 C 
BRANCH  25  26
HETATM   26  O2  UNL     1     -10.508  19.160  26.986  1.00  0.00    -0.393 OA
ATOM     27  H2  UNL     1     -11.040  19.656  27.597  1.00  0.00     0.210 HD
ENDBRANCH  25  26
BRANCH  25  28
HETATM   28  C16 UNL     1      -8.585  17.836  27.039  1.00  0.00     0.119 C 
BRANCH  28  29
HETATM   29  C17 UNL     1      -7.591  18.832  27.577  1.00  0.00     0.066 C 
BRANCH  29  30
HETATM   30  C18 UNL     1      -6.242  18.549  27.061  1.00  0.00    -0.056 A 
HETATM   31  C19 UNL     1      -5.628  19.435  26.193  1.00  0.00     0.007 A 
HETATM   32  C20 UNL     1      -4.377  19.195  25.691  1.00  0.00     0.001 A 
HETATM   33  C21 UNL     1      -3.678  18.045  26.046  1.00  0.00     0.000 A 
HETATM   34  C22 UNL     1      -4.293  17.165  26.912  1.00  0.00     0.001 A 
HETATM   35  C23 UNL     1      -5.566  17.411  27.418  1.00  0.00     0.007 A 
ENDBRANCH  29  30
ENDBRANCH  28  29
BRANCH  28  36
HETATM   36  N2  UNL     1      -8.696  17.886  25.618  1.00  0.00    -0.329 N 
HETATM   37  C24 UNL     1      -8.369  16.847  24.718  1.00  0.00     0.361 C 
HETATM   38  O3  UNL     1      -7.949  15.761  25.243  1.00  0.00    -0.238 OA
ATOM     39  H2  UNL     1      -9.046  18.754  25.213  1.00  0.00     0.165 HD
BRANCH  37  40
HETATM   40  O4  UNL     1      -8.471  16.936  23.364  1.00  0.00    -0.294 OA
BRANCH  40  41
HETATM   41  C25 UNL     1      -9.241  16.124  22.507  1.00  0.00     0.061 C 
HETATM   42  C26 UNL     1      -8.495  14.842  22.196  1.00  0.00     0.046 C 
HETATM   43  C27 UNL     1      -9.461  16.859  21.181  1.00  0.00     0.046 C 
HETATM   44  C28 UNL     1     -10.596  15.805  23.041  1.00  0.00     0.046 C 
ENDBRANCH  40  41
ENDBRANCH  37  40
ENDBRANCH  28  36
ENDBRANCH  25  28
ENDBRANCH  24  25
ENDBRANCH   1  24
TORSDOF 15
ENDMDL
