MODEL 2
REMARK VINA RESULT: -9.902570286      2.294      7.292
REMARK  15 active torsions:
REMARK  status: ('A' for Active; 'I' for Inactive)
REMARK    1  A    between atoms: C2_2  and  C4_4 
REMARK    2  A    between atoms: C4_4  and  N1_5 
REMARK    3  A    between atoms: C4_4  and  C29_38 
REMARK       I    between atoms: N1_5  and  C5_7 
REMARK    4  A    between atoms: C5_7  and  C6_9 
REMARK    5  A    between atoms: C6_9  and  C7_10 
REMARK    6  A    between atoms: C6_9  and  C14_17 
REMARK    7  A    between atoms: C7_10  and  C8_11 
REMARK    8  A    between atoms: C14_17  and  C15_18 
REMARK    9  A    between atoms: C15_18  and  O2_19 
REMARK   10  A    between atoms: C15_18  and  C16_21 
REMARK   11  A    between atoms: C16_21  and  C17_22 
REMARK   12  A    between atoms: C16_21  and  N2_29 
REMARK   13  A    between atoms: C17_22  and  C18_23 
REMARK       I    between atoms: N2_29  and  C24_31 
REMARK   14  A    between atoms: C24_31  and  O4_33 
REMARK   15  A    between atoms: O4_33  and  C25_34 
ROOT
HETATM    1  C6  UNL     1     -11.566  16.142  27.042  1.00  0.00     0.084 C 
ENDROOT
BRANCH   1   2
HETATM    2  C5  UNL     1     -12.557  15.519  27.901  1.00  0.00     0.222 C 
HETATM    3  N1  UNL     1     -12.113  14.644  28.962  1.00  0.00    -0.349 N 
ATOM      4  H1  UNL     1     -11.108  14.520  29.083  1.00  0.00     0.163 HD
HETATM    5  O1  UNL     1     -13.784  15.672  27.747  1.00  0.00    -0.273 OA
BRANCH   3   6
HETATM    6  C4  UNL     1     -12.982  13.936  29.857  1.00  0.00     0.155 C 
BRANCH   6   7
HETATM    7  C2  UNL     1     -12.985  12.463  29.674  1.00  0.00     0.007 C 
HETATM    8  C1  UNL     1     -12.706  12.084  28.236  1.00  0.00     0.012 C 
HETATM    9  C3  UNL     1     -14.360  11.901  30.010  1.00  0.00     0.012 C 
ENDBRANCH   6   7
BRANCH   6  10
HETATM   10  C29 UNL     1     -12.652  14.304  31.313  1.00  0.00     0.104 A 
HETATM   11  N3  UNL     1     -12.601  13.498  32.368  1.00  0.00    -0.353 N 
HETATM   12  C30 UNL     1     -12.283  14.242  33.469  1.00  0.00     0.106 A 
ATOM     13  H3  UNL     1     -12.770  12.493  32.357  1.00  0.00     0.166 HD
HETATM   14  C31 UNL     1     -12.141  15.551  33.070  1.00  0.00     0.106 A 
HETATM   15  N4  UNL     1     -12.378  15.548  31.754  1.00  0.00    -0.353 N 
ATOM     16  H4  UNL     1     -12.356  16.378  31.161  1.00  0.00     0.166 HD
ENDBRANCH   6  10
ENDBRANCH   3   6
ENDBRANCH   1   2
BRANCH   1  17
HETATM   17  C7  UNL     1     -10.486  15.234  26.502  1.00  0.00     0.052 C 
BRANCH  17  18
HETATM   18  C8  UNL     1      -9.982  15.455  25.175  1.00  0.00    -0.057 A 
HETATM   19  C9  UNL     1      -8.659  15.430  24.811  1.00  0.00     0.007 A 
HETATM   20  C10 UNL     1      -8.206  15.619  23.517  1.00  0.00     0.001 A 
HETATM   21  C11 UNL     1      -9.103  15.852  22.480  1.00  0.00     0.000 A 
HETATM   22  C12 UNL     1     -10.456  15.882  22.822  1.00  0.00     0.001 A 
HETATM   23  C13 UNL     1     -10.869  15.694  24.110  1.00  0.00     0.007 A 
ENDBRANCH  17  18
ENDBRANCH   1  17
BRANCH   1  24
HETATM   24  C14 UNL     1     -10.916  17.388  27.624  1.00  0.00     0.048 C 
BRANCH  24  25
HETATM   25  C15 UNL     1     -10.703  17.391  29.097  1.00  0.00     0.142 C 
BRANCH  25  26
HETATM   26  O2  UNL     1     -11.003  18.670  29.608  1.00  0.00    -0.393 OA
ATOM     27  H2  UNL     1     -11.914  18.695  29.878  1.00  0.00     0.210 HD
ENDBRANCH  25  26
BRANCH  25  28
HETATM   28  C16 UNL     1      -9.206  17.193  29.390  1.00  0.00     0.119 C 
BRANCH  28  29
HETATM   29  C17 UNL     1      -8.798  17.767  30.723  1.00  0.00     0.066 C 
BRANCH  29  30
HETATM   30  C18 UNL     1      -8.746  16.712  31.747  1.00  0.00    -0.056 A 
HETATM   31  C19 UNL     1      -8.722  17.046  33.090  1.00  0.00     0.007 A 
HETATM   32  C20 UNL     1      -8.667  16.087  34.066  1.00  0.00     0.001 A 
HETATM   33  C21 UNL     1      -8.640  14.735  33.732  1.00  0.00     0.000 A 
HETATM   34  C22 UNL     1      -8.667  14.407  32.392  1.00  0.00     0.001 A 
HETATM   35  C23 UNL     1      -8.719  15.386  31.403  1.00  0.00     0.007 A 
ENDBRANCH  29  30
ENDBRANCH  28  29
BRANCH  28  36
HETATM   36  N2  UNL     1      -8.463  17.745  28.305  1.00  0.00    -0.329 N 
HETATM   37  C24 UNL     1      -7.396  17.121  27.621  1.00  0.00     0.361 C 
HETATM   38  O3  UNL     1      -7.089  15.944  28.014  1.00  0.00    -0.238 OA
ATOM     39  H2  UNL     1      -8.728  18.679  27.993  1.00  0.00     0.165 HD
BRANCH  37  40
HETATM   40  O4  UNL     1      -6.696  17.685  26.599  1.00  0.00    -0.294 OA
BRANCH  40  41
HETATM   41  C25 UNL     1      -5.610  18.578  26.695  1.00  0.00     0.061 C 
HETATM   42  C26 UNL     1      -6.030  19.830  27.439  1.00  0.00     0.046 C 
HETATM   43  C27 UNL     1      -5.185  19.004  25.286  1.00  0.00     0.046 C 
HETATM   44  C28 UNL     1      -4.402  17.987  27.338  1.00  0.00     0.046 C 
ENDBRANCH  40  41
ENDBRANCH  37  40
ENDBRANCH  28  36
ENDBRANCH  25  28
ENDBRANCH  24  25
ENDBRANCH   1  24
TORSDOF 15
ENDMDL
