MODEL 6
REMARK VINA RESULT: -9.945337108      2.039     10.185
REMARK  14 active torsions:
REMARK  status: ('A' for Active; 'I' for Inactive)
REMARK    1  A    between atoms: C2_2  and  N1_5 
REMARK       I    between atoms: N1_5  and  C5_7 
REMARK    2  A    between atoms: C5_7  and  C6_9 
REMARK    3  A    between atoms: N2_11  and  C8_12 
REMARK    4  A    between atoms: C8_12  and  C9_13 
REMARK    5  A    between atoms: N4_22  and  C16_23 
REMARK    6  A    between atoms: C16_23  and  C17_24 
REMARK    7  A    between atoms: C17_24  and  O2_25 
REMARK    8  A    between atoms: C17_24  and  C18_27 
REMARK    9  A    between atoms: C18_27  and  C19_28 
REMARK   10  A    between atoms: C19_28  and  C20_29 
REMARK   11  A    between atoms: C19_28  and  C27_36 
REMARK   12  A    between atoms: C20_29  and  C21_30 
REMARK       I    between atoms: C27_36  and  N5_38 
REMARK   13  A    between atoms: N5_38  and  C28_40 
REMARK   14  A    between atoms: C36_48  and  O4_49 
ROOT
HETATM    1  C17 UNL     1      24.724  16.377   6.327  1.00  0.00     0.147 C 
ENDROOT
BRANCH   1   2
HETATM    2  C16 UNL     1      23.282  16.235   5.926  1.00  0.00     0.305 C 
BRANCH   2   3
HETATM    3  N4  UNL     1      22.672  14.988   6.232  1.00  0.00     0.108 N 
HETATM    4  C6  UNL     1      21.397  15.014   6.858  1.00  0.00     0.342 C 
HETATM    5  C7  UNL     1      20.244  15.191   5.938  1.00  0.00     0.318 C 
HETATM    6  N2  UNL     1      20.287  14.474   4.706  1.00  0.00     0.097 N 
HETATM    7  C14 UNL     1      21.588  14.577   4.071  1.00  0.00     0.303 C 
HETATM    8  C15 UNL     1      22.663  14.181   5.024  1.00  0.00     0.303 C 
BRANCH   4   9
HETATM    9  C5  UNL     1      21.275  13.774   7.714  1.00  0.00     0.253 C 
HETATM   10  N1  UNL     1      19.998  13.195   7.939  1.00  0.00    -0.351 N 
ATOM     11  H1  UNL     1      19.167  13.614   7.521  1.00  0.00     0.163 HD
HETATM   12  O1  UNL     1      22.296  13.251   8.232  1.00  0.00    -0.271 OA
BRANCH  10  13
HETATM   13  C2  UNL     1      19.875  12.012   8.763  1.00  0.00     0.022 C 
HETATM   14  C1  UNL     1      20.950  11.006   8.435  1.00  0.00     0.037 C 
HETATM   15  C3  UNL     1      18.531  11.357   8.481  1.00  0.00     0.037 C 
HETATM   16  C4  UNL     1      19.948  12.360  10.243  1.00  0.00     0.037 C 
ENDBRANCH  10  13
ENDBRANCH   4   9
BRANCH   6  17
HETATM   17  C8  UNL     1      19.807  13.125   4.759  1.00  0.00     0.312 C 
BRANCH  17  18
HETATM   18  C9  UNL     1      18.855  12.905   3.611  1.00  0.00    -0.015 A 
HETATM   19  C10 UNL     1      18.889  13.712   2.501  1.00  0.00     0.011 A 
HETATM   20  C11 UNL     1      18.019  13.501   1.466  1.00  0.00     0.018 A 
HETATM   21  C12 UNL     1      17.109  12.476   1.545  1.00  0.00     0.087 A 
HETATM   22  N3  UNL     1      17.072  11.683   2.630  1.00  0.00    -0.375 N 
HETATM   23  C13 UNL     1      17.928  11.887   3.655  1.00  0.00     0.096 A 
ATOM     24  H3  UNL     1      16.393  10.924   2.680  1.00  0.00     0.164 HD
ENDBRANCH  17  18
ENDBRANCH   6  17
ENDBRANCH   2   3
ENDBRANCH   1   2
BRANCH   1  25
HETATM   25  O2  UNL     1      25.449  16.410   5.106  1.00  0.00    -0.394 OA
ATOM     26  H2  UNL     1      26.364  16.403   5.360  1.00  0.00     0.210 HD
ENDBRANCH   1  25
BRANCH   1  27
HETATM   27  C18 UNL     1      24.972  17.735   6.937  1.00  0.00     0.047 C 
BRANCH  27  28
HETATM   28  C19 UNL     1      23.742  18.583   7.121  1.00  0.00     0.084 C 
BRANCH  28  29
HETATM   29  C20 UNL     1      23.903  19.724   8.026  1.00  0.00     0.052 C 
BRANCH  29  30
HETATM   30  C21 UNL     1      25.226  20.360   8.050  1.00  0.00    -0.057 A 
HETATM   31  C22 UNL     1      25.936  20.274   9.254  1.00  0.00     0.007 A 
HETATM   32  C23 UNL     1      27.206  20.801   9.392  1.00  0.00     0.001 A 
HETATM   33  C24 UNL     1      27.821  21.436   8.336  1.00  0.00     0.000 A 
HETATM   34  C25 UNL     1      27.130  21.525   7.148  1.00  0.00     0.001 A 
HETATM   35  C26 UNL     1      25.843  20.992   7.003  1.00  0.00     0.007 A 
ENDBRANCH  29  30
ENDBRANCH  28  29
BRANCH  28  36
HETATM   36  C27 UNL     1      23.104  18.931   5.850  1.00  0.00     0.222 C 
HETATM   37  O3  UNL     1      21.881  18.851   5.686  1.00  0.00    -0.273 OA
HETATM   38  N5  UNL     1      23.855  19.384   4.723  1.00  0.00    -0.350 N 
ATOM     39  H5  UNL     1      24.868  19.471   4.800  1.00  0.00     0.163 HD
BRANCH  38  40
HETATM   40  C28 UNL     1      23.214  19.718   3.487  1.00  0.00     0.147 C 
HETATM   41  C29 UNL     1      23.213  21.161   3.206  1.00  0.00    -0.027 A 
HETATM   42  C30 UNL     1      22.363  22.160   3.607  1.00  0.00     0.010 A 
HETATM   43  C34 UNL     1      24.282  21.460   2.397  1.00  0.00    -0.047 A 
HETATM   44  C31 UNL     1      22.568  23.458   3.210  1.00  0.00     0.001 A 
HETATM   45  C32 UNL     1      23.651  23.740   2.395  1.00  0.00     0.001 A 
HETATM   46  C33 UNL     1      24.534  22.749   1.968  1.00  0.00     0.008 A 
HETATM   47  C35 UNL     1      25.055  20.216   2.095  1.00  0.00     0.073 C 
HETATM   48  C36 UNL     1      24.038  19.125   2.356  1.00  0.00     0.149 C 
BRANCH  48  49
HETATM   49  O4  UNL     1      24.710  18.027   2.859  1.00  0.00    -0.393 OA
ATOM     50  H4  UNL     1      25.641  18.211   2.807  1.00  0.00     0.210 HD
ENDBRANCH  48  49
ENDBRANCH  38  40
ENDBRANCH  28  36
ENDBRANCH  27  28
ENDBRANCH   1  27
TORSDOF 14
ENDMDL
