MODEL 3
REMARK VINA RESULT: -10.086426462      1.928      3.982
REMARK  14 active torsions:
REMARK  status: ('A' for Active; 'I' for Inactive)
REMARK    1  A    between atoms: C2_2  and  N1_5 
REMARK       I    between atoms: N1_5  and  C5_7 
REMARK    2  A    between atoms: C5_7  and  C6_9 
REMARK    3  A    between atoms: N2_11  and  C8_12 
REMARK    4  A    between atoms: C8_12  and  C9_13 
REMARK    5  A    between atoms: N4_22  and  C16_23 
REMARK    6  A    between atoms: C16_23  and  C17_24 
REMARK    7  A    between atoms: C17_24  and  O2_25 
REMARK    8  A    between atoms: C17_24  and  C18_27 
REMARK    9  A    between atoms: C18_27  and  C19_28 
REMARK   10  A    between atoms: C19_28  and  C20_29 
REMARK   11  A    between atoms: C19_28  and  C27_36 
REMARK   12  A    between atoms: C20_29  and  C21_30 
REMARK       I    between atoms: C27_36  and  N5_38 
REMARK   13  A    between atoms: N5_38  and  C28_40 
REMARK   14  A    between atoms: C36_48  and  O4_49 
ROOT
HETATM    1  C17 UNL     1      21.250  16.731   6.644  1.00  0.00     0.147 C 
ENDROOT
BRANCH   1   2
HETATM    2  C16 UNL     1      22.685  17.049   6.961  1.00  0.00     0.305 C 
BRANCH   2   3
HETATM    3  N4  UNL     1      23.369  17.846   6.003  1.00  0.00     0.108 N 
HETATM    4  C6  UNL     1      23.230  19.257   6.100  1.00  0.00     0.342 C 
HETATM    5  C7  UNL     1      24.129  19.916   7.082  1.00  0.00     0.318 C 
HETATM    6  N2  UNL     1      25.474  19.446   7.140  1.00  0.00     0.097 N 
HETATM    7  C14 UNL     1      25.536  17.997   7.142  1.00  0.00     0.303 C 
HETATM    8  C15 UNL     1      24.765  17.443   5.994  1.00  0.00     0.303 C 
BRANCH   4   9
HETATM    9  C5  UNL     1      23.363  19.832   4.709  1.00  0.00     0.253 C 
HETATM   10  N1  UNL     1      23.453  21.239   4.534  1.00  0.00    -0.351 N 
ATOM     11  H1  UNL     1      23.431  21.857   5.346  1.00  0.00     0.163 HD
HETATM   12  O1  UNL     1      23.392  19.077   3.703  1.00  0.00    -0.271 OA
BRANCH  10  13
HETATM   13  C2  UNL     1      23.575  21.796   3.204  1.00  0.00     0.022 C 
HETATM   14  C1  UNL     1      24.782  21.240   2.490  1.00  0.00     0.037 C 
HETATM   15  C3  UNL     1      23.762  23.302   3.319  1.00  0.00     0.037 C 
HETATM   16  C4  UNL     1      22.329  21.521   2.374  1.00  0.00     0.037 C 
ENDBRANCH  10  13
ENDBRANCH   4   9
BRANCH   6  17
HETATM   17  C8  UNL     1      26.375  20.033   6.193  1.00  0.00     0.312 C 
BRANCH  17  18
HETATM   18  C9  UNL     1      26.679  21.445   6.623  1.00  0.00    -0.015 A 
HETATM   19  C10 UNL     1      26.564  22.491   5.741  1.00  0.00     0.011 A 
HETATM   20  C11 UNL     1      26.843  23.769   6.146  1.00  0.00     0.018 A 
HETATM   21  C12 UNL     1      27.239  23.999   7.439  1.00  0.00     0.087 A 
HETATM   22  N3  UNL     1      27.352  22.977   8.306  1.00  0.00    -0.375 N 
HETATM   23  C13 UNL     1      27.079  21.714   7.914  1.00  0.00     0.096 A 
ATOM     24  H3  UNL     1      27.646  23.157   9.266  1.00  0.00     0.164 HD
ENDBRANCH  17  18
ENDBRANCH   6  17
ENDBRANCH   2   3
ENDBRANCH   1   2
BRANCH   1  25
HETATM   25  O2  UNL     1      20.533  17.925   6.922  1.00  0.00    -0.394 OA
ATOM     26  H2  UNL     1      19.674  17.795   6.540  1.00  0.00     0.210 HD
ENDBRANCH   1  25
BRANCH   1  27
HETATM   27  C18 UNL     1      21.068  16.532   5.159  1.00  0.00     0.047 C 
BRANCH  27  28
HETATM   28  C19 UNL     1      20.455  15.215   4.764  1.00  0.00     0.084 C 
BRANCH  28  29
HETATM   29  C20 UNL     1      20.480  14.924   3.329  1.00  0.00     0.052 C 
BRANCH  29  30
HETATM   30  C21 UNL     1      19.328  14.188   2.789  1.00  0.00    -0.057 A 
HETATM   31  C22 UNL     1      19.176  14.206   1.397  1.00  0.00     0.007 A 
HETATM   32  C23 UNL     1      18.155  13.522   0.766  1.00  0.00     0.001 A 
HETATM   33  C24 UNL     1      17.242  12.792   1.496  1.00  0.00     0.000 A 
HETATM   34  C25 UNL     1      17.385  12.770   2.866  1.00  0.00     0.001 A 
HETATM   35  C26 UNL     1      18.419  13.460   3.509  1.00  0.00     0.007 A 
ENDBRANCH  29  30
ENDBRANCH  28  29
BRANCH  28  36
HETATM   36  C27 UNL     1      20.928  14.104   5.594  1.00  0.00     0.222 C 
HETATM   37  O3  UNL     1      22.129  13.827   5.696  1.00  0.00    -0.273 OA
HETATM   38  N5  UNL     1      20.032  13.274   6.334  1.00  0.00    -0.350 N 
ATOM     39  H5  UNL     1      19.030  13.457   6.289  1.00  0.00     0.163 HD
BRANCH  38  40
HETATM   40  C28 UNL     1      20.513  12.192   7.138  1.00  0.00     0.147 C 
HETATM   41  C29 UNL     1      19.994  12.216   8.513  1.00  0.00    -0.027 A 
HETATM   42  C30 UNL     1      20.424  12.884   9.631  1.00  0.00     0.010 A 
HETATM   43  C34 UNL     1      18.891  11.400   8.590  1.00  0.00    -0.047 A 
HETATM   44  C31 UNL     1      19.766  12.748  10.827  1.00  0.00     0.001 A 
HETATM   45  C32 UNL     1      18.657  11.922  10.885  1.00  0.00     0.001 A 
HETATM   46  C33 UNL     1      18.192  11.228   9.768  1.00  0.00     0.008 A 
HETATM   47  C35 UNL     1      18.620  10.785   7.254  1.00  0.00     0.073 C 
HETATM   48  C36 UNL     1      19.962  10.899   6.561  1.00  0.00     0.149 C 
BRANCH  48  49
HETATM   49  O4  UNL     1      19.730  11.106   5.214  1.00  0.00    -0.393 OA
ATOM     50  H4  UNL     1      18.800  10.986   5.061  1.00  0.00     0.210 HD
ENDBRANCH  48  49
ENDBRANCH  38  40
ENDBRANCH  28  36
ENDBRANCH  27  28
ENDBRANCH   1  27
TORSDOF 14
ENDMDL
