MODEL 2
REMARK VINA RESULT: -10.167510025      1.486      4.386
REMARK  14 active torsions:
REMARK  status: ('A' for Active; 'I' for Inactive)
REMARK    1  A    between atoms: C2_2  and  N1_5 
REMARK       I    between atoms: N1_5  and  C5_7 
REMARK    2  A    between atoms: C5_7  and  C6_9 
REMARK    3  A    between atoms: N2_11  and  C8_12 
REMARK    4  A    between atoms: C8_12  and  C9_13 
REMARK    5  A    between atoms: N4_22  and  C16_23 
REMARK    6  A    between atoms: C16_23  and  C17_24 
REMARK    7  A    between atoms: C17_24  and  O2_25 
REMARK    8  A    between atoms: C17_24  and  C18_27 
REMARK    9  A    between atoms: C18_27  and  C19_28 
REMARK   10  A    between atoms: C19_28  and  C20_29 
REMARK   11  A    between atoms: C19_28  and  C27_36 
REMARK   12  A    between atoms: C20_29  and  C21_30 
REMARK       I    between atoms: C27_36  and  N5_38 
REMARK   13  A    between atoms: N5_38  and  C28_40 
REMARK   14  A    between atoms: C36_48  and  O4_49 
ROOT
HETATM    1  C17 UNL     1      23.749  15.718   4.765  1.00  0.00     0.147 C 
ENDROOT
BRANCH   1   2
HETATM    2  C16 UNL     1      23.315  17.019   4.148  1.00  0.00     0.305 C 
BRANCH   2   3
HETATM    3  N4  UNL     1      23.619  18.191   4.894  1.00  0.00     0.108 N 
HETATM    4  C6  UNL     1      24.805  18.897   4.557  1.00  0.00     0.342 C 
HETATM    5  C7  UNL     1      24.681  19.831   3.408  1.00  0.00     0.318 C 
HETATM    6  N2  UNL     1      23.486  20.606   3.335  1.00  0.00     0.097 N 
HETATM    7  C14 UNL     1      22.307  19.799   3.588  1.00  0.00     0.303 C 
HETATM    8  C15 UNL     1      22.452  19.056   4.871  1.00  0.00     0.303 C 
BRANCH   4   9
HETATM    9  C5  UNL     1      25.313  19.575   5.808  1.00  0.00     0.253 C 
HETATM   10  N1  UNL     1      25.318  18.868   7.040  1.00  0.00    -0.351 N 
ATOM     11  H1  UNL     1      24.983  17.906   7.077  1.00  0.00     0.163 HD
HETATM   12  O1  UNL     1      25.730  20.762   5.769  1.00  0.00    -0.271 OA
BRANCH  10  13
HETATM   13  C2  UNL     1      25.797  19.514   8.243  1.00  0.00     0.022 C 
HETATM   14  C1  UNL     1      27.145  20.152   8.017  1.00  0.00     0.037 C 
HETATM   15  C3  UNL     1      25.962  18.464   9.331  1.00  0.00     0.037 C 
HETATM   16  C4  UNL     1      24.817  20.572   8.729  1.00  0.00     0.037 C 
ENDBRANCH  10  13
ENDBRANCH   4   9
BRANCH   6  17
HETATM   17  C8  UNL     1      23.492  21.823   4.092  1.00  0.00     0.312 C 
BRANCH  17  18
HETATM   18  C9  UNL     1      23.824  22.967   3.168  1.00  0.00    -0.015 A 
HETATM   19  C10 UNL     1      23.390  22.969   1.865  1.00  0.00     0.011 A 
HETATM   20  C11 UNL     1      23.699  24.015   1.038  1.00  0.00     0.018 A 
HETATM   21  C12 UNL     1      24.446  25.062   1.518  1.00  0.00     0.087 A 
HETATM   22  N3  UNL     1      24.872  25.063   2.793  1.00  0.00    -0.375 N 
HETATM   23  C13 UNL     1      24.571  24.034   3.615  1.00  0.00     0.096 A 
ATOM     24  H3  UNL     1      25.426  25.845   3.142  1.00  0.00     0.164 HD
ENDBRANCH  17  18
ENDBRANCH   6  17
ENDBRANCH   2   3
ENDBRANCH   1   2
BRANCH   1  25
HETATM   25  O2  UNL     1      25.164  15.703   4.645  1.00  0.00    -0.394 OA
ATOM     26  H2  UNL     1      25.473  15.218   5.400  1.00  0.00     0.210 HD
ENDBRANCH   1  25
BRANCH   1  27
HETATM   27  C18 UNL     1      23.508  15.733   6.255  1.00  0.00     0.047 C 
BRANCH  27  28
HETATM   28  C19 UNL     1      22.614  14.634   6.765  1.00  0.00     0.084 C 
BRANCH  28  29
HETATM   29  C20 UNL     1      22.725  14.358   8.199  1.00  0.00     0.052 C 
BRANCH  29  30
HETATM   30  C21 UNL     1      21.767  13.395   8.758  1.00  0.00    -0.057 A 
HETATM   31  C22 UNL     1      22.007  12.044   8.477  1.00  0.00     0.007 A 
HETATM   32  C23 UNL     1      21.199  11.040   8.976  1.00  0.00     0.001 A 
HETATM   33  C24 UNL     1      20.119  11.341   9.776  1.00  0.00     0.000 A 
HETATM   34  C25 UNL     1      19.876  12.667  10.057  1.00  0.00     0.001 A 
HETATM   35  C26 UNL     1      20.692  13.687   9.554  1.00  0.00     0.007 A 
ENDBRANCH  29  30
ENDBRANCH  28  29
BRANCH  28  36
HETATM   36  C27 UNL     1      21.231  14.775   6.303  1.00  0.00     0.222 C 
HETATM   37  O3  UNL     1      20.570  15.799   6.514  1.00  0.00    -0.273 OA
HETATM   38  N5  UNL     1      20.563  13.740   5.580  1.00  0.00    -0.350 N 
ATOM     39  H5  UNL     1      21.060  12.874   5.375  1.00  0.00     0.163 HD
BRANCH  38  40
HETATM   40  C28 UNL     1      19.211  13.895   5.138  1.00  0.00     0.147 C 
HETATM   41  C29 UNL     1      19.077  13.911   3.674  1.00  0.00    -0.027 A 
HETATM   42  C30 UNL     1      19.209  14.930   2.764  1.00  0.00     0.010 A 
HETATM   43  C34 UNL     1      18.768  12.646   3.239  1.00  0.00    -0.047 A 
HETATM   44  C31 UNL     1      19.035  14.700   1.423  1.00  0.00     0.001 A 
HETATM   45  C32 UNL     1      18.724  13.418   1.004  1.00  0.00     0.001 A 
HETATM   46  C33 UNL     1      18.583  12.360   1.900  1.00  0.00     0.008 A 
HETATM   47  C35 UNL     1      18.678  11.715   4.405  1.00  0.00     0.073 C 
HETATM   48  C36 UNL     1      18.434  12.661   5.562  1.00  0.00     0.149 C 
BRANCH  48  49
HETATM   49  O4  UNL     1      19.058  12.137   6.680  1.00  0.00    -0.393 OA
ATOM     50  H4  UNL     1      18.471  11.494   7.062  1.00  0.00     0.210 HD
ENDBRANCH  48  49
ENDBRANCH  38  40
ENDBRANCH  28  36
ENDBRANCH  27  28
ENDBRANCH   1  27
TORSDOF 14
ENDMDL
