MODEL 5
REMARK VINA RESULT: -9.957321082      1.846      3.959
REMARK  14 active torsions:
REMARK  status: ('A' for Active; 'I' for Inactive)
REMARK    1  A    between atoms: C2_2  and  N1_5 
REMARK       I    between atoms: N1_5  and  C5_7 
REMARK    2  A    between atoms: C5_7  and  C6_9 
REMARK    3  A    between atoms: N2_11  and  C8_12 
REMARK    4  A    between atoms: C8_12  and  C9_13 
REMARK    5  A    between atoms: N4_22  and  C16_23 
REMARK    6  A    between atoms: C16_23  and  C17_24 
REMARK    7  A    between atoms: C17_24  and  O2_25 
REMARK    8  A    between atoms: C17_24  and  C18_27 
REMARK    9  A    between atoms: C18_27  and  C19_28 
REMARK   10  A    between atoms: C19_28  and  C20_29 
REMARK   11  A    between atoms: C19_28  and  C27_36 
REMARK   12  A    between atoms: C20_29  and  C21_30 
REMARK       I    between atoms: C27_36  and  N5_38 
REMARK   13  A    between atoms: N5_38  and  C28_40 
REMARK   14  A    between atoms: C36_48  and  O4_49 
ROOT
HETATM    1  C17 UNL     1      21.532  16.027   4.277  1.00  0.00     0.147 C 
ENDROOT
BRANCH   1   2
HETATM    2  C16 UNL     1      22.485  16.745   5.191  1.00  0.00     0.305 C 
BRANCH   2   3
HETATM    3  N4  UNL     1      23.276  17.761   4.589  1.00  0.00     0.108 N 
HETATM    4  C6  UNL     1      23.068  19.100   5.019  1.00  0.00     0.342 C 
HETATM    5  C7  UNL     1      23.780  19.481   6.266  1.00  0.00     0.318 C 
HETATM    6  N2  UNL     1      25.118  19.011   6.412  1.00  0.00     0.097 N 
HETATM    7  C14 UNL     1      25.236  17.610   6.054  1.00  0.00     0.303 C 
HETATM    8  C15 UNL     1      24.671  17.372   4.696  1.00  0.00     0.303 C 
BRANCH   4   9
HETATM    9  C5  UNL     1      23.388  20.015   3.860  1.00  0.00     0.253 C 
HETATM   10  N1  UNL     1      23.712  21.376   4.106  1.00  0.00    -0.351 N 
ATOM     11  H1  UNL     1      23.732  21.731   5.062  1.00  0.00     0.163 HD
HETATM   12  O1  UNL     1      23.368  19.583   2.679  1.00  0.00    -0.271 OA
BRANCH  10  13
HETATM   13  C2  UNL     1      24.015  22.258   3.000  1.00  0.00     0.022 C 
HETATM   14  C1  UNL     1      25.184  21.744   2.197  1.00  0.00     0.037 C 
HETATM   15  C3  UNL     1      24.400  23.623   3.552  1.00  0.00     0.037 C 
HETATM   16  C4  UNL     1      22.811  22.425   2.082  1.00  0.00     0.037 C 
ENDBRANCH  10  13
ENDBRANCH   4   9
BRANCH   6  17
HETATM   17  C8  UNL     1      26.129  19.821   5.800  1.00  0.00     0.312 C 
BRANCH  17  18
HETATM   18  C9  UNL     1      26.423  20.993   6.701  1.00  0.00    -0.015 A 
HETATM   19  C10 UNL     1      26.628  20.813   8.047  1.00  0.00     0.011 A 
HETATM   20  C11 UNL     1      26.894  21.886   8.854  1.00  0.00     0.018 A 
HETATM   21  C12 UNL     1      26.954  23.145   8.310  1.00  0.00     0.087 A 
HETATM   22  N3  UNL     1      26.753  23.325   6.993  1.00  0.00    -0.375 N 
HETATM   23  C13 UNL     1      26.490  22.270   6.191  1.00  0.00     0.096 A 
ATOM     24  H3  UNL     1      26.800  24.263   6.596  1.00  0.00     0.164 HD
ENDBRANCH  17  18
ENDBRANCH   6  17
ENDBRANCH   2   3
ENDBRANCH   1   2
BRANCH   1  25
HETATM   25  O2  UNL     1      22.162  16.031   3.004  1.00  0.00    -0.394 OA
ATOM     26  H2  UNL     1      22.483  15.146   2.882  1.00  0.00     0.210 HD
ENDBRANCH   1  25
BRANCH   1  27
HETATM   27  C18 UNL     1      21.451  14.564   4.640  1.00  0.00     0.047 C 
BRANCH  27  28
HETATM   28  C19 UNL     1      20.225  14.169   5.419  1.00  0.00     0.084 C 
BRANCH  28  29
HETATM   29  C20 UNL     1      19.515  12.995   4.907  1.00  0.00     0.052 C 
BRANCH  29  30
HETATM   30  C21 UNL     1      18.908  13.124   3.576  1.00  0.00    -0.057 A 
HETATM   31  C22 UNL     1      17.937  12.171   3.239  1.00  0.00     0.007 A 
HETATM   32  C23 UNL     1      17.267  12.207   2.031  1.00  0.00     0.001 A 
HETATM   33  C24 UNL     1      17.537  13.194   1.108  1.00  0.00     0.000 A 
HETATM   34  C25 UNL     1      18.490  14.134   1.431  1.00  0.00     0.001 A 
HETATM   35  C26 UNL     1      19.171  14.102   2.654  1.00  0.00     0.007 A 
ENDBRANCH  29  30
ENDBRANCH  28  29
BRANCH  28  36
HETATM   36  C27 UNL     1      20.466  14.122   6.863  1.00  0.00     0.222 C 
HETATM   37  O3  UNL     1      21.185  14.950   7.435  1.00  0.00    -0.273 OA
HETATM   38  N5  UNL     1      19.887  13.118   7.697  1.00  0.00    -0.350 N 
ATOM     39  H5  UNL     1      19.284  12.409   7.280  1.00  0.00     0.163 HD
BRANCH  38  40
HETATM   40  C28 UNL     1      20.136  13.087   9.106  1.00  0.00     0.147 C 
HETATM   41  C29 UNL     1      19.002  12.570   9.884  1.00  0.00    -0.027 A 
HETATM   42  C30 UNL     1      17.878  13.191  10.368  1.00  0.00     0.010 A 
HETATM   43  C34 UNL     1      19.191  11.229  10.115  1.00  0.00    -0.047 A 
HETATM   44  C31 UNL     1      16.939  12.488  11.081  1.00  0.00     0.001 A 
HETATM   45  C32 UNL     1      17.148  11.138  11.303  1.00  0.00     0.001 A 
HETATM   46  C33 UNL     1      18.278  10.475  10.826  1.00  0.00     0.008 A 
HETATM   47  C35 UNL     1      20.477  10.783   9.496  1.00  0.00     0.073 C 
HETATM   48  C36 UNL     1      21.246  12.082   9.364  1.00  0.00     0.149 C 
BRANCH  48  49
HETATM   49  O4  UNL     1      22.017  12.005   8.219  1.00  0.00    -0.393 OA
ATOM     50  H4  UNL     1      21.664  11.307   7.680  1.00  0.00     0.210 HD
ENDBRANCH  48  49
ENDBRANCH  38  40
ENDBRANCH  28  36
ENDBRANCH  27  28
ENDBRANCH   1  27
TORSDOF 14
ENDMDL
