MODEL 17
REMARK VINA RESULT: -9.672726022      2.285      9.818
REMARK  14 active torsions:
REMARK  status: ('A' for Active; 'I' for Inactive)
REMARK    1  A    between atoms: C2_2  and  N1_5 
REMARK       I    between atoms: N1_5  and  C5_7 
REMARK    2  A    between atoms: C5_7  and  C6_9 
REMARK    3  A    between atoms: N2_11  and  C8_12 
REMARK    4  A    between atoms: C8_12  and  C9_13 
REMARK    5  A    between atoms: N4_22  and  C16_23 
REMARK    6  A    between atoms: C16_23  and  C17_24 
REMARK    7  A    between atoms: C17_24  and  O2_25 
REMARK    8  A    between atoms: C17_24  and  C18_27 
REMARK    9  A    between atoms: C18_27  and  C19_28 
REMARK   10  A    between atoms: C19_28  and  C20_29 
REMARK   11  A    between atoms: C19_28  and  C27_36 
REMARK   12  A    between atoms: C20_29  and  C21_30 
REMARK       I    between atoms: C27_36  and  N5_38 
REMARK   13  A    between atoms: N5_38  and  C28_40 
REMARK   14  A    between atoms: C36_48  and  O4_49 
ROOT
HETATM    1  C17 UNL     1      20.886  30.279  15.746  1.00  0.00     0.147 C 
ENDROOT
BRANCH   1   2
HETATM    2  C16 UNL     1      21.531  31.635  15.829  1.00  0.00     0.305 C 
BRANCH   2   3
HETATM    3  N4  UNL     1      20.649  32.747  15.744  1.00  0.00     0.108 N 
HETATM    4  C6  UNL     1      20.311  33.414  16.952  1.00  0.00     0.342 C 
HETATM    5  C7  UNL     1      21.303  34.417  17.420  1.00  0.00     0.318 C 
HETATM    6  N2  UNL     1      21.893  35.250  16.425  1.00  0.00     0.097 N 
HETATM    7  C14 UNL     1      22.308  34.487  15.263  1.00  0.00     0.303 C 
HETATM    8  C15 UNL     1      21.176  33.666  14.750  1.00  0.00     0.303 C 
BRANCH   4   9
HETATM    9  C5  UNL     1      18.926  33.995  16.789  1.00  0.00     0.253 C 
HETATM   10  N1  UNL     1      17.927  33.255  16.102  1.00  0.00    -0.351 N 
ATOM     11  H1  UNL     1      18.145  32.333  15.725  1.00  0.00     0.163 HD
HETATM   12  O1  UNL     1      18.649  35.132  17.254  1.00  0.00    -0.271 OA
BRANCH  10  13
HETATM   13  C2  UNL     1      16.600  33.809  15.938  1.00  0.00     0.022 C 
HETATM   14  C1  UNL     1      15.999  34.186  17.269  1.00  0.00     0.037 C 
HETATM   15  C3  UNL     1      15.702  32.753  15.310  1.00  0.00     0.037 C 
HETATM   16  C4  UNL     1      16.621  35.033  15.032  1.00  0.00     0.037 C 
ENDBRANCH  10  13
ENDBRANCH   4   9
BRANCH   6  17
HETATM   17  C8  UNL     1      21.145  36.420  16.074  1.00  0.00     0.312 C 
BRANCH  17  18
HETATM   18  C9  UNL     1      22.012  37.634  16.292  1.00  0.00    -0.015 A 
HETATM   19  C10 UNL     1      22.756  37.772  17.438  1.00  0.00     0.011 A 
HETATM   20  C11 UNL     1      23.539  38.880  17.622  1.00  0.00     0.018 A 
HETATM   21  C12 UNL     1      23.576  39.852  16.655  1.00  0.00     0.087 A 
HETATM   22  N3  UNL     1      22.849  39.721  15.532  1.00  0.00    -0.375 N 
HETATM   23  C13 UNL     1      22.074  38.630  15.343  1.00  0.00     0.096 A 
ATOM     24  H3  UNL     1      22.883  40.448  14.818  1.00  0.00     0.164 HD
ENDBRANCH  17  18
ENDBRANCH   6  17
ENDBRANCH   2   3
ENDBRANCH   1   2
BRANCH   1  25
HETATM   25  O2  UNL     1      20.507  29.964  17.078  1.00  0.00    -0.394 OA
ATOM     26  H2  UNL     1      20.716  29.044  17.186  1.00  0.00     0.210 HD
ENDBRANCH   1  25
BRANCH   1  27
HETATM   27  C18 UNL     1      19.576  30.361  15.002  1.00  0.00     0.047 C 
BRANCH  27  28
HETATM   28  C19 UNL     1      19.410  29.355  13.894  1.00  0.00     0.084 C 
BRANCH  28  29
HETATM   29  C20 UNL     1      18.044  29.208  13.387  1.00  0.00     0.052 C 
BRANCH  29  30
HETATM   30  C21 UNL     1      17.841  28.218  12.322  1.00  0.00    -0.057 A 
HETATM   31  C22 UNL     1      18.045  26.877  12.670  1.00  0.00     0.007 A 
HETATM   32  C23 UNL     1      17.851  25.850  11.767  1.00  0.00     0.001 A 
HETATM   33  C24 UNL     1      17.446  26.117  10.477  1.00  0.00     0.000 A 
HETATM   34  C25 UNL     1      17.243  27.433  10.126  1.00  0.00     0.001 A 
HETATM   35  C26 UNL     1      17.438  28.477  11.038  1.00  0.00     0.007 A 
ENDBRANCH  29  30
ENDBRANCH  28  29
BRANCH  28  36
HETATM   36  C27 UNL     1      20.411  29.512  12.837  1.00  0.00     0.222 C 
HETATM   37  O3  UNL     1      20.482  30.536  12.147  1.00  0.00    -0.273 OA
HETATM   38  N5  UNL     1      21.367  28.494  12.539  1.00  0.00    -0.350 N 
ATOM     39  H5  UNL     1      21.358  27.628  13.077  1.00  0.00     0.163 HD
BRANCH  38  40
HETATM   40  C28 UNL     1      22.337  28.665  11.501  1.00  0.00     0.147 C 
HETATM   41  C29 UNL     1      23.716  28.419  11.949  1.00  0.00    -0.027 A 
HETATM   42  C30 UNL     1      24.626  29.239  12.567  1.00  0.00     0.010 A 
HETATM   43  C34 UNL     1      24.057  27.122  11.655  1.00  0.00    -0.047 A 
HETATM   44  C31 UNL     1      25.876  28.777  12.895  1.00  0.00     0.001 A 
HETATM   45  C32 UNL     1      26.202  27.467  12.591  1.00  0.00     0.001 A 
HETATM   46  C33 UNL     1      25.301  26.607  11.964  1.00  0.00     0.008 A 
HETATM   47  C35 UNL     1      22.910  26.432  10.988  1.00  0.00     0.073 C 
HETATM   48  C36 UNL     1      22.097  27.592  10.453  1.00  0.00     0.149 C 
BRANCH  48  49
HETATM   49  O4  UNL     1      20.761  27.240  10.513  1.00  0.00    -0.393 OA
ATOM     50  H4  UNL     1      20.687  26.493  11.096  1.00  0.00     0.210 HD
ENDBRANCH  48  49
ENDBRANCH  38  40
ENDBRANCH  28  36
ENDBRANCH  27  28
ENDBRANCH   1  27
TORSDOF 14
ENDMDL
