MODEL 2
REMARK VINA RESULT: -10.310449875      0.690      1.042
REMARK  14 active torsions:
REMARK  status: ('A' for Active; 'I' for Inactive)
REMARK    1  A    between atoms: C2_2  and  N1_5 
REMARK       I    between atoms: N1_5  and  C5_7 
REMARK    2  A    between atoms: C5_7  and  C6_9 
REMARK    3  A    between atoms: N2_11  and  C8_12 
REMARK    4  A    between atoms: C8_12  and  C9_13 
REMARK    5  A    between atoms: N4_22  and  C16_23 
REMARK    6  A    between atoms: C16_23  and  C17_24 
REMARK    7  A    between atoms: C17_24  and  O2_25 
REMARK    8  A    between atoms: C17_24  and  C18_27 
REMARK    9  A    between atoms: C18_27  and  C19_28 
REMARK   10  A    between atoms: C19_28  and  C20_29 
REMARK   11  A    between atoms: C19_28  and  C27_36 
REMARK   12  A    between atoms: C20_29  and  C21_30 
REMARK       I    between atoms: C27_36  and  N5_38 
REMARK   13  A    between atoms: N5_38  and  C28_40 
REMARK   14  A    between atoms: C36_48  and  O4_49 
ROOT
HETATM    1  C17 UNL     1      20.842  31.269  16.419  1.00  0.00     0.147 C 
ENDROOT
BRANCH   1   2
HETATM    2  C16 UNL     1      21.111  31.077  14.952  1.00  0.00     0.305 C 
BRANCH   2   3
HETATM    3  N4  UNL     1      20.564  29.901  14.370  1.00  0.00     0.108 N 
HETATM    4  C6  UNL     1      20.274  29.927  12.979  1.00  0.00     0.342 C 
HETATM    5  C7  UNL     1      21.432  29.660  12.087  1.00  0.00     0.318 C 
HETATM    6  N2  UNL     1      22.329  28.627  12.489  1.00  0.00     0.097 N 
HETATM    7  C14 UNL     1      22.662  28.723  13.898  1.00  0.00     0.303 C 
HETATM    8  C15 UNL     1      21.421  28.782  14.721  1.00  0.00     0.303 C 
BRANCH   4   9
HETATM    9  C5  UNL     1      19.116  28.990  12.729  1.00  0.00     0.253 C 
HETATM   10  N1  UNL     1      18.795  28.605  11.400  1.00  0.00    -0.351 N 
ATOM     11  H1  UNL     1      19.349  28.958  10.619  1.00  0.00     0.163 HD
HETATM   12  O1  UNL     1      18.429  28.550  13.687  1.00  0.00    -0.271 OA
BRANCH  10  13
HETATM   13  C2  UNL     1      17.684  27.713  11.153  1.00  0.00     0.022 C 
HETATM   14  C1  UNL     1      17.791  26.464  11.993  1.00  0.00     0.037 C 
HETATM   15  C3  UNL     1      17.711  27.287   9.692  1.00  0.00     0.037 C 
HETATM   16  C4  UNL     1      16.353  28.396  11.438  1.00  0.00     0.037 C 
ENDBRANCH  10  13
ENDBRANCH   4   9
BRANCH   6  17
HETATM   17  C8  UNL     1      21.955  27.298  12.103  1.00  0.00     0.312 C 
BRANCH  17  18
HETATM   18  C9  UNL     1      22.896  26.823  11.026  1.00  0.00    -0.015 A 
HETATM   19  C10 UNL     1      24.087  27.466  10.797  1.00  0.00     0.011 A 
HETATM   20  C11 UNL     1      24.933  27.024   9.815  1.00  0.00     0.018 A 
HETATM   21  C12 UNL     1      24.582  25.933   9.060  1.00  0.00     0.087 A 
HETATM   22  N3  UNL     1      23.417  25.301   9.281  1.00  0.00    -0.375 N 
HETATM   23  C13 UNL     1      22.577  25.732  10.248  1.00  0.00     0.096 A 
ATOM     24  H3  UNL     1      23.164  24.491   8.716  1.00  0.00     0.164 HD
ENDBRANCH  17  18
ENDBRANCH   6  17
ENDBRANCH   2   3
ENDBRANCH   1   2
BRANCH   1  25
HETATM   25  O2  UNL     1      21.933  32.041  16.900  1.00  0.00    -0.394 OA
ATOM     26  H2  UNL     1      22.115  31.702  17.768  1.00  0.00     0.210 HD
ENDBRANCH   1  25
BRANCH   1  27
HETATM   27  C18 UNL     1      19.643  32.163  16.624  1.00  0.00     0.047 C 
BRANCH  27  28
HETATM   28  C19 UNL     1      19.758  33.531  16.004  1.00  0.00     0.084 C 
BRANCH  28  29
HETATM   29  C20 UNL     1      18.886  33.765  14.851  1.00  0.00     0.052 C 
BRANCH  29  30
HETATM   30  C21 UNL     1      17.610  33.039  14.834  1.00  0.00    -0.057 A 
HETATM   31  C22 UNL     1      16.449  33.822  14.789  1.00  0.00     0.007 A 
HETATM   32  C23 UNL     1      15.189  33.257  14.732  1.00  0.00     0.001 A 
HETATM   33  C24 UNL     1      15.034  31.887  14.719  1.00  0.00     0.000 A 
HETATM   34  C25 UNL     1      16.171  31.111  14.764  1.00  0.00     0.001 A 
HETATM   35  C26 UNL     1      17.449  31.679  14.821  1.00  0.00     0.007 A 
ENDBRANCH  29  30
ENDBRANCH  28  29
BRANCH  28  36
HETATM   36  C27 UNL     1      19.711  34.605  16.999  1.00  0.00     0.222 C 
HETATM   37  O3  UNL     1      20.634  34.800  17.799  1.00  0.00    -0.273 OA
HETATM   38  N5  UNL     1      18.597  35.492  17.107  1.00  0.00    -0.350 N 
ATOM     39  H5  UNL     1      17.806  35.380  16.472  1.00  0.00     0.163 HD
BRANCH  38  40
HETATM   40  C28 UNL     1      18.568  36.534  18.086  1.00  0.00     0.147 C 
HETATM   41  C29 UNL     1      18.957  37.847  17.549  1.00  0.00    -0.027 A 
HETATM   42  C30 UNL     1      20.190  38.420  17.366  1.00  0.00     0.010 A 
HETATM   43  C34 UNL     1      17.824  38.541  17.200  1.00  0.00    -0.047 A 
HETATM   44  C31 UNL     1      20.305  39.681  16.837  1.00  0.00     0.001 A 
HETATM   45  C32 UNL     1      19.153  40.365  16.491  1.00  0.00     0.001 A 
HETATM   46  C33 UNL     1      17.884  39.812  16.664  1.00  0.00     0.008 A 
HETATM   47  C35 UNL     1      16.612  37.716  17.493  1.00  0.00     0.073 C 
HETATM   48  C36 UNL     1      17.126  36.730  18.521  1.00  0.00     0.149 C 
BRANCH  48  49
HETATM   49  O4  UNL     1      16.464  35.531  18.329  1.00  0.00    -0.393 OA
ATOM     50  H4  UNL     1      16.552  35.023  19.127  1.00  0.00     0.210 HD
ENDBRANCH  48  49
ENDBRANCH  38  40
ENDBRANCH  28  36
ENDBRANCH  27  28
ENDBRANCH   1  27
TORSDOF 14
ENDMDL
