MODEL 3
REMARK VINA RESULT: -10.177609375      2.009      4.681
REMARK  14 active torsions:
REMARK  status: ('A' for Active; 'I' for Inactive)
REMARK    1  A    between atoms: C2_2  and  N1_5 
REMARK       I    between atoms: N1_5  and  C5_7 
REMARK    2  A    between atoms: C5_7  and  C6_9 
REMARK    3  A    between atoms: N2_11  and  C8_12 
REMARK    4  A    between atoms: C8_12  and  C9_13 
REMARK    5  A    between atoms: N4_22  and  C16_23 
REMARK    6  A    between atoms: C16_23  and  C17_24 
REMARK    7  A    between atoms: C17_24  and  O2_25 
REMARK    8  A    between atoms: C17_24  and  C18_27 
REMARK    9  A    between atoms: C18_27  and  C19_28 
REMARK   10  A    between atoms: C19_28  and  C20_29 
REMARK   11  A    between atoms: C19_28  and  C27_36 
REMARK   12  A    between atoms: C20_29  and  C21_30 
REMARK       I    between atoms: C27_36  and  N5_38 
REMARK   13  A    between atoms: N5_38  and  C28_40 
REMARK   14  A    between atoms: C36_48  and  O4_49 
ROOT
HETATM    1  C17 UNL     1      17.212  33.786  15.670  1.00  0.00     0.147 C 
ENDROOT
BRANCH   1   2
HETATM    2  C16 UNL     1      18.554  33.193  15.342  1.00  0.00     0.305 C 
BRANCH   2   3
HETATM    3  N4  UNL     1      18.559  31.807  15.024  1.00  0.00     0.108 N 
HETATM    4  C6  UNL     1      19.071  31.424  13.755  1.00  0.00     0.342 C 
HETATM    5  C7  UNL     1      20.550  31.302  13.680  1.00  0.00     0.318 C 
HETATM    6  N2  UNL     1      21.203  30.695  14.792  1.00  0.00     0.097 N 
HETATM    7  C14 UNL     1      20.703  31.209  16.054  1.00  0.00     0.303 C 
HETATM    8  C15 UNL     1      19.219  31.098  16.107  1.00  0.00     0.303 C 
BRANCH   4   9
HETATM    9  C5  UNL     1      18.359  30.160  13.330  1.00  0.00     0.253 C 
HETATM   10  N1  UNL     1      18.808  29.449  12.185  1.00  0.00    -0.351 N 
ATOM     11  H1  UNL     1      19.610  29.790  11.656  1.00  0.00     0.163 HD
HETATM   12  O1  UNL     1      17.370  29.733  13.980  1.00  0.00    -0.271 OA
BRANCH  10  13
HETATM   13  C2  UNL     1      18.126  28.242  11.770  1.00  0.00     0.022 C 
HETATM   14  C1  UNL     1      18.210  27.177  12.835  1.00  0.00     0.037 C 
HETATM   15  C3  UNL     1      18.807  27.699  10.523  1.00  0.00     0.037 C 
HETATM   16  C4  UNL     1      16.664  28.517  11.449  1.00  0.00     0.037 C 
ENDBRANCH  10  13
ENDBRANCH   4   9
BRANCH   6  17
HETATM   17  C8  UNL     1      21.264  29.264  14.769  1.00  0.00     0.312 C 
BRANCH  17  18
HETATM   18  C9  UNL     1      22.290  28.839  13.749  1.00  0.00    -0.015 A 
HETATM   19  C10 UNL     1      23.570  29.336  13.787  1.00  0.00     0.011 A 
HETATM   20  C11 UNL     1      24.491  28.942  12.855  1.00  0.00     0.018 A 
HETATM   21  C12 UNL     1      24.129  28.046  11.881  1.00  0.00     0.087 A 
HETATM   22  N3  UNL     1      22.877  27.557  11.840  1.00  0.00    -0.375 N 
HETATM   23  C13 UNL     1      21.963  27.942  12.757  1.00  0.00     0.096 A 
ATOM     24  H3  UNL     1      22.616  26.892  11.113  1.00  0.00     0.164 HD
ENDBRANCH  17  18
ENDBRANCH   6  17
ENDBRANCH   2   3
ENDBRANCH   1   2
BRANCH   1  25
HETATM   25  O2  UNL     1      16.304  32.694  15.635  1.00  0.00    -0.394 OA
ATOM     26  H2  UNL     1      15.541  32.989  16.118  1.00  0.00     0.210 HD
ENDBRANCH   1  25
BRANCH   1  27
HETATM   27  C18 UNL     1      17.175  34.247  17.107  1.00  0.00     0.047 C 
BRANCH  27  28
HETATM   28  C19 UNL     1      17.581  35.680  17.324  1.00  0.00     0.084 C 
BRANCH  28  29
HETATM   29  C20 UNL     1      16.646  36.477  18.122  1.00  0.00     0.052 C 
BRANCH  29  30
HETATM   30  C21 UNL     1      16.876  37.927  18.150  1.00  0.00    -0.057 A 
HETATM   31  C22 UNL     1      16.890  38.579  16.910  1.00  0.00     0.007 A 
HETATM   32  C23 UNL     1      17.060  39.946  16.806  1.00  0.00     0.001 A 
HETATM   33  C24 UNL     1      17.225  40.721  17.934  1.00  0.00     0.000 A 
HETATM   34  C25 UNL     1      17.213  40.087  19.157  1.00  0.00     0.001 A 
HETATM   35  C26 UNL     1      17.039  38.702  19.267  1.00  0.00     0.007 A 
ENDBRANCH  29  30
ENDBRANCH  28  29
BRANCH  28  36
HETATM   36  C27 UNL     1      18.975  35.811  17.756  1.00  0.00     0.222 C 
HETATM   37  O3  UNL     1      19.372  35.361  18.837  1.00  0.00    -0.273 OA
HETATM   38  N5  UNL     1      19.959  36.464  16.954  1.00  0.00    -0.350 N 
ATOM     39  H5  UNL     1      19.690  36.854  16.051  1.00  0.00     0.163 HD
BRANCH  38  40
HETATM   40  C28 UNL     1      21.316  36.584  17.393  1.00  0.00     0.147 C 
HETATM   41  C29 UNL     1      22.173  35.480  16.937  1.00  0.00    -0.027 A 
HETATM   42  C30 UNL     1      22.396  34.231  17.460  1.00  0.00     0.010 A 
HETATM   43  C34 UNL     1      22.818  35.860  15.785  1.00  0.00    -0.047 A 
HETATM   44  C31 UNL     1      23.256  33.356  16.846  1.00  0.00     0.001 A 
HETATM   45  C32 UNL     1      23.896  33.757  15.686  1.00  0.00     0.001 A 
HETATM   46  C33 UNL     1      23.693  35.018  15.127  1.00  0.00     0.008 A 
HETATM   47  C35 UNL     1      22.418  37.252  15.415  1.00  0.00     0.073 C 
HETATM   48  C36 UNL     1      21.918  37.811  16.731  1.00  0.00     0.149 C 
BRANCH  48  49
HETATM   49  O4  UNL     1      20.884  38.688  16.455  1.00  0.00    -0.393 OA
ATOM     50  H4  UNL     1      20.682  39.155  17.257  1.00  0.00     0.210 HD
ENDBRANCH  48  49
ENDBRANCH  38  40
ENDBRANCH  28  36
ENDBRANCH  27  28
ENDBRANCH   1  27
TORSDOF 14
ENDMDL
