MODEL 20
REMARK VINA RESULT: -9.585783509      2.146     10.001
REMARK  14 active torsions:
REMARK  status: ('A' for Active; 'I' for Inactive)
REMARK    1  A    between atoms: C2_2  and  N1_5 
REMARK       I    between atoms: N1_5  and  C5_7 
REMARK    2  A    between atoms: C5_7  and  C6_9 
REMARK    3  A    between atoms: N2_11  and  C8_12 
REMARK    4  A    between atoms: C8_12  and  C9_13 
REMARK    5  A    between atoms: N4_22  and  C16_23 
REMARK    6  A    between atoms: C16_23  and  C17_24 
REMARK    7  A    between atoms: C17_24  and  O2_25 
REMARK    8  A    between atoms: C17_24  and  C18_27 
REMARK    9  A    between atoms: C18_27  and  C19_28 
REMARK   10  A    between atoms: C19_28  and  C20_29 
REMARK   11  A    between atoms: C19_28  and  C27_36 
REMARK   12  A    between atoms: C20_29  and  C21_30 
REMARK       I    between atoms: C27_36  and  N5_38 
REMARK   13  A    between atoms: N5_38  and  C28_40 
REMARK   14  A    between atoms: C36_48  and  O4_49 
ROOT
HETATM    1  C17 UNL     1      21.256  31.212  15.804  1.00  0.00     0.147 C 
ENDROOT
BRANCH   1   2
HETATM    2  C16 UNL     1      21.794  32.584  16.102  1.00  0.00     0.305 C 
BRANCH   2   3
HETATM    3  N4  UNL     1      20.832  33.629  16.162  1.00  0.00     0.108 N 
HETATM    4  C6  UNL     1      20.470  34.118  17.446  1.00  0.00     0.342 C 
HETATM    5  C7  UNL     1      21.395  35.128  18.022  1.00  0.00     0.318 C 
HETATM    6  N2  UNL     1      21.903  36.118  17.130  1.00  0.00     0.097 N 
HETATM    7  C14 UNL     1      22.349  35.535  15.879  1.00  0.00     0.303 C 
HETATM    8  C15 UNL     1      21.270  34.699  15.282  1.00  0.00     0.303 C 
BRANCH   4   9
HETATM    9  C5  UNL     1      19.043  34.609  17.370  1.00  0.00     0.253 C 
HETATM   10  N1  UNL     1      18.300  34.434  16.172  1.00  0.00    -0.351 N 
ATOM     11  H1  UNL     1      18.729  33.974  15.369  1.00  0.00     0.163 HD
HETATM   12  O1  UNL     1      18.506  35.175  18.358  1.00  0.00    -0.271 OA
BRANCH  10  13
HETATM   13  C2  UNL     1      16.935  34.907  16.092  1.00  0.00     0.022 C 
HETATM   14  C1  UNL     1      16.020  34.079  16.960  1.00  0.00     0.037 C 
HETATM   15  C3  UNL     1      16.453  34.770  14.655  1.00  0.00     0.037 C 
HETATM   16  C4  UNL     1      16.832  36.369  16.504  1.00  0.00     0.037 C 
ENDBRANCH  10  13
ENDBRANCH   4   9
BRANCH   6  17
HETATM   17  C8  UNL     1      21.063  37.263  16.933  1.00  0.00     0.312 C 
BRANCH  17  18
HETATM   18  C9  UNL     1      21.932  38.450  16.604  1.00  0.00    -0.015 A 
HETATM   19  C10 UNL     1      21.671  39.231  15.504  1.00  0.00     0.011 A 
HETATM   20  C11 UNL     1      22.468  40.306  15.217  1.00  0.00     0.018 A 
HETATM   21  C12 UNL     1      23.530  40.599  16.035  1.00  0.00     0.087 A 
HETATM   22  N3  UNL     1      23.789  39.838  17.112  1.00  0.00    -0.375 N 
HETATM   23  C13 UNL     1      23.007  38.775  17.401  1.00  0.00     0.096 A 
ATOM     24  H3  UNL     1      24.580  40.063  17.714  1.00  0.00     0.164 HD
ENDBRANCH  17  18
ENDBRANCH   6  17
ENDBRANCH   2   3
ENDBRANCH   1   2
BRANCH   1  25
HETATM   25  O2  UNL     1      20.850  30.691  17.062  1.00  0.00    -0.394 OA
ATOM     26  H2  UNL     1      21.656  30.541  17.541  1.00  0.00     0.210 HD
ENDBRANCH   1  25
BRANCH   1  27
HETATM   27  C18 UNL     1      19.972  31.308  15.016  1.00  0.00     0.047 C 
BRANCH  27  28
HETATM   28  C19 UNL     1      19.705  30.147  14.095  1.00  0.00     0.084 C 
BRANCH  28  29
HETATM   29  C20 UNL     1      18.302  29.968  13.713  1.00  0.00     0.052 C 
BRANCH  29  30
HETATM   30  C21 UNL     1      17.976  28.745  12.966  1.00  0.00    -0.057 A 
HETATM   31  C22 UNL     1      17.336  28.921  11.733  1.00  0.00     0.007 A 
HETATM   32  C23 UNL     1      17.011  27.852  10.921  1.00  0.00     0.001 A 
HETATM   33  C24 UNL     1      17.310  26.562  11.305  1.00  0.00     0.000 A 
HETATM   34  C25 UNL     1      17.939  26.381  12.516  1.00  0.00     0.001 A 
HETATM   35  C26 UNL     1      18.271  27.462  13.342  1.00  0.00     0.007 A 
ENDBRANCH  29  30
ENDBRANCH  28  29
BRANCH  28  36
HETATM   36  C27 UNL     1      20.629  30.106  12.959  1.00  0.00     0.222 C 
HETATM   37  O3  UNL     1      20.704  31.030  12.140  1.00  0.00    -0.273 OA
HETATM   38  N5  UNL     1      21.500  28.998  12.729  1.00  0.00    -0.350 N 
ATOM     39  H5  UNL     1      21.483  28.208  13.374  1.00  0.00     0.163 HD
BRANCH  38  40
HETATM   40  C28 UNL     1      22.395  28.975  11.613  1.00  0.00     0.147 C 
HETATM   41  C29 UNL     1      23.766  28.585  11.977  1.00  0.00    -0.027 A 
HETATM   42  C30 UNL     1      24.817  29.322  12.462  1.00  0.00     0.010 A 
HETATM   43  C34 UNL     1      23.921  27.238  11.758  1.00  0.00    -0.047 A 
HETATM   44  C31 UNL     1      26.024  28.727  12.733  1.00  0.00     0.001 A 
HETATM   45  C32 UNL     1      26.161  27.369  12.507  1.00  0.00     0.001 A 
HETATM   46  C33 UNL     1      25.114  26.591  12.014  1.00  0.00     0.008 A 
HETATM   47  C35 UNL     1      22.648  26.658  11.231  1.00  0.00     0.073 C 
HETATM   48  C36 UNL     1      21.941  27.874  10.670  1.00  0.00     0.149 C 
BRANCH  48  49
HETATM   49  O4  UNL     1      20.582  27.699  10.854  1.00  0.00    -0.393 OA
ATOM     50  H4  UNL     1      20.435  26.783  11.059  1.00  0.00     0.210 HD
ENDBRANCH  48  49
ENDBRANCH  38  40
ENDBRANCH  28  36
ENDBRANCH  27  28
ENDBRANCH   1  27
TORSDOF 14
ENDMDL
