MODEL 1
REMARK VINA RESULT: -10.329038793      0.000      0.000
REMARK  14 active torsions:
REMARK  status: ('A' for Active; 'I' for Inactive)
REMARK    1  A    between atoms: C2_2  and  N1_5 
REMARK       I    between atoms: N1_5  and  C5_7 
REMARK    2  A    between atoms: C5_7  and  C6_9 
REMARK    3  A    between atoms: N2_11  and  C8_12 
REMARK    4  A    between atoms: C8_12  and  C9_13 
REMARK    5  A    between atoms: N4_22  and  C16_23 
REMARK    6  A    between atoms: C16_23  and  C17_24 
REMARK    7  A    between atoms: C17_24  and  O2_25 
REMARK    8  A    between atoms: C17_24  and  C18_27 
REMARK    9  A    between atoms: C18_27  and  C19_28 
REMARK   10  A    between atoms: C19_28  and  C20_29 
REMARK   11  A    between atoms: C19_28  and  C27_36 
REMARK   12  A    between atoms: C20_29  and  C21_30 
REMARK       I    between atoms: C27_36  and  N5_38 
REMARK   13  A    between atoms: N5_38  and  C28_40 
REMARK   14  A    between atoms: C36_48  and  O4_49 
ROOT
HETATM    1  C17 UNL     1      21.294  32.095  15.798  1.00  0.00     0.147 C 
ENDROOT
BRANCH   1   2
HETATM    2  C16 UNL     1      21.451  31.657  14.368  1.00  0.00     0.305 C 
BRANCH   2   3
HETATM    3  N4  UNL     1      20.861  30.407  14.034  1.00  0.00     0.108 N 
HETATM    4  C6  UNL     1      20.534  30.177  12.670  1.00  0.00     0.342 C 
HETATM    5  C7  UNL     1      21.660  29.714  11.819  1.00  0.00     0.318 C 
HETATM    6  N2  UNL     1      22.544  28.752  12.388  1.00  0.00     0.097 N 
HETATM    7  C14 UNL     1      22.919  29.104  13.745  1.00  0.00     0.303 C 
HETATM    8  C15 UNL     1      21.704  29.352  14.571  1.00  0.00     0.303 C 
BRANCH   4   9
HETATM    9  C5  UNL     1      19.348  29.242  12.629  1.00  0.00     0.253 C 
HETATM   10  N1  UNL     1      18.968  28.639  11.401  1.00  0.00    -0.351 N 
ATOM     11  H1  UNL     1      19.497  28.835  10.551  1.00  0.00     0.163 HD
HETATM   12  O1  UNL     1      18.692  28.993  13.674  1.00  0.00    -0.271 OA
BRANCH  10  13
HETATM   13  C2  UNL     1      17.830  27.746  11.355  1.00  0.00     0.022 C 
HETATM   14  C1  UNL     1      17.991  26.608  12.331  1.00  0.00     0.037 C 
HETATM   15  C3  UNL     1      17.734  27.146   9.960  1.00  0.00     0.037 C 
HETATM   16  C4  UNL     1      16.535  28.488  11.657  1.00  0.00     0.037 C 
ENDBRANCH  10  13
ENDBRANCH   4   9
BRANCH   6  17
HETATM   17  C8  UNL     1      22.130  27.385  12.271  1.00  0.00     0.312 C 
BRANCH  17  18
HETATM   18  C9  UNL     1      22.894  26.742  11.142  1.00  0.00    -0.015 A 
HETATM   19  C10 UNL     1      24.071  27.285  10.688  1.00  0.00     0.011 A 
HETATM   20  C11 UNL     1      24.754  26.690   9.662  1.00  0.00     0.018 A 
HETATM   21  C12 UNL     1      24.255  25.548   9.087  1.00  0.00     0.087 A 
HETATM   22  N3  UNL     1      23.104  25.014   9.529  1.00  0.00    -0.375 N 
HETATM   23  C13 UNL     1      22.424  25.595  10.542  1.00  0.00     0.096 A 
ATOM     24  H3  UNL     1      22.740  24.164   9.098  1.00  0.00     0.164 HD
ENDBRANCH  17  18
ENDBRANCH   6  17
ENDBRANCH   2   3
ENDBRANCH   1   2
BRANCH   1  25
HETATM   25  O2  UNL     1      22.565  31.882  16.395  1.00  0.00    -0.394 OA
ATOM     26  H2  UNL     1      22.380  31.585  17.277  1.00  0.00     0.210 HD
ENDBRANCH   1  25
BRANCH   1  27
HETATM   27  C18 UNL     1      21.099  33.589  15.875  1.00  0.00     0.047 C 
BRANCH  27  28
HETATM   28  C19 UNL     1      19.715  34.030  16.272  1.00  0.00     0.084 C 
BRANCH  28  29
HETATM   29  C20 UNL     1      18.814  32.952  16.685  1.00  0.00     0.052 C 
BRANCH  29  30
HETATM   30  C21 UNL     1      17.584  32.787  15.899  1.00  0.00    -0.057 A 
HETATM   31  C22 UNL     1      17.250  31.477  15.532  1.00  0.00     0.007 A 
HETATM   32  C23 UNL     1      16.099  31.188  14.824  1.00  0.00     0.001 A 
HETATM   33  C24 UNL     1      15.233  32.193  14.451  1.00  0.00     0.000 A 
HETATM   34  C25 UNL     1      15.555  33.484  14.807  1.00  0.00     0.001 A 
HETATM   35  C26 UNL     1      16.719  33.781  15.525  1.00  0.00     0.007 A 
ENDBRANCH  29  30
ENDBRANCH  28  29
BRANCH  28  36
HETATM   36  C27 UNL     1      19.730  35.165  17.198  1.00  0.00     0.222 C 
HETATM   37  O3  UNL     1      20.591  35.283  18.077  1.00  0.00    -0.273 OA
HETATM   38  N5  UNL     1      18.752  36.204  17.141  1.00  0.00    -0.350 N 
ATOM     39  H5  UNL     1      18.017  36.160  16.435  1.00  0.00     0.163 HD
BRANCH  38  40
HETATM   40  C28 UNL     1      18.781  37.304  18.055  1.00  0.00     0.147 C 
HETATM   41  C29 UNL     1      19.317  38.538  17.461  1.00  0.00    -0.027 A 
HETATM   42  C30 UNL     1      20.606  38.981  17.304  1.00  0.00     0.010 A 
HETATM   43  C34 UNL     1      18.273  39.311  17.018  1.00  0.00    -0.047 A 
HETATM   44  C31 UNL     1      20.865  40.190  16.708  1.00  0.00     0.001 A 
HETATM   45  C32 UNL     1      19.800  40.955  16.267  1.00  0.00     0.001 A 
HETATM   46  C33 UNL     1      18.477  40.535  16.411  1.00  0.00     0.008 A 
HETATM   47  C35 UNL     1      16.975  38.624  17.299  1.00  0.00     0.073 C 
HETATM   48  C36 UNL     1      17.347  37.661  18.407  1.00  0.00     0.149 C 
BRANCH  48  49
HETATM   49  O4  UNL     1      16.582  36.519  18.254  1.00  0.00    -0.393 OA
ATOM     50  H4  UNL     1      15.701  36.722  18.548  1.00  0.00     0.210 HD
ENDBRANCH  48  49
ENDBRANCH  38  40
ENDBRANCH  28  36
ENDBRANCH  27  28
ENDBRANCH   1  27
TORSDOF 14
ENDMDL
