MODEL 3
REMARK VINA RESULT: -10.558291714      2.117     11.125
REMARK  14 active torsions:
REMARK  status: ('A' for Active; 'I' for Inactive)
REMARK    1  A    between atoms: C2_2  and  N1_5 
REMARK       I    between atoms: N1_5  and  C5_7 
REMARK    2  A    between atoms: C5_7  and  C6_9 
REMARK    3  A    between atoms: N2_11  and  C8_12 
REMARK    4  A    between atoms: C8_12  and  C9_13 
REMARK    5  A    between atoms: N4_22  and  C16_23 
REMARK    6  A    between atoms: C16_23  and  C17_24 
REMARK    7  A    between atoms: C17_24  and  O2_25 
REMARK    8  A    between atoms: C17_24  and  C18_27 
REMARK    9  A    between atoms: C18_27  and  C19_28 
REMARK   10  A    between atoms: C19_28  and  C20_29 
REMARK   11  A    between atoms: C19_28  and  C27_36 
REMARK   12  A    between atoms: C20_29  and  C21_30 
REMARK       I    between atoms: C27_36  and  N5_38 
REMARK   13  A    between atoms: N5_38  and  C28_40 
REMARK   14  A    between atoms: C36_48  and  O4_49 
ROOT
HETATM    1  C17 UNL     1      24.746  17.016   5.074  1.00  0.00     0.147 C 
ENDROOT
BRANCH   1   2
HETATM    2  C16 UNL     1      23.294  16.956   5.461  1.00  0.00     0.305 C 
BRANCH   2   3
HETATM    3  N4  UNL     1      22.823  15.692   5.908  1.00  0.00     0.108 N 
HETATM    4  C6  UNL     1      21.565  15.653   6.567  1.00  0.00     0.342 C 
HETATM    5  C7  UNL     1      20.381  15.619   5.670  1.00  0.00     0.318 C 
HETATM    6  N2  UNL     1      20.473  14.788   4.515  1.00  0.00     0.097 N 
HETATM    7  C14 UNL     1      21.743  14.955   3.833  1.00  0.00     0.303 C 
HETATM    8  C15 UNL     1      22.872  14.769   4.787  1.00  0.00     0.303 C 
BRANCH   4   9
HETATM    9  C5  UNL     1      21.589  14.502   7.546  1.00  0.00     0.253 C 
HETATM   10  N1  UNL     1      20.410  13.742   7.770  1.00  0.00    -0.351 N 
ATOM     11  H1  UNL     1      19.552  13.972   7.268  1.00  0.00     0.163 HD
HETATM   12  O1  UNL     1      22.644  14.211   8.166  1.00  0.00    -0.271 OA
BRANCH  10  13
HETATM   13  C2  UNL     1      20.426  12.642   8.710  1.00  0.00     0.022 C 
HETATM   14  C1  UNL     1      21.689  11.828   8.574  1.00  0.00     0.037 C 
HETATM   15  C3  UNL     1      19.252  11.722   8.408  1.00  0.00     0.037 C 
HETATM   16  C4  UNL     1      20.302  13.139  10.143  1.00  0.00     0.037 C 
ENDBRANCH  10  13
ENDBRANCH   4   9
BRANCH   6  17
HETATM   17  C8  UNL     1      20.136  13.410   4.716  1.00  0.00     0.312 C 
BRANCH  17  18
HETATM   18  C9  UNL     1      19.083  13.017   3.711  1.00  0.00    -0.015 A 
HETATM   19  C10 UNL     1      18.857  13.779   2.591  1.00  0.00     0.011 A 
HETATM   20  C11 UNL     1      17.898  13.410   1.687  1.00  0.00     0.018 A 
HETATM   21  C12 UNL     1      17.161  12.274   1.907  1.00  0.00     0.087 A 
HETATM   22  N3  UNL     1      17.378  11.525   3.002  1.00  0.00    -0.375 N 
HETATM   23  C13 UNL     1      18.323  11.883   3.899  1.00  0.00     0.096 A 
ATOM     24  H3  UNL     1      16.826  10.682   3.158  1.00  0.00     0.164 HD
ENDBRANCH  17  18
ENDBRANCH   6  17
ENDBRANCH   2   3
ENDBRANCH   1   2
BRANCH   1  25
HETATM   25  O2  UNL     1      24.748  17.228   3.669  1.00  0.00    -0.394 OA
ATOM     26  H2  UNL     1      25.574  17.660   3.484  1.00  0.00     0.210 HD
ENDBRANCH   1  25
BRANCH   1  27
HETATM   27  C18 UNL     1      25.391  18.261   5.633  1.00  0.00     0.047 C 
BRANCH  27  28
HETATM   28  C19 UNL     1      24.496  19.471   5.685  1.00  0.00     0.084 C 
BRANCH  28  29
HETATM   29  C20 UNL     1      24.209  19.974   7.031  1.00  0.00     0.052 C 
BRANCH  29  30
HETATM   30  C21 UNL     1      25.273  19.815   8.031  1.00  0.00    -0.057 A 
HETATM   31  C22 UNL     1      26.055  20.947   8.294  1.00  0.00     0.007 A 
HETATM   32  C23 UNL     1      27.062  20.935   9.240  1.00  0.00     0.001 A 
HETATM   33  C24 UNL     1      27.332  19.793   9.964  1.00  0.00     0.000 A 
HETATM   34  C25 UNL     1      26.567  18.676   9.711  1.00  0.00     0.001 A 
HETATM   35  C26 UNL     1      25.545  18.684   8.754  1.00  0.00     0.007 A 
ENDBRANCH  29  30
ENDBRANCH  28  29
BRANCH  28  36
HETATM   36  C27 UNL     1      24.909  20.517   4.747  1.00  0.00     0.222 C 
HETATM   37  O3  UNL     1      25.049  20.296   3.538  1.00  0.00    -0.273 OA
HETATM   38  N5  UNL     1      25.173  21.855   5.170  1.00  0.00    -0.350 N 
ATOM     39  H5  UNL     1      25.072  22.097   6.155  1.00  0.00     0.163 HD
BRANCH  38  40
HETATM   40  C28 UNL     1      25.578  22.863   4.238  1.00  0.00     0.147 C 
HETATM   41  C29 UNL     1      24.556  23.899   4.024  1.00  0.00    -0.027 A 
HETATM   42  C30 UNL     1      23.470  23.940   3.187  1.00  0.00     0.010 A 
HETATM   43  C34 UNL     1      24.821  24.965   4.848  1.00  0.00    -0.047 A 
HETATM   44  C31 UNL     1      22.644  25.035   3.163  1.00  0.00     0.001 A 
HETATM   45  C32 UNL     1      22.926  26.099   4.000  1.00  0.00     0.001 A 
HETATM   46  C33 UNL     1      24.021  26.092   4.864  1.00  0.00     0.008 A 
HETATM   47  C35 UNL     1      26.046  24.690   5.660  1.00  0.00     0.073 C 
HETATM   48  C36 UNL     1      26.746  23.622   4.845  1.00  0.00     0.149 C 
BRANCH  48  49
HETATM   49  O4  UNL     1      27.388  22.768   5.723  1.00  0.00    -0.393 OA
ATOM     50  H4  UNL     1      28.245  22.574   5.360  1.00  0.00     0.210 HD
ENDBRANCH  48  49
ENDBRANCH  38  40
ENDBRANCH  28  36
ENDBRANCH  27  28
ENDBRANCH   1  27
TORSDOF 14
ENDMDL
