MODEL 2
REMARK VINA RESULT: -10.588018069      1.856     11.006
REMARK  14 active torsions:
REMARK  status: ('A' for Active; 'I' for Inactive)
REMARK    1  A    between atoms: C2_2  and  N1_5 
REMARK       I    between atoms: N1_5  and  C5_7 
REMARK    2  A    between atoms: C5_7  and  C6_9 
REMARK    3  A    between atoms: N2_11  and  C8_12 
REMARK    4  A    between atoms: C8_12  and  C9_13 
REMARK    5  A    between atoms: N4_22  and  C16_23 
REMARK    6  A    between atoms: C16_23  and  C17_24 
REMARK    7  A    between atoms: C17_24  and  O2_25 
REMARK    8  A    between atoms: C17_24  and  C18_27 
REMARK    9  A    between atoms: C18_27  and  C19_28 
REMARK   10  A    between atoms: C19_28  and  C20_29 
REMARK   11  A    between atoms: C19_28  and  C27_36 
REMARK   12  A    between atoms: C20_29  and  C21_30 
REMARK       I    between atoms: C27_36  and  N5_38 
REMARK   13  A    between atoms: N5_38  and  C28_40 
REMARK   14  A    between atoms: C36_48  and  O4_49 
ROOT
HETATM    1  C17 UNL     1      24.553  16.478   6.533  1.00  0.00     0.147 C 
ENDROOT
BRANCH   1   2
HETATM    2  C16 UNL     1      23.054  16.379   6.478  1.00  0.00     0.305 C 
BRANCH   2   3
HETATM    3  N4  UNL     1      22.511  15.078   6.660  1.00  0.00     0.108 N 
HETATM    4  C6  UNL     1      21.168  14.982   7.115  1.00  0.00     0.342 C 
HETATM    5  C7  UNL     1      20.131  15.113   6.059  1.00  0.00     0.318 C 
HETATM    6  N2  UNL     1      20.388  14.455   4.820  1.00  0.00     0.097 N 
HETATM    7  C14 UNL     1      21.747  14.681   4.364  1.00  0.00     0.303 C 
HETATM    8  C15 UNL     1      22.719  14.325   5.435  1.00  0.00     0.303 C 
BRANCH   4   9
HETATM    9  C5  UNL     1      21.036  13.702   7.907  1.00  0.00     0.253 C 
HETATM   10  N1  UNL     1      19.760  13.098   8.063  1.00  0.00    -0.351 N 
ATOM     11  H1  UNL     1      18.937  13.526   7.638  1.00  0.00     0.163 HD
HETATM   12  O1  UNL     1      22.047  13.166   8.431  1.00  0.00    -0.271 OA
BRANCH  10  13
HETATM   13  C2  UNL     1      19.627  11.875   8.825  1.00  0.00     0.022 C 
HETATM   14  C1  UNL     1      20.597  10.825   8.342  1.00  0.00     0.037 C 
HETATM   15  C3  UNL     1      18.221  11.326   8.629  1.00  0.00     0.037 C 
HETATM   16  C4  UNL     1      19.853  12.122  10.310  1.00  0.00     0.037 C 
ENDBRANCH  10  13
ENDBRANCH   4   9
BRANCH   6  17
HETATM   17  C8  UNL     1      20.013  13.073   4.765  1.00  0.00     0.312 C 
BRANCH  17  18
HETATM   18  C9  UNL     1      19.013  12.886   3.653  1.00  0.00    -0.015 A 
HETATM   19  C10 UNL     1      18.932  13.786   2.619  1.00  0.00     0.011 A 
HETATM   20  C11 UNL     1      18.019  13.604   1.615  1.00  0.00     0.018 A 
HETATM   21  C12 UNL     1      17.182  12.516   1.650  1.00  0.00     0.087 A 
HETATM   22  N3  UNL     1      17.258  11.633   2.660  1.00  0.00    -0.375 N 
HETATM   23  C13 UNL     1      18.157  11.807   3.654  1.00  0.00     0.096 A 
ATOM     24  H3  UNL     1      16.634  10.827   2.678  1.00  0.00     0.164 HD
ENDBRANCH  17  18
ENDBRANCH   6  17
ENDBRANCH   2   3
ENDBRANCH   1   2
BRANCH   1  25
HETATM   25  O2  UNL     1      24.974  16.524   5.178  1.00  0.00    -0.394 OA
ATOM     26  H2  UNL     1      25.539  15.769   5.067  1.00  0.00     0.210 HD
ENDBRANCH   1  25
BRANCH   1  27
HETATM   27  C18 UNL     1      24.974  17.815   7.093  1.00  0.00     0.047 C 
BRANCH  27  28
HETATM   28  C19 UNL     1      23.979  18.928   6.896  1.00  0.00     0.084 C 
BRANCH  28  29
HETATM   29  C20 UNL     1      23.926  19.913   7.978  1.00  0.00     0.052 C 
BRANCH  29  30
HETATM   30  C21 UNL     1      25.185  20.178   8.687  1.00  0.00    -0.057 A 
HETATM   31  C22 UNL     1      25.848  21.366   8.354  1.00  0.00     0.007 A 
HETATM   32  C23 UNL     1      27.022  21.746   8.976  1.00  0.00     0.001 A 
HETATM   33  C24 UNL     1      27.584  20.958   9.956  1.00  0.00     0.000 A 
HETATM   34  C25 UNL     1      26.939  19.787  10.289  1.00  0.00     0.001 A 
HETATM   35  C26 UNL     1      25.749  19.399   9.662  1.00  0.00     0.007 A 
ENDBRANCH  29  30
ENDBRANCH  28  29
BRANCH  28  36
HETATM   36  C27 UNL     1      24.064  19.529   5.563  1.00  0.00     0.222 C 
HETATM   37  O3  UNL     1      23.310  19.193   4.642  1.00  0.00    -0.273 OA
HETATM   38  N5  UNL     1      25.023  20.539   5.246  1.00  0.00    -0.350 N 
ATOM     39  H5  UNL     1      25.670  20.857   5.966  1.00  0.00     0.163 HD
BRANCH  38  40
HETATM   40  C28 UNL     1      25.092  21.114   3.937  1.00  0.00     0.147 C 
HETATM   41  C29 UNL     1      24.281  22.332   3.794  1.00  0.00    -0.027 A 
HETATM   42  C30 UNL     1      22.951  22.504   3.507  1.00  0.00     0.010 A 
HETATM   43  C34 UNL     1      25.080  23.429   4.001  1.00  0.00    -0.047 A 
HETATM   44  C31 UNL     1      22.408  23.761   3.424  1.00  0.00     0.001 A 
HETATM   45  C32 UNL     1      23.229  24.855   3.637  1.00  0.00     0.001 A 
HETATM   46  C33 UNL     1      24.585  24.716   3.931  1.00  0.00     0.008 A 
HETATM   47  C35 UNL     1      26.480  22.991   4.295  1.00  0.00     0.073 C 
HETATM   48  C36 UNL     1      26.516  21.594   3.710  1.00  0.00     0.149 C 
BRANCH  48  49
HETATM   49  O4  UNL     1      27.349  20.823   4.500  1.00  0.00    -0.393 OA
ATOM     50  H4  UNL     1      27.908  20.319   3.921  1.00  0.00     0.210 HD
ENDBRANCH  48  49
ENDBRANCH  38  40
ENDBRANCH  28  36
ENDBRANCH  27  28
ENDBRANCH   1  27
TORSDOF 14
ENDMDL
