MODEL 1
REMARK VINA RESULT: -10.766779740      0.000      0.000
REMARK  14 active torsions:
REMARK  status: ('A' for Active; 'I' for Inactive)
REMARK    1  A    between atoms: C2_2  and  N1_5 
REMARK       I    between atoms: N1_5  and  C5_7 
REMARK    2  A    between atoms: C5_7  and  C6_9 
REMARK    3  A    between atoms: N2_11  and  C8_12 
REMARK    4  A    between atoms: C8_12  and  C9_13 
REMARK    5  A    between atoms: N4_22  and  C16_23 
REMARK    6  A    between atoms: C16_23  and  C17_24 
REMARK    7  A    between atoms: C17_24  and  O2_25 
REMARK    8  A    between atoms: C17_24  and  C18_27 
REMARK    9  A    between atoms: C18_27  and  C19_28 
REMARK   10  A    between atoms: C19_28  and  C20_29 
REMARK   11  A    between atoms: C19_28  and  C27_36 
REMARK   12  A    between atoms: C20_29  and  C21_30 
REMARK       I    between atoms: C27_36  and  N5_38 
REMARK   13  A    between atoms: N5_38  and  C28_40 
REMARK   14  A    between atoms: C36_48  and  O4_49 
ROOT
HETATM    1  C17 UNL     1      21.864  15.609   4.232  1.00  0.00     0.147 C 
ENDROOT
BRANCH   1   2
HETATM    2  C16 UNL     1      23.269  15.848   4.712  1.00  0.00     0.305 C 
BRANCH   2   3
HETATM    3  N4  UNL     1      23.768  17.168   4.540  1.00  0.00     0.108 N 
HETATM    4  C6  UNL     1      22.873  18.246   4.776  1.00  0.00     0.342 C 
HETATM    5  C7  UNL     1      22.720  18.642   6.200  1.00  0.00     0.318 C 
HETATM    6  N2  UNL     1      23.906  18.669   6.991  1.00  0.00     0.097 N 
HETATM    7  C14 UNL     1      24.722  17.488   6.776  1.00  0.00     0.303 C 
HETATM    8  C15 UNL     1      24.985  17.297   5.322  1.00  0.00     0.303 C 
BRANCH   4   9
HETATM    9  C5  UNL     1      23.292  19.398   3.892  1.00  0.00     0.253 C 
HETATM   10  N1  UNL     1      22.757  20.694   4.121  1.00  0.00    -0.351 N 
ATOM     11  H1  UNL     1      22.096  20.845   4.883  1.00  0.00     0.163 HD
HETATM   12  O1  UNL     1      24.109  19.220   2.951  1.00  0.00    -0.271 OA
BRANCH  10  13
HETATM   13  C2  UNL     1      23.150  21.799   3.274  1.00  0.00     0.022 C 
HETATM   14  C1  UNL     1      24.588  22.185   3.516  1.00  0.00     0.037 C 
HETATM   15  C3  UNL     1      22.287  23.006   3.613  1.00  0.00     0.037 C 
HETATM   16  C4  UNL     1      22.961  21.461   1.802  1.00  0.00     0.037 C 
ENDBRANCH  10  13
ENDBRANCH   4   9
BRANCH   6  17
HETATM   17  C8  UNL     1      24.668  19.881   6.923  1.00  0.00     0.312 C 
BRANCH  17  18
HETATM   18  C9  UNL     1      25.635  19.911   8.078  1.00  0.00    -0.015 A 
HETATM   19  C10 UNL     1      25.194  19.765   9.371  1.00  0.00     0.011 A 
HETATM   20  C11 UNL     1      26.084  19.794  10.411  1.00  0.00     0.018 A 
HETATM   21  C12 UNL     1      27.420  19.971  10.154  1.00  0.00     0.087 A 
HETATM   22  N3  UNL     1      27.856  20.115   8.891  1.00  0.00    -0.375 N 
HETATM   23  C13 UNL     1      26.983  20.088   7.859  1.00  0.00     0.096 A 
ATOM     24  H3  UNL     1      28.851  20.246   8.709  1.00  0.00     0.164 HD
ENDBRANCH  17  18
ENDBRANCH   6  17
ENDBRANCH   2   3
ENDBRANCH   1   2
BRANCH   1  25
HETATM   25  O2  UNL     1      21.947  15.628   2.814  1.00  0.00    -0.394 OA
ATOM     26  H2  UNL     1      21.218  16.166   2.530  1.00  0.00     0.210 HD
ENDBRANCH   1  25
BRANCH   1  27
HETATM   27  C18 UNL     1      21.428  14.200   4.554  1.00  0.00     0.047 C 
BRANCH  27  28
HETATM   28  C19 UNL     1      20.152  14.095   5.346  1.00  0.00     0.084 C 
BRANCH  28  29
HETATM   29  C20 UNL     1      19.223  13.058   4.893  1.00  0.00     0.052 C 
BRANCH  29  30
HETATM   30  C21 UNL     1      18.719  13.182   3.519  1.00  0.00    -0.057 A 
HETATM   31  C22 UNL     1      17.845  12.179   3.084  1.00  0.00     0.007 A 
HETATM   32  C23 UNL     1      17.274  12.203   1.825  1.00  0.00     0.001 A 
HETATM   33  C24 UNL     1      17.553  13.229   0.948  1.00  0.00     0.000 A 
HETATM   34  C25 UNL     1      18.413  14.219   1.369  1.00  0.00     0.001 A 
HETATM   35  C26 UNL     1      18.991  14.199   2.643  1.00  0.00     0.007 A 
ENDBRANCH  29  30
ENDBRANCH  28  29
BRANCH  28  36
HETATM   36  C27 UNL     1      20.388  14.078   6.792  1.00  0.00     0.222 C 
HETATM   37  O3  UNL     1      21.053  14.953   7.359  1.00  0.00    -0.273 OA
HETATM   38  N5  UNL     1      19.864  13.050   7.634  1.00  0.00    -0.350 N 
ATOM     39  H5  UNL     1      19.307  12.303   7.222  1.00  0.00     0.163 HD
BRANCH  38  40
HETATM   40  C28 UNL     1      20.107  13.049   9.044  1.00  0.00     0.147 C 
HETATM   41  C29 UNL     1      18.990  12.496   9.824  1.00  0.00    -0.027 A 
HETATM   42  C30 UNL     1      17.839  13.077  10.294  1.00  0.00     0.010 A 
HETATM   43  C34 UNL     1      19.233  11.168  10.075  1.00  0.00    -0.047 A 
HETATM   44  C31 UNL     1      16.926  12.346  11.012  1.00  0.00     0.001 A 
HETATM   45  C32 UNL     1      17.188  11.010  11.254  1.00  0.00     0.001 A 
HETATM   46  C33 UNL     1      18.347  10.387  10.792  1.00  0.00     0.008 A 
HETATM   47  C35 UNL     1      20.539  10.766   9.468  1.00  0.00     0.073 C 
HETATM   48  C36 UNL     1      21.255  12.093   9.322  1.00  0.00     0.149 C 
BRANCH  48  49
HETATM   49  O4  UNL     1      22.035  12.033   8.182  1.00  0.00    -0.393 OA
ATOM     50  H4  UNL     1      22.699  12.709   8.252  1.00  0.00     0.210 HD
ENDBRANCH  48  49
ENDBRANCH  38  40
ENDBRANCH  28  36
ENDBRANCH  27  28
ENDBRANCH   1  27
TORSDOF 14
ENDMDL
