MODEL 11
REMARK VINA RESULT: -10.237070657      1.785      6.178
REMARK  14 active torsions:
REMARK  status: ('A' for Active; 'I' for Inactive)
REMARK    1  A    between atoms: C2_2  and  N1_5 
REMARK       I    between atoms: N1_5  and  C5_7 
REMARK    2  A    between atoms: C5_7  and  C6_9 
REMARK    3  A    between atoms: N2_11  and  C8_12 
REMARK    4  A    between atoms: C8_12  and  C9_13 
REMARK    5  A    between atoms: N4_22  and  C16_23 
REMARK    6  A    between atoms: C16_23  and  C17_24 
REMARK    7  A    between atoms: C17_24  and  O2_25 
REMARK    8  A    between atoms: C17_24  and  C18_27 
REMARK    9  A    between atoms: C18_27  and  C19_28 
REMARK   10  A    between atoms: C19_28  and  C20_29 
REMARK   11  A    between atoms: C19_28  and  C27_36 
REMARK   12  A    between atoms: C20_29  and  C21_30 
REMARK       I    between atoms: C27_36  and  N5_38 
REMARK   13  A    between atoms: N5_38  and  C28_40 
REMARK   14  A    between atoms: C36_48  and  O4_49 
ROOT
HETATM    1  C17 UNL     1      23.650  15.599   4.715  1.00  0.00     0.147 C 
ENDROOT
BRANCH   1   2
HETATM    2  C16 UNL     1      23.191  16.904   4.126  1.00  0.00     0.305 C 
BRANCH   2   3
HETATM    3  N4  UNL     1      23.558  18.073   4.846  1.00  0.00     0.108 N 
HETATM    4  C6  UNL     1      24.751  18.740   4.457  1.00  0.00     0.342 C 
HETATM    5  C7  UNL     1      24.611  19.666   3.303  1.00  0.00     0.318 C 
HETATM    6  N2  UNL     1      23.438  20.476   3.268  1.00  0.00     0.097 N 
HETATM    7  C14 UNL     1      22.246  19.708   3.574  1.00  0.00     0.303 C 
HETATM    8  C15 UNL     1      22.418  18.973   4.859  1.00  0.00     0.303 C 
BRANCH   4   9
HETATM    9  C5  UNL     1      25.326  19.414   5.680  1.00  0.00     0.253 C 
HETATM   10  N1  UNL     1      25.169  18.812   6.957  1.00  0.00    -0.351 N 
ATOM     11  H1  UNL     1      24.672  17.925   7.045  1.00  0.00     0.163 HD
HETATM   12  O1  UNL     1      25.942  20.507   5.580  1.00  0.00    -0.271 OA
BRANCH  10  13
HETATM   13  C2  UNL     1      25.712  19.456   8.133  1.00  0.00     0.022 C 
HETATM   14  C1  UNL     1      25.950  18.459   9.240  1.00  0.00     0.037 C 
HETATM   15  C3  UNL     1      24.705  20.476   8.643  1.00  0.00     0.037 C 
HETATM   16  C4  UNL     1      27.017  20.174   7.816  1.00  0.00     0.037 C 
ENDBRANCH  10  13
ENDBRANCH   4   9
BRANCH   6  17
HETATM   17  C8  UNL     1      23.509  21.699   4.011  1.00  0.00     0.312 C 
BRANCH  17  18
HETATM   18  C9  UNL     1      23.797  22.830   3.056  1.00  0.00    -0.015 A 
HETATM   19  C10 UNL     1      23.215  22.869   1.813  1.00  0.00     0.011 A 
HETATM   20  C11 UNL     1      23.485  23.902   0.957  1.00  0.00     0.018 A 
HETATM   21  C12 UNL     1      24.344  24.899   1.347  1.00  0.00     0.087 A 
HETATM   22  N3  UNL     1      24.916  24.864   2.563  1.00  0.00    -0.375 N 
HETATM   23  C13 UNL     1      24.653  23.848   3.414  1.00  0.00     0.096 A 
ATOM     24  H3  UNL     1      25.552  25.610   2.846  1.00  0.00     0.164 HD
ENDBRANCH  17  18
ENDBRANCH   6  17
ENDBRANCH   2   3
ENDBRANCH   1   2
BRANCH   1  25
HETATM   25  O2  UNL     1      25.054  15.566   4.498  1.00  0.00    -0.394 OA
ATOM     26  H2  UNL     1      25.399  16.299   4.994  1.00  0.00     0.210 HD
ENDBRANCH   1  25
BRANCH   1  27
HETATM   27  C18 UNL     1      23.512  15.620   6.218  1.00  0.00     0.047 C 
BRANCH  27  28
HETATM   28  C19 UNL     1      22.610  14.557   6.787  1.00  0.00     0.084 C 
BRANCH  28  29
HETATM   29  C20 UNL     1      22.737  14.343   8.231  1.00  0.00     0.052 C 
BRANCH  29  30
HETATM   30  C21 UNL     1      21.877  13.308   8.819  1.00  0.00    -0.057 A 
HETATM   31  C22 UNL     1      20.828  13.758   9.631  1.00  0.00     0.007 A 
HETATM   32  C23 UNL     1      19.928  12.885  10.211  1.00  0.00     0.001 A 
HETATM   33  C24 UNL     1      20.037  11.526  10.008  1.00  0.00     0.000 A 
HETATM   34  C25 UNL     1      21.067  11.076   9.212  1.00  0.00     0.001 A 
HETATM   35  C26 UNL     1      21.980  11.957   8.620  1.00  0.00     0.007 A 
ENDBRANCH  29  30
ENDBRANCH  28  29
BRANCH  28  36
HETATM   36  C27 UNL     1      21.224  14.695   6.337  1.00  0.00     0.222 C 
HETATM   37  O3  UNL     1      20.557  15.711   6.566  1.00  0.00    -0.273 OA
HETATM   38  N5  UNL     1      20.558  13.666   5.605  1.00  0.00    -0.350 N 
ATOM     39  H5  UNL     1      21.058  12.805   5.385  1.00  0.00     0.163 HD
BRANCH  38  40
HETATM   40  C28 UNL     1      19.202  13.818   5.174  1.00  0.00     0.147 C 
HETATM   41  C29 UNL     1      19.060  13.876   3.712  1.00  0.00    -0.027 A 
HETATM   42  C30 UNL     1      19.175  14.924   2.833  1.00  0.00     0.010 A 
HETATM   43  C34 UNL     1      18.763  12.621   3.240  1.00  0.00    -0.047 A 
HETATM   44  C31 UNL     1      18.997  14.732   1.486  1.00  0.00     0.001 A 
HETATM   45  C32 UNL     1      18.699  13.461   1.029  1.00  0.00     0.001 A 
HETATM   46  C33 UNL     1      18.575  12.373   1.894  1.00  0.00     0.008 A 
HETATM   47  C35 UNL     1      18.691  11.654   4.378  1.00  0.00     0.073 C 
HETATM   48  C36 UNL     1      18.441  12.562   5.564  1.00  0.00     0.149 C 
BRANCH  48  49
HETATM   49  O4  UNL     1      19.077  12.011   6.662  1.00  0.00    -0.393 OA
ATOM     50  H4  UNL     1      19.011  12.635   7.376  1.00  0.00     0.210 HD
ENDBRANCH  48  49
ENDBRANCH  38  40
ENDBRANCH  28  36
ENDBRANCH  27  28
ENDBRANCH   1  27
TORSDOF 14
ENDMDL
