MODEL 7
REMARK VINA RESULT: -9.713202521      2.481      5.403
REMARK  14 active torsions:
REMARK  status: ('A' for Active; 'I' for Inactive)
REMARK    1  A    between atoms: C2_2  and  N1_5 
REMARK       I    between atoms: N1_5  and  C5_7 
REMARK    2  A    between atoms: C5_7  and  C6_9 
REMARK    3  A    between atoms: N2_11  and  C8_12 
REMARK    4  A    between atoms: C8_12  and  C9_13 
REMARK    5  A    between atoms: N4_22  and  C16_23 
REMARK    6  A    between atoms: C16_23  and  C17_24 
REMARK    7  A    between atoms: C17_24  and  O2_25 
REMARK    8  A    between atoms: C17_24  and  C18_27 
REMARK    9  A    between atoms: C18_27  and  C19_28 
REMARK   10  A    between atoms: C19_28  and  C20_29 
REMARK   11  A    between atoms: C19_28  and  C27_36 
REMARK   12  A    between atoms: C20_29  and  C21_30 
REMARK       I    between atoms: C27_36  and  N5_38 
REMARK   13  A    between atoms: N5_38  and  C28_40 
REMARK   14  A    between atoms: C36_48  and  O4_49 
ROOT
HETATM    1  C17 UNL     1      20.066  -0.925   9.298  1.00  0.00     0.147 C 
ENDROOT
BRANCH   1   2
HETATM    2  C16 UNL     1      19.120   0.239   9.405  1.00  0.00     0.305 C 
BRANCH   2   3
HETATM    3  N4  UNL     1      18.436   0.372  10.644  1.00  0.00     0.108 N 
HETATM    4  C6  UNL     1      19.206   0.719  11.787  1.00  0.00     0.342 C 
HETATM    5  C7  UNL     1      19.483   2.170  11.947  1.00  0.00     0.318 C 
HETATM    6  N2  UNL     1      18.412   3.065  11.657  1.00  0.00     0.097 N 
HETATM    7  C14 UNL     1      17.737   2.712  10.422  1.00  0.00     0.303 C 
HETATM    8  C15 UNL     1      17.320   1.282  10.449  1.00  0.00     0.303 C 
BRANCH   4   9
HETATM    9  C5  UNL     1      18.533   0.116  12.999  1.00  0.00     0.253 C 
HETATM   10  N1  UNL     1      18.845   0.607  14.295  1.00  0.00    -0.351 N 
ATOM     11  H1  UNL     1      19.518   1.366  14.405  1.00  0.00     0.163 HD
HETATM   12  O1  UNL     1      17.701  -0.819  12.871  1.00  0.00    -0.271 OA
BRANCH  10  13
HETATM   13  C2  UNL     1      18.208   0.030  15.459  1.00  0.00     0.022 C 
HETATM   14  C1  UNL     1      16.718   0.260  15.435  1.00  0.00     0.037 C 
HETATM   15  C3  UNL     1      18.758   0.708  16.705  1.00  0.00     0.037 C 
HETATM   16  C4  UNL     1      18.483  -1.465  15.555  1.00  0.00     0.037 C 
ENDBRANCH  10  13
ENDBRANCH   4   9
BRANCH   6  17
HETATM   17  C8  UNL     1      17.497   3.305  12.733  1.00  0.00     0.312 C 
BRANCH  17  18
HETATM   18  C9  UNL     1      17.567   4.762  13.113  1.00  0.00    -0.015 A 
HETATM   19  C10 UNL     1      16.433   5.457  13.453  1.00  0.00     0.011 A 
HETATM   20  C11 UNL     1      16.511   6.780  13.796  1.00  0.00     0.018 A 
HETATM   21  C12 UNL     1      17.731   7.409  13.798  1.00  0.00     0.087 A 
HETATM   22  N3  UNL     1      18.843   6.732  13.465  1.00  0.00    -0.375 N 
HETATM   23  C13 UNL     1      18.774   5.426  13.125  1.00  0.00     0.096 A 
ATOM     24  H3  UNL     1      19.746   7.206  13.470  1.00  0.00     0.164 HD
ENDBRANCH  17  18
ENDBRANCH   6  17
ENDBRANCH   2   3
ENDBRANCH   1   2
BRANCH   1  25
HETATM   25  O2  UNL     1      21.162  -0.592  10.138  1.00  0.00    -0.394 OA
ATOM     26  H2  UNL     1      21.715  -1.364  10.144  1.00  0.00     0.210 HD
ENDBRANCH   1  25
BRANCH   1  27
HETATM   27  C18 UNL     1      19.469  -2.151   9.944  1.00  0.00     0.047 C 
BRANCH  27  28
HETATM   28  C19 UNL     1      19.122  -3.265   8.992  1.00  0.00     0.084 C 
BRANCH  28  29
HETATM   29  C20 UNL     1      18.760  -4.534   9.627  1.00  0.00     0.052 C 
BRANCH  29  30
HETATM   30  C21 UNL     1      18.565  -5.683   8.733  1.00  0.00    -0.057 A 
HETATM   31  C22 UNL     1      19.719  -6.224   8.153  1.00  0.00     0.007 A 
HETATM   32  C23 UNL     1      19.672  -7.328   7.323  1.00  0.00     0.001 A 
HETATM   33  C24 UNL     1      18.470  -7.939   7.037  1.00  0.00     0.000 A 
HETATM   34  C25 UNL     1      17.330  -7.414   7.603  1.00  0.00     0.001 A 
HETATM   35  C26 UNL     1      17.374  -6.296   8.445  1.00  0.00     0.007 A 
ENDBRANCH  29  30
ENDBRANCH  28  29
BRANCH  28  36
HETATM   36  C27 UNL     1      18.181  -2.843   7.952  1.00  0.00     0.222 C 
HETATM   37  O3  UNL     1      17.057  -2.403   8.223  1.00  0.00    -0.273 OA
HETATM   38  N5  UNL     1      18.505  -2.912   6.563  1.00  0.00    -0.350 N 
ATOM     39  H5  UNL     1      19.419  -3.265   6.280  1.00  0.00     0.163 HD
BRANCH  38  40
HETATM   40  C28 UNL     1      17.572  -2.496   5.560  1.00  0.00     0.147 C 
HETATM   41  C29 UNL     1      17.810  -1.128   5.077  1.00  0.00    -0.027 A 
HETATM   42  C30 UNL     1      17.411   0.088   5.572  1.00  0.00     0.010 A 
HETATM   43  C34 UNL     1      18.570  -1.183   3.934  1.00  0.00    -0.047 A 
HETATM   44  C31 UNL     1      17.763   1.253   4.936  1.00  0.00     0.001 A 
HETATM   45  C32 UNL     1      18.529   1.178   3.787  1.00  0.00     0.001 A 
HETATM   46  C33 UNL     1      18.952  -0.041   3.257  1.00  0.00     0.008 A 
HETATM   47  C35 UNL     1      18.877  -2.606   3.595  1.00  0.00     0.073 C 
HETATM   48  C36 UNL     1      17.789  -3.361   4.330  1.00  0.00     0.149 C 
BRANCH  48  49
HETATM   49  O4  UNL     1      18.318  -4.566   4.753  1.00  0.00    -0.393 OA
ATOM     50  H4  UNL     1      17.730  -5.255   4.465  1.00  0.00     0.210 HD
ENDBRANCH  48  49
ENDBRANCH  38  40
ENDBRANCH  28  36
ENDBRANCH  27  28
ENDBRANCH   1  27
TORSDOF 14
ENDMDL
