MODEL 3
REMARK VINA RESULT: -9.880269113      2.390      4.173
REMARK  14 active torsions:
REMARK  status: ('A' for Active; 'I' for Inactive)
REMARK    1  A    between atoms: C2_2  and  N1_5 
REMARK       I    between atoms: N1_5  and  C5_7 
REMARK    2  A    between atoms: C5_7  and  C6_9 
REMARK    3  A    between atoms: N2_11  and  C8_12 
REMARK    4  A    between atoms: C8_12  and  C9_13 
REMARK    5  A    between atoms: N4_22  and  C16_23 
REMARK    6  A    between atoms: C16_23  and  C17_24 
REMARK    7  A    between atoms: C17_24  and  O2_25 
REMARK    8  A    between atoms: C17_24  and  C18_27 
REMARK    9  A    between atoms: C18_27  and  C19_28 
REMARK   10  A    between atoms: C19_28  and  C20_29 
REMARK   11  A    between atoms: C19_28  and  C27_36 
REMARK   12  A    between atoms: C20_29  and  C21_30 
REMARK       I    between atoms: C27_36  and  N5_38 
REMARK   13  A    between atoms: N5_38  and  C28_40 
REMARK   14  A    between atoms: C36_48  and  O4_49 
ROOT
HETATM    1  C17 UNL     1      20.136  -0.147   9.434  1.00  0.00     0.147 C 
ENDROOT
BRANCH   1   2
HETATM    2  C16 UNL     1      19.410  -0.445  10.716  1.00  0.00     0.305 C 
BRANCH   2   3
HETATM    3  N4  UNL     1      19.034   0.685  11.493  1.00  0.00     0.108 N 
HETATM    4  C6  UNL     1      17.661   1.052  11.502  1.00  0.00     0.342 C 
HETATM    5  C7  UNL     1      16.809   0.292  12.453  1.00  0.00     0.318 C 
HETATM    6  N2  UNL     1      17.362   0.025  13.740  1.00  0.00     0.097 N 
HETATM    7  C14 UNL     1      18.732  -0.444  13.649  1.00  0.00     0.303 C 
HETATM    8  C15 UNL     1      19.551   0.500  12.839  1.00  0.00     0.303 C 
BRANCH   4   9
HETATM    9  C5  UNL     1      17.582   2.546  11.713  1.00  0.00     0.253 C 
HETATM   10  N1  UNL     1      18.389   3.162  12.707  1.00  0.00    -0.351 N 
ATOM     11  H1  UNL     1      19.021   2.596  13.273  1.00  0.00     0.163 HD
HETATM   12  O1  UNL     1      16.805   3.251  11.017  1.00  0.00    -0.271 OA
BRANCH  10  13
HETATM   13  C2  UNL     1      18.313   4.591  12.917  1.00  0.00     0.022 C 
HETATM   14  C1  UNL     1      19.015   5.342  11.813  1.00  0.00     0.037 C 
HETATM   15  C3  UNL     1      19.014   4.933  14.223  1.00  0.00     0.037 C 
HETATM   16  C4  UNL     1      16.867   5.061  13.001  1.00  0.00     0.037 C 
ENDBRANCH  10  13
ENDBRANCH   4   9
BRANCH   6  17
HETATM   17  C8  UNL     1      17.202   1.068  14.710  1.00  0.00     0.312 C 
BRANCH  17  18
HETATM   18  C9  UNL     1      17.492   0.505  16.078  1.00  0.00    -0.015 A 
HETATM   19  C10 UNL     1      17.154  -0.788  16.395  1.00  0.00     0.011 A 
HETATM   20  C11 UNL     1      17.425  -1.285  17.641  1.00  0.00     0.018 A 
HETATM   21  C12 UNL     1      18.034  -0.484  18.574  1.00  0.00     0.087 A 
HETATM   22  N3  UNL     1      18.366   0.782  18.267  1.00  0.00    -0.375 N 
HETATM   23  C13 UNL     1      18.102   1.280  17.039  1.00  0.00     0.096 A 
ATOM     24  H3  UNL     1      18.819   1.371  18.966  1.00  0.00     0.164 HD
ENDBRANCH  17  18
ENDBRANCH   6  17
ENDBRANCH   2   3
ENDBRANCH   1   2
BRANCH   1  25
HETATM   25  O2  UNL     1      21.348  -0.882   9.512  1.00  0.00    -0.394 OA
ATOM     26  H2  UNL     1      21.084  -1.786   9.638  1.00  0.00     0.210 HD
ENDBRANCH   1  25
BRANCH   1  27
HETATM   27  C18 UNL     1      19.410  -0.762   8.262  1.00  0.00     0.047 C 
BRANCH  27  28
HETATM   28  C19 UNL     1      17.944  -1.020   8.486  1.00  0.00     0.084 C 
BRANCH  28  29
HETATM   29  C20 UNL     1      17.066  -0.618   7.385  1.00  0.00     0.052 C 
BRANCH  29  30
HETATM   30  C21 UNL     1      17.695  -0.471   6.065  1.00  0.00    -0.057 A 
HETATM   31  C22 UNL     1      17.783  -1.630   5.284  1.00  0.00     0.007 A 
HETATM   32  C23 UNL     1      18.319  -1.613   4.011  1.00  0.00     0.001 A 
HETATM   33  C24 UNL     1      18.791  -0.440   3.463  1.00  0.00     0.000 A 
HETATM   34  C25 UNL     1      18.708   0.705   4.225  1.00  0.00     0.001 A 
HETATM   35  C26 UNL     1      18.164   0.692   5.515  1.00  0.00     0.007 A 
ENDBRANCH  29  30
ENDBRANCH  28  29
BRANCH  28  36
HETATM   36  C27 UNL     1      17.680  -2.373   8.979  1.00  0.00     0.222 C 
HETATM   37  O3  UNL     1      16.843  -2.599   9.861  1.00  0.00    -0.273 OA
HETATM   38  N5  UNL     1      18.373  -3.514   8.472  1.00  0.00    -0.350 N 
ATOM     39  H5  UNL     1      19.074  -3.389   7.743  1.00  0.00     0.163 HD
BRANCH  38  40
HETATM   40  C28 UNL     1      18.103  -4.830   8.968  1.00  0.00     0.147 C 
HETATM   41  C29 UNL     1      17.578  -5.741   7.940  1.00  0.00    -0.027 A 
HETATM   42  C30 UNL     1      16.301  -5.943   7.479  1.00  0.00     0.010 A 
HETATM   43  C34 UNL     1      18.616  -6.468   7.413  1.00  0.00    -0.047 A 
HETATM   44  C31 UNL     1      16.050  -6.865   6.494  1.00  0.00     0.001 A 
HETATM   45  C32 UNL     1      17.109  -7.588   5.974  1.00  0.00     0.001 A 
HETATM   46  C33 UNL     1      18.419  -7.407   6.420  1.00  0.00     0.008 A 
HETATM   47  C35 UNL     1      19.900  -6.073   8.071  1.00  0.00     0.073 C 
HETATM   48  C36 UNL     1      19.426  -5.459   9.372  1.00  0.00     0.149 C 
BRANCH  48  49
HETATM   49  O4  UNL     1      20.294  -4.435   9.701  1.00  0.00    -0.393 OA
ATOM     50  H4  UNL     1      20.347  -4.396  10.649  1.00  0.00     0.210 HD
ENDBRANCH  48  49
ENDBRANCH  38  40
ENDBRANCH  28  36
ENDBRANCH  27  28
ENDBRANCH   1  27
TORSDOF 14
ENDMDL
