MODEL 1
REMARK VINA RESULT: -9.963874638      0.000      0.000
REMARK  14 active torsions:
REMARK  status: ('A' for Active; 'I' for Inactive)
REMARK    1  A    between atoms: C2_2  and  N1_5 
REMARK       I    between atoms: N1_5  and  C5_7 
REMARK    2  A    between atoms: C5_7  and  C6_9 
REMARK    3  A    between atoms: N2_11  and  C8_12 
REMARK    4  A    between atoms: C8_12  and  C9_13 
REMARK    5  A    between atoms: N4_22  and  C16_23 
REMARK    6  A    between atoms: C16_23  and  C17_24 
REMARK    7  A    between atoms: C17_24  and  O2_25 
REMARK    8  A    between atoms: C17_24  and  C18_27 
REMARK    9  A    between atoms: C18_27  and  C19_28 
REMARK   10  A    between atoms: C19_28  and  C20_29 
REMARK   11  A    between atoms: C19_28  and  C27_36 
REMARK   12  A    between atoms: C20_29  and  C21_30 
REMARK       I    between atoms: C27_36  and  N5_38 
REMARK   13  A    between atoms: N5_38  and  C28_40 
REMARK   14  A    between atoms: C36_48  and  O4_49 
ROOT
HETATM    1  C17 UNL     1      19.213   2.780  10.636  1.00  0.00     0.147 C 
ENDROOT
BRANCH   1   2
HETATM    2  C16 UNL     1      19.078   3.464  11.968  1.00  0.00     0.305 C 
BRANCH   2   3
HETATM    3  N4  UNL     1      18.342   2.756  12.957  1.00  0.00     0.108 N 
HETATM    4  C6  UNL     1      19.056   2.266  14.085  1.00  0.00     0.342 C 
HETATM    5  C7  UNL     1      19.285   3.257  15.168  1.00  0.00     0.318 C 
HETATM    6  N2  UNL     1      18.201   4.129  15.482  1.00  0.00     0.097 N 
HETATM    7  C14 UNL     1      17.586   4.673  14.286  1.00  0.00     0.303 C 
HETATM    8  C15 UNL     1      17.210   3.575  13.351  1.00  0.00     0.303 C 
BRANCH   4   9
HETATM    9  C5  UNL     1      18.353   1.020  14.573  1.00  0.00     0.253 C 
HETATM   10  N1  UNL     1      18.571   0.562  15.900  1.00  0.00    -0.351 N 
ATOM     11  H1  UNL     1      19.197   1.076  16.520  1.00  0.00     0.163 HD
HETATM   12  O1  UNL     1      17.579   0.383  13.813  1.00  0.00    -0.271 OA
BRANCH  10  13
HETATM   13  C2  UNL     1      17.906  -0.633  16.371  1.00  0.00     0.022 C 
HETATM   14  C1  UNL     1      16.407  -0.500  16.263  1.00  0.00     0.037 C 
HETATM   15  C3  UNL     1      18.245  -0.836  17.840  1.00  0.00     0.037 C 
HETATM   16  C4  UNL     1      18.358  -1.860  15.591  1.00  0.00     0.037 C 
ENDBRANCH  10  13
ENDBRANCH   4   9
BRANCH   6  17
HETATM   17  C8  UNL     1      17.238   3.610  16.407  1.00  0.00     0.312 C 
BRANCH  17  18
HETATM   18  C9  UNL     1      17.362   4.361  17.708  1.00  0.00    -0.015 A 
HETATM   19  C10 UNL     1      16.884   5.643  17.830  1.00  0.00     0.011 A 
HETATM   20  C11 UNL     1      17.002   6.313  19.018  1.00  0.00     0.018 A 
HETATM   21  C12 UNL     1      17.603   5.697  20.087  1.00  0.00     0.087 A 
HETATM   22  N3  UNL     1      18.072   4.443  19.971  1.00  0.00    -0.375 N 
HETATM   23  C13 UNL     1      17.959   3.775  18.802  1.00  0.00     0.096 A 
ATOM     24  H3  UNL     1      18.517   3.992  20.771  1.00  0.00     0.164 HD
ENDBRANCH  17  18
ENDBRANCH   6  17
ENDBRANCH   2   3
ENDBRANCH   1   2
BRANCH   1  25
HETATM   25  O2  UNL     1      19.693   1.477  10.933  1.00  0.00    -0.394 OA
ATOM     26  H2  UNL     1      19.615   0.991  10.121  1.00  0.00     0.210 HD
ENDBRANCH   1  25
BRANCH   1  27
HETATM   27  C18 UNL     1      17.854   2.539  10.025  1.00  0.00     0.047 C 
BRANCH  27  28
HETATM   28  C19 UNL     1      17.787   1.388   9.057  1.00  0.00     0.084 C 
BRANCH  28  29
HETATM   29  C20 UNL     1      18.972   1.217   8.213  1.00  0.00     0.052 C 
BRANCH  29  30
HETATM   30  C21 UNL     1      18.729   0.910   6.797  1.00  0.00    -0.057 A 
HETATM   31  C22 UNL     1      18.966   1.946   5.885  1.00  0.00     0.007 A 
HETATM   32  C23 UNL     1      18.810   1.771   4.524  1.00  0.00     0.001 A 
HETATM   33  C24 UNL     1      18.411   0.555   4.014  1.00  0.00     0.000 A 
HETATM   34  C25 UNL     1      18.176  -0.470   4.903  1.00  0.00     0.001 A 
HETATM   35  C26 UNL     1      18.333  -0.297   6.284  1.00  0.00     0.007 A 
ENDBRANCH  29  30
ENDBRANCH  28  29
BRANCH  28  36
HETATM   36  C27 UNL     1      17.338   0.146   9.691  1.00  0.00     0.222 C 
HETATM   37  O3  UNL     1      16.189   0.012  10.130  1.00  0.00    -0.273 OA
HETATM   38  N5  UNL     1      18.197  -0.984   9.839  1.00  0.00    -0.350 N 
ATOM     39  H5  UNL     1      19.156  -0.932   9.494  1.00  0.00     0.163 HD
BRANCH  38  40
HETATM   40  C28 UNL     1      17.741  -2.189  10.462  1.00  0.00     0.147 C 
HETATM   41  C29 UNL     1      17.777  -3.355   9.568  1.00  0.00    -0.027 A 
HETATM   42  C30 UNL     1      16.876  -3.811   8.639  1.00  0.00     0.010 A 
HETATM   43  C34 UNL     1      18.951  -4.039   9.771  1.00  0.00    -0.047 A 
HETATM   44  C31 UNL     1      17.134  -4.945   7.909  1.00  0.00     0.001 A 
HETATM   45  C32 UNL     1      18.321  -5.620   8.127  1.00  0.00     0.001 A 
HETATM   46  C33 UNL     1      19.260  -5.184   9.063  1.00  0.00     0.008 A 
HETATM   47  C35 UNL     1      19.763  -3.355  10.824  1.00  0.00     0.073 C 
HETATM   48  C36 UNL     1      18.720  -2.546  11.568  1.00  0.00     0.149 C 
BRANCH  48  49
HETATM   49  O4  UNL     1      19.316  -1.373  11.994  1.00  0.00    -0.393 OA
ATOM     50  H4  UNL     1      19.424  -1.432  12.936  1.00  0.00     0.210 HD
ENDBRANCH  48  49
ENDBRANCH  38  40
ENDBRANCH  28  36
ENDBRANCH  27  28
ENDBRANCH   1  27
TORSDOF 14
ENDMDL
