MODEL 2
REMARK VINA RESULT: -9.959141080      2.996     11.101
REMARK  14 active torsions:
REMARK  status: ('A' for Active; 'I' for Inactive)
REMARK    1  A    between atoms: C2_2  and  N1_5 
REMARK       I    between atoms: N1_5  and  C5_7 
REMARK    2  A    between atoms: C5_7  and  C6_9 
REMARK    3  A    between atoms: N2_11  and  C8_12 
REMARK    4  A    between atoms: C8_12  and  C9_13 
REMARK    5  A    between atoms: N4_22  and  C16_23 
REMARK    6  A    between atoms: C16_23  and  C17_24 
REMARK    7  A    between atoms: C17_24  and  O2_25 
REMARK    8  A    between atoms: C17_24  and  C18_27 
REMARK    9  A    between atoms: C18_27  and  C19_28 
REMARK   10  A    between atoms: C19_28  and  C20_29 
REMARK   11  A    between atoms: C19_28  and  C27_36 
REMARK   12  A    between atoms: C20_29  and  C21_30 
REMARK       I    between atoms: C27_36  and  N5_38 
REMARK   13  A    between atoms: N5_38  and  C28_40 
REMARK   14  A    between atoms: C36_48  and  O4_49 
ROOT
HETATM    1  C17 UNL     1      19.069  -3.277  10.628  1.00  0.00     0.147 C 
ENDROOT
BRANCH   1   2
HETATM    2  C16 UNL     1      18.477  -4.361   9.771  1.00  0.00     0.305 C 
BRANCH   2   3
HETATM    3  N4  UNL     1      18.064  -3.967   8.469  1.00  0.00     0.108 N 
HETATM    4  C6  UNL     1      18.933  -4.263   7.384  1.00  0.00     0.342 C 
HETATM    5  C7  UNL     1      18.826  -5.644   6.846  1.00  0.00     0.318 C 
HETATM    6  N2  UNL     1      17.513  -6.185   6.721  1.00  0.00     0.097 N 
HETATM    7  C14 UNL     1      16.714  -5.935   7.907  1.00  0.00     0.303 C 
HETATM    8  C15 UNL     1      16.725  -4.484   8.243  1.00  0.00     0.303 C 
BRANCH   4   9
HETATM    9  C5  UNL     1      18.728  -3.206   6.324  1.00  0.00     0.253 C 
HETATM   10  N1  UNL     1      17.745  -2.198   6.513  1.00  0.00    -0.351 N 
ATOM     11  H1  UNL     1      17.183  -2.188   7.365  1.00  0.00     0.163 HD
HETATM   12  O1  UNL     1      19.419  -3.211   5.272  1.00  0.00    -0.271 OA
BRANCH  10  13
HETATM   13  C2  UNL     1      17.541  -1.187   5.499  1.00  0.00     0.022 C 
HETATM   14  C1  UNL     1      18.641  -0.155   5.529  1.00  0.00     0.037 C 
HETATM   15  C3  UNL     1      16.229  -0.468   5.781  1.00  0.00     0.037 C 
HETATM   16  C4  UNL     1      17.470  -1.805   4.110  1.00  0.00     0.037 C 
ENDBRANCH  10  13
ENDBRANCH   4   9
BRANCH   6  17
HETATM   17  C8  UNL     1      16.819  -5.853   5.512  1.00  0.00     0.312 C 
BRANCH  17  18
HETATM   18  C9  UNL     1      15.812  -6.936   5.218  1.00  0.00    -0.015 A 
HETATM   19  C10 UNL     1      14.477  -6.641   5.089  1.00  0.00     0.011 A 
HETATM   20  C11 UNL     1      13.574  -7.634   4.821  1.00  0.00     0.018 A 
HETATM   21  C12 UNL     1      14.010  -8.928   4.684  1.00  0.00     0.087 A 
HETATM   22  N3  UNL     1      15.316  -9.221   4.811  1.00  0.00    -0.375 N 
HETATM   23  C13 UNL     1      16.213  -8.246   5.075  1.00  0.00     0.096 A 
ATOM     24  H3  UNL     1      15.632 -10.185   4.707  1.00  0.00     0.164 HD
ENDBRANCH  17  18
ENDBRANCH   6  17
ENDBRANCH   2   3
ENDBRANCH   1   2
BRANCH   1  25
HETATM   25  O2  UNL     1      20.423  -3.171  10.212  1.00  0.00    -0.394 OA
ATOM     26  H2  UNL     1      20.937  -3.295  11.001  1.00  0.00     0.210 HD
ENDBRANCH   1  25
BRANCH   1  27
HETATM   27  C18 UNL     1      18.472  -1.937  10.273  1.00  0.00     0.047 C 
BRANCH  27  28
HETATM   28  C19 UNL     1      17.957  -1.141  11.443  1.00  0.00     0.084 C 
BRANCH  28  29
HETATM   29  C20 UNL     1      18.874  -1.046  12.581  1.00  0.00     0.052 C 
BRANCH  29  30
HETATM   30  C21 UNL     1      18.261  -0.950  13.912  1.00  0.00    -0.057 A 
HETATM   31  C22 UNL     1      18.711  -1.866  14.872  1.00  0.00     0.007 A 
HETATM   32  C23 UNL     1      18.238  -1.854  16.170  1.00  0.00     0.001 A 
HETATM   33  C24 UNL     1      17.296  -0.929  16.566  1.00  0.00     0.000 A 
HETATM   34  C25 UNL     1      16.848  -0.025  15.628  1.00  0.00     0.001 A 
HETATM   35  C26 UNL     1      17.326  -0.033  14.312  1.00  0.00     0.007 A 
ENDBRANCH  29  30
ENDBRANCH  28  29
BRANCH  28  36
HETATM   36  C27 UNL     1      17.390   0.148  11.040  1.00  0.00     0.222 C 
HETATM   37  O3  UNL     1      16.194   0.279  10.756  1.00  0.00    -0.273 OA
HETATM   38  N5  UNL     1      18.184   1.332  10.952  1.00  0.00    -0.350 N 
ATOM     39  H5  UNL     1      19.178   1.285  11.176  1.00  0.00     0.163 HD
BRANCH  38  40
HETATM   40  C28 UNL     1      17.613   2.583  10.555  1.00  0.00     0.147 C 
HETATM   41  C29 UNL     1      17.680   3.611  11.604  1.00  0.00    -0.027 A 
HETATM   42  C30 UNL     1      16.852   3.875  12.665  1.00  0.00     0.010 A 
HETATM   43  C34 UNL     1      18.795   4.386  11.400  1.00  0.00    -0.047 A 
HETATM   44  C31 UNL     1      17.125   4.907  13.528  1.00  0.00     0.001 A 
HETATM   45  C32 UNL     1      18.253   5.678  13.306  1.00  0.00     0.001 A 
HETATM   46  C33 UNL     1      19.116   5.437  12.238  1.00  0.00     0.008 A 
HETATM   47  C35 UNL     1      19.533   3.909  10.190  1.00  0.00     0.073 C 
HETATM   48  C36 UNL     1      18.463   3.151   9.431  1.00  0.00     0.149 C 
BRANCH  48  49
HETATM   49  O4  UNL     1      19.070   2.089   8.786  1.00  0.00    -0.393 OA
ATOM     50  H4  UNL     1      19.139   2.313   7.866  1.00  0.00     0.210 HD
ENDBRANCH  48  49
ENDBRANCH  38  40
ENDBRANCH  28  36
ENDBRANCH  27  28
ENDBRANCH   1  27
TORSDOF 14
ENDMDL
