MODEL 4
REMARK VINA RESULT: -8.604512698      2.046     11.078
REMARK  19 active torsions:
REMARK  status: ('A' for Active; 'I' for Inactive)
REMARK    1  A    between atoms: O1_2  and  C2_3 
REMARK    2  A    between atoms: C2_3  and  C3_5 
REMARK    3  A    between atoms: C3_5  and  N1_6 
REMARK    4  A    between atoms: C3_5  and  C27_47 
REMARK       I    between atoms: N1_6  and  C4_8 
REMARK    5  A    between atoms: C4_8  and  C5_10 
REMARK    6  A    between atoms: C5_10  and  N2_11 
REMARK    7  A    between atoms: C5_10  and  C24_44 
REMARK       I    between atoms: N2_11  and  C6_13 
REMARK    8  A    between atoms: C6_13  and  C7_15 
REMARK    9  A    between atoms: C7_15  and  C8_16 
REMARK   10  A    between atoms: C8_16  and  C9_17 
REMARK   11  A    between atoms: C9_17  and  O5_18 
REMARK   12  A    between atoms: C9_17  and  C10_20 
REMARK   13  A    between atoms: C10_20  and  C11_21 
REMARK   14  A    between atoms: C10_20  and  N3_28 
REMARK   15  A    between atoms: C11_21  and  C12_22 
REMARK       I    between atoms: N3_28  and  C18_30 
REMARK   16  A    between atoms: C18_30  and  C19_32 
REMARK   17  A    between atoms: C19_32  and  N4_34 
REMARK       I    between atoms: N4_34  and  C21_36 
REMARK   18  A    between atoms: C21_36  and  C22_38 
REMARK   19  A    between atoms: C22_38  and  N5_40 
ROOT
HETATM    1  C9  UNL     1       2.631  12.837  40.795  1.00  0.00     0.063 C 
ENDROOT
BRANCH   1   2
HETATM    2  C8  UNL     1       2.489  13.056  39.351  1.00  0.00     0.017 C 
BRANCH   2   3
HETATM    3  C7  UNL     1       3.077  14.196  38.661  1.00  0.00     0.132 C 
BRANCH   3   4
HETATM    4  C6  UNL     1       3.599  14.021  37.309  1.00  0.00     0.221 C 
HETATM    5  N2  UNL     1       4.576  14.901  36.769  1.00  0.00    -0.347 N 
ATOM      6  H2  UNL     1       4.926  15.680  37.328  1.00  0.00     0.163 HD
HETATM    7  O4  UNL     1       3.207  13.092  36.592  1.00  0.00    -0.273 OA
BRANCH   5   8
HETATM    8  C5  UNL     1       5.088  14.683  35.388  1.00  0.00     0.180 C 
BRANCH   8   9
HETATM    9  C4  UNL     1       6.595  14.642  35.494  1.00  0.00     0.241 C 
HETATM   10  N1  UNL     1       7.392  13.628  34.913  1.00  0.00    -0.345 N 
ATOM     11  H1  UNL     1       6.962  12.879  34.370  1.00  0.00     0.163 HD
HETATM   12  O3  UNL     1       7.180  15.576  36.152  1.00  0.00    -0.271 OA
BRANCH  10  13
HETATM   13  C3  UNL     1       8.835  13.671  35.101  1.00  0.00     0.187 C 
BRANCH  13  14
HETATM   14  C2  UNL     1       9.464  14.030  33.795  1.00  0.00     0.281 C 
HETATM   15  O2  UNL     1      10.604  14.510  33.657  1.00  0.00    -0.263 OA
BRANCH  14  16
HETATM   16  O1  UNL     1       8.671  13.786  32.676  1.00  0.00    -0.325 OA
HETATM   17  C1  UNL     1       8.481  14.677  31.614  1.00  0.00     0.213 C 
ENDBRANCH  14  16
ENDBRANCH  13  14
BRANCH  13  18
HETATM   18  C27 UNL     1       9.383  12.361  35.552  1.00  0.00     0.010 C 
HETATM   19  C28 UNL     1      10.834  12.449  35.975  1.00  0.00     0.012 C 
HETATM   20  C29 UNL     1       9.358  11.349  34.398  1.00  0.00     0.012 C 
ENDBRANCH  13  18
ENDBRANCH  10  13
ENDBRANCH   8   9
BRANCH   8  21
HETATM   21  C24 UNL     1       4.551  15.689  34.464  1.00  0.00     0.009 C 
HETATM   22  C25 UNL     1       5.225  15.858  33.142  1.00  0.00     0.012 C 
HETATM   23  C26 UNL     1       3.064  15.455  34.147  1.00  0.00     0.012 C 
ENDBRANCH   8  21
ENDBRANCH   5   8
ENDBRANCH   3   4
ENDBRANCH   2   3
ENDBRANCH   1   2
BRANCH   1  24
HETATM   24  O5  UNL     1       2.559  13.897  41.648  1.00  0.00    -0.363 OA
ATOM     25  H5  UNL     1       1.928  13.887  42.359  1.00  0.00     0.217 HD
ENDBRANCH   1  24
BRANCH   1  26
HETATM   26  C10 UNL     1       3.619  11.821  41.252  1.00  0.00     0.145 C 
BRANCH  26  27
HETATM   27  C11 UNL     1       4.426  11.174  40.183  1.00  0.00     0.070 C 
BRANCH  27  28
HETATM   28  C12 UNL     1       5.609  11.928  39.728  1.00  0.00    -0.056 A 
HETATM   29  C13 UNL     1       6.381  11.440  38.690  1.00  0.00     0.007 A 
HETATM   30  C14 UNL     1       7.493  12.124  38.227  1.00  0.00     0.001 A 
HETATM   31  C15 UNL     1       7.872  13.324  38.789  1.00  0.00     0.000 A 
HETATM   32  C16 UNL     1       7.096  13.816  39.831  1.00  0.00     0.001 A 
HETATM   33  C17 UNL     1       6.005  13.130  40.275  1.00  0.00     0.007 A 
ENDBRANCH  27  28
ENDBRANCH  26  27
BRANCH  26  34
HETATM   34  N3  UNL     1       3.017  10.807  42.103  1.00  0.00    -0.348 N 
HETATM   35  C18 UNL     1       3.676  10.205  43.219  1.00  0.00     0.240 C 
HETATM   36  O6  UNL     1       4.838  10.585  43.466  1.00  0.00    -0.271 OA
ATOM     37  H3  UNL     1       2.065  10.508  41.891  1.00  0.00     0.163 HD
BRANCH  35  38
HETATM   38  C19 UNL     1       2.975   9.169  44.043  1.00  0.00     0.172 C 
HETATM   39  C20 UNL     1       3.818   7.954  44.280  1.00  0.00     0.042 C 
BRANCH  38  40
HETATM   40  N4  UNL     1       1.634   8.927  43.624  1.00  0.00    -0.346 N 
HETATM   41  C21 UNL     1       0.442   9.392  44.194  1.00  0.00     0.248 C 
HETATM   42  O7  UNL     1       0.523  10.140  45.218  1.00  0.00    -0.271 OA
ATOM     43  H4  UNL     1       1.528   8.336  42.799  1.00  0.00     0.163 HD
BRANCH  41  44
HETATM   44  C22 UNL     1      -0.924   9.067  43.680  1.00  0.00     0.270 C 
HETATM   45  C23 UNL     1      -1.892   9.594  44.718  1.00  0.00     0.050 C 
BRANCH  44  46
HETATM   46  N5  UNL     1      -1.113   7.626  43.614  1.00  0.00    -0.067 N 
ATOM     47  H53 UNL     1      -0.460   7.188  42.964  1.00  0.00     0.275 HD
ATOM     48  H52 UNL     1      -0.809   7.164  44.470  1.00  0.00     0.275 HD
ATOM     49  H51 UNL     1      -2.082   7.403  43.386  1.00  0.00     0.275 HD
ENDBRANCH  44  46
ENDBRANCH  41  44
ENDBRANCH  38  40
ENDBRANCH  35  38
ENDBRANCH  26  34
ENDBRANCH   1  26
TORSDOF 19
ENDMDL
