MODEL 8
REMARK VINA RESULT: -8.359382856      1.383      1.750
REMARK  19 active torsions:
REMARK  status: ('A' for Active; 'I' for Inactive)
REMARK    1  A    between atoms: O1_2  and  C2_3 
REMARK    2  A    between atoms: C2_3  and  C3_5 
REMARK    3  A    between atoms: C3_5  and  N1_6 
REMARK    4  A    between atoms: C3_5  and  C27_47 
REMARK       I    between atoms: N1_6  and  C4_8 
REMARK    5  A    between atoms: C4_8  and  C5_10 
REMARK    6  A    between atoms: C5_10  and  N2_11 
REMARK    7  A    between atoms: C5_10  and  C24_44 
REMARK       I    between atoms: N2_11  and  C6_13 
REMARK    8  A    between atoms: C6_13  and  C7_15 
REMARK    9  A    between atoms: C7_15  and  C8_16 
REMARK   10  A    between atoms: C8_16  and  C9_17 
REMARK   11  A    between atoms: C9_17  and  O5_18 
REMARK   12  A    between atoms: C9_17  and  C10_20 
REMARK   13  A    between atoms: C10_20  and  C11_21 
REMARK   14  A    between atoms: C10_20  and  N3_28 
REMARK   15  A    between atoms: C11_21  and  C12_22 
REMARK       I    between atoms: N3_28  and  C18_30 
REMARK   16  A    between atoms: C18_30  and  C19_32 
REMARK   17  A    between atoms: C19_32  and  N4_34 
REMARK       I    between atoms: N4_34  and  C21_36 
REMARK   18  A    between atoms: C21_36  and  C22_38 
REMARK   19  A    between atoms: C22_38  and  N5_40 
ROOT
HETATM    1  C9  UNL     1       1.984  11.930  38.589  1.00  0.00     0.063 C 
ENDROOT
BRANCH   1   2
HETATM    2  C8  UNL     1       1.840  12.638  39.866  1.00  0.00     0.017 C 
BRANCH   2   3
HETATM    3  C7  UNL     1       1.057  12.115  40.978  1.00  0.00     0.132 C 
BRANCH   3   4
HETATM    4  C6  UNL     1       1.395  10.811  41.538  1.00  0.00     0.221 C 
HETATM    5  N2  UNL     1       2.258  10.684  42.660  1.00  0.00    -0.347 N 
ATOM      6  H2  UNL     1       2.662  11.517  43.090  1.00  0.00     0.163 HD
HETATM    7  O4  UNL     1       0.930   9.771  41.054  1.00  0.00    -0.273 OA
BRANCH   5   8
HETATM    8  C5  UNL     1       2.572   9.335  43.207  1.00  0.00     0.180 C 
BRANCH   8   9
HETATM    9  C4  UNL     1       1.526   9.048  44.260  1.00  0.00     0.241 C 
HETATM   10  N1  UNL     1       0.281   8.440  43.979  1.00  0.00    -0.345 N 
ATOM     11  H1  UNL     1       0.048   8.149  43.029  1.00  0.00     0.163 HD
HETATM   12  O3  UNL     1       1.784   9.381  45.473  1.00  0.00    -0.271 OA
BRANCH  10  13
HETATM   13  C3  UNL     1      -0.665   8.236  45.066  1.00  0.00     0.187 C 
BRANCH  13  14
HETATM   14  C2  UNL     1      -0.721   6.774  45.366  1.00  0.00     0.281 C 
HETATM   15  O2  UNL     1       0.144   5.942  45.040  1.00  0.00    -0.263 OA
BRANCH  14  16
HETATM   16  O1  UNL     1      -1.851   6.365  46.071  1.00  0.00    -0.325 OA
HETATM   17  C1  UNL     1      -1.841   5.802  47.352  1.00  0.00     0.213 C 
ENDBRANCH  14  16
ENDBRANCH  13  14
BRANCH  13  18
HETATM   18  C27 UNL     1      -2.035   8.706  44.716  1.00  0.00     0.010 C 
HETATM   19  C28 UNL     1      -2.450   8.308  43.315  1.00  0.00     0.012 C 
HETATM   20  C29 UNL     1      -2.091  10.240  44.735  1.00  0.00     0.012 C 
ENDBRANCH  13  18
ENDBRANCH  10  13
ENDBRANCH   8   9
BRANCH   8  21
HETATM   21  C24 UNL     1       3.963   9.266  43.669  1.00  0.00     0.009 C 
HETATM   22  C25 UNL     1       4.656   7.944  43.612  1.00  0.00     0.012 C 
HETATM   23  C26 UNL     1       4.877  10.248  42.916  1.00  0.00     0.012 C 
ENDBRANCH   8  21
ENDBRANCH   5   8
ENDBRANCH   3   4
ENDBRANCH   2   3
ENDBRANCH   1   2
BRANCH   1  24
HETATM   24  O5  UNL     1       1.256  10.802  38.357  1.00  0.00    -0.363 OA
ATOM     25  H5  UNL     1       0.886  10.649  37.495  1.00  0.00     0.217 HD
ENDBRANCH   1  24
BRANCH   1  26
HETATM   26  C10 UNL     1       3.344  11.848  37.987  1.00  0.00     0.145 C 
BRANCH  26  27
HETATM   27  C11 UNL     1       4.428  11.389  38.894  1.00  0.00     0.070 C 
BRANCH  27  28
HETATM   28  C12 UNL     1       5.672  12.180  38.859  1.00  0.00    -0.056 A 
HETATM   29  C13 UNL     1       5.924  13.116  39.845  1.00  0.00     0.007 A 
HETATM   30  C14 UNL     1       7.086  13.870  39.852  1.00  0.00     0.001 A 
HETATM   31  C15 UNL     1       8.039  13.713  38.869  1.00  0.00     0.000 A 
HETATM   32  C16 UNL     1       7.788  12.772  37.879  1.00  0.00     0.001 A 
HETATM   33  C17 UNL     1       6.640  12.038  37.886  1.00  0.00     0.007 A 
ENDBRANCH  27  28
ENDBRANCH  26  27
BRANCH  26  34
HETATM   34  N3  UNL     1       3.734  13.086  37.331  1.00  0.00    -0.348 N 
HETATM   35  C18 UNL     1       3.489  13.372  35.951  1.00  0.00     0.240 C 
HETATM   36  O6  UNL     1       2.901  12.496  35.285  1.00  0.00    -0.271 OA
ATOM     37  H3  UNL     1       4.211  13.794  37.889  1.00  0.00     0.163 HD
BRANCH  35  38
HETATM   38  C19 UNL     1       3.924  14.678  35.361  1.00  0.00     0.172 C 
HETATM   39  C20 UNL     1       2.794  15.424  34.722  1.00  0.00     0.042 C 
BRANCH  38  40
HETATM   40  N4  UNL     1       5.121  14.579  34.593  1.00  0.00    -0.346 N 
HETATM   41  C21 UNL     1       6.417  14.983  34.939  1.00  0.00     0.248 C 
HETATM   42  O7  UNL     1       6.594  15.502  36.085  1.00  0.00    -0.271 OA
ATOM     43  H4  UNL     1       5.021  14.160  33.669  1.00  0.00     0.163 HD
BRANCH  41  44
HETATM   44  C22 UNL     1       7.611  14.845  34.050  1.00  0.00     0.270 C 
HETATM   45  C23 UNL     1       7.088  14.970  32.634  1.00  0.00     0.050 C 
BRANCH  44  46
HETATM   46  N5  UNL     1       8.190  13.517  34.176  1.00  0.00    -0.067 N 
ATOM     47  H53 UNL     1       8.478  13.319  35.134  1.00  0.00     0.275 HD
ATOM     48  H52 UNL     1       7.486  12.786  34.074  1.00  0.00     0.275 HD
ATOM     49  H51 UNL     1       8.959  13.398  33.516  1.00  0.00     0.275 HD
ENDBRANCH  44  46
ENDBRANCH  41  44
ENDBRANCH  38  40
ENDBRANCH  35  38
ENDBRANCH  26  34
ENDBRANCH   1  26
TORSDOF 19
ENDMDL
