MODEL 3
REMARK VINA RESULT: -8.702385899      1.271      1.527
REMARK  19 active torsions:
REMARK  status: ('A' for Active; 'I' for Inactive)
REMARK    1  A    between atoms: O1_2  and  C2_3 
REMARK    2  A    between atoms: C2_3  and  C3_5 
REMARK    3  A    between atoms: C3_5  and  N1_6 
REMARK    4  A    between atoms: C3_5  and  C27_47 
REMARK       I    between atoms: N1_6  and  C4_8 
REMARK    5  A    between atoms: C4_8  and  C5_10 
REMARK    6  A    between atoms: C5_10  and  N2_11 
REMARK    7  A    between atoms: C5_10  and  C24_44 
REMARK       I    between atoms: N2_11  and  C6_13 
REMARK    8  A    between atoms: C6_13  and  C7_15 
REMARK    9  A    between atoms: C7_15  and  C8_16 
REMARK   10  A    between atoms: C8_16  and  C9_17 
REMARK   11  A    between atoms: C9_17  and  O5_18 
REMARK   12  A    between atoms: C9_17  and  C10_20 
REMARK   13  A    between atoms: C10_20  and  C11_21 
REMARK   14  A    between atoms: C10_20  and  N3_28 
REMARK   15  A    between atoms: C11_21  and  C12_22 
REMARK       I    between atoms: N3_28  and  C18_30 
REMARK   16  A    between atoms: C18_30  and  C19_32 
REMARK   17  A    between atoms: C19_32  and  N4_34 
REMARK       I    between atoms: N4_34  and  C21_36 
REMARK   18  A    between atoms: C21_36  and  C22_38 
REMARK   19  A    between atoms: C22_38  and  N5_40 
ROOT
HETATM    1  C9  UNL     1       3.239  13.350  40.572  1.00  0.00     0.063 C 
ENDROOT
BRANCH   1   2
HETATM    2  C8  UNL     1       1.863  13.051  40.984  1.00  0.00     0.017 C 
BRANCH   2   3
HETATM    3  C7  UNL     1       1.208  11.783  40.695  1.00  0.00     0.132 C 
BRANCH   3   4
HETATM    4  C6  UNL     1       1.538  10.610  41.499  1.00  0.00     0.221 C 
HETATM    5  N2  UNL     1       1.695  10.694  42.908  1.00  0.00    -0.347 N 
ATOM      6  H2  UNL     1       1.582  11.591  43.382  1.00  0.00     0.163 HD
HETATM    7  O4  UNL     1       1.685   9.500  40.972  1.00  0.00    -0.273 OA
BRANCH   5   8
HETATM    8  C5  UNL     1       2.025   9.472  43.693  1.00  0.00     0.180 C 
BRANCH   8   9
HETATM    9  C4  UNL     1       0.761   9.081  44.424  1.00  0.00     0.241 C 
HETATM   10  N1  UNL     1      -0.019   7.951  44.085  1.00  0.00    -0.345 N 
ATOM     11  H1  UNL     1       0.266   7.334  43.324  1.00  0.00     0.163 HD
HETATM   12  O3  UNL     1       0.374   9.819  45.400  1.00  0.00    -0.271 OA
BRANCH  10  13
HETATM   13  C3  UNL     1      -1.235   7.682  44.838  1.00  0.00     0.187 C 
BRANCH  13  14
HETATM   14  C2  UNL     1      -1.175   6.275  45.333  1.00  0.00     0.281 C 
HETATM   15  O2  UNL     1      -0.439   5.384  44.872  1.00  0.00    -0.263 OA
BRANCH  14  16
HETATM   16  O1  UNL     1      -2.029   5.992  46.396  1.00  0.00    -0.325 OA
HETATM   17  C1  UNL     1      -1.622   5.553  47.661  1.00  0.00     0.213 C 
ENDBRANCH  14  16
ENDBRANCH  13  14
BRANCH  13  18
HETATM   18  C27 UNL     1      -2.461   7.846  44.006  1.00  0.00     0.010 C 
HETATM   19  C28 UNL     1      -2.240   7.461  42.559  1.00  0.00     0.012 C 
HETATM   20  C29 UNL     1      -2.887   9.321  43.973  1.00  0.00     0.012 C 
ENDBRANCH  13  18
ENDBRANCH  10  13
ENDBRANCH   8   9
BRANCH   8  21
HETATM   21  C24 UNL     1       3.199   9.697  44.545  1.00  0.00     0.009 C 
HETATM   22  C25 UNL     1       3.525   8.664  45.575  1.00  0.00     0.012 C 
HETATM   23  C26 UNL     1       4.486   9.890  43.726  1.00  0.00     0.012 C 
ENDBRANCH   8  21
ENDBRANCH   5   8
ENDBRANCH   3   4
ENDBRANCH   2   3
ENDBRANCH   1   2
BRANCH   1  24
HETATM   24  O5  UNL     1       3.646  14.647  40.467  1.00  0.00    -0.363 OA
ATOM     25  H5  UNL     1       4.371  14.868  39.894  1.00  0.00     0.217 HD
ENDBRANCH   1  24
BRANCH   1  26
HETATM   26  C10 UNL     1       3.857  12.487  39.528  1.00  0.00     0.145 C 
BRANCH  26  27
HETATM   27  C11 UNL     1       5.173  11.889  39.876  1.00  0.00     0.070 C 
BRANCH  27  28
HETATM   28  C12 UNL     1       6.329  12.391  39.110  1.00  0.00    -0.056 A 
HETATM   29  C13 UNL     1       6.921  13.589  39.461  1.00  0.00     0.007 A 
HETATM   30  C14 UNL     1       8.015  14.089  38.773  1.00  0.00     0.001 A 
HETATM   31  C15 UNL     1       8.556  13.402  37.708  1.00  0.00     0.000 A 
HETATM   32  C16 UNL     1       7.963  12.196  37.356  1.00  0.00     0.001 A 
HETATM   33  C17 UNL     1       6.887  11.719  38.043  1.00  0.00     0.007 A 
ENDBRANCH  27  28
ENDBRANCH  26  27
BRANCH  26  34
HETATM   34  N3  UNL     1       3.939  13.152  38.237  1.00  0.00    -0.348 N 
HETATM   35  C18 UNL     1       3.032  12.916  37.157  1.00  0.00     0.240 C 
HETATM   36  O6  UNL     1       2.120  12.087  37.350  1.00  0.00    -0.271 OA
ATOM     37  H3  UNL     1       4.688  13.829  38.094  1.00  0.00     0.163 HD
BRANCH  35  38
HETATM   38  C19 UNL     1       3.191  13.651  35.862  1.00  0.00     0.172 C 
HETATM   39  C20 UNL     1       2.599  12.910  34.703  1.00  0.00     0.042 C 
BRANCH  38  40
HETATM   40  N4  UNL     1       4.504  14.172  35.665  1.00  0.00    -0.346 N 
HETATM   41  C21 UNL     1       4.886  15.374  35.057  1.00  0.00     0.248 C 
HETATM   42  O7  UNL     1       3.971  16.136  34.615  1.00  0.00    -0.271 OA
ATOM     43  H4  UNL     1       5.267  13.591  36.015  1.00  0.00     0.163 HD
BRANCH  41  44
HETATM   44  C22 UNL     1       6.302  15.823  34.889  1.00  0.00     0.270 C 
HETATM   45  C23 UNL     1       7.089  14.583  34.521  1.00  0.00     0.050 C 
BRANCH  44  46
HETATM   46  N5  UNL     1       6.836  16.308  36.152  1.00  0.00    -0.067 N 
ATOM     47  H53 UNL     1       6.795  17.326  36.215  1.00  0.00     0.275 HD
ATOM     48  H52 UNL     1       6.222  16.083  36.934  1.00  0.00     0.275 HD
ATOM     49  H51 UNL     1       7.782  15.957  36.299  1.00  0.00     0.275 HD
ENDBRANCH  44  46
ENDBRANCH  41  44
ENDBRANCH  38  40
ENDBRANCH  35  38
ENDBRANCH  26  34
ENDBRANCH   1  26
TORSDOF 19
ENDMDL
