MODEL 7
REMARK VINA RESULT: -8.406268860      2.375      5.416
REMARK  19 active torsions:
REMARK  status: ('A' for Active; 'I' for Inactive)
REMARK    1  A    between atoms: O1_2  and  C2_3 
REMARK    2  A    between atoms: C2_3  and  C3_5 
REMARK    3  A    between atoms: C3_5  and  N1_6 
REMARK    4  A    between atoms: C3_5  and  C27_47 
REMARK       I    between atoms: N1_6  and  C4_8 
REMARK    5  A    between atoms: C4_8  and  C5_10 
REMARK    6  A    between atoms: C5_10  and  N2_11 
REMARK    7  A    between atoms: C5_10  and  C24_44 
REMARK       I    between atoms: N2_11  and  C6_13 
REMARK    8  A    between atoms: C6_13  and  C7_15 
REMARK    9  A    between atoms: C7_15  and  C8_16 
REMARK   10  A    between atoms: C8_16  and  C9_17 
REMARK   11  A    between atoms: C9_17  and  O5_18 
REMARK   12  A    between atoms: C9_17  and  C10_20 
REMARK   13  A    between atoms: C10_20  and  C11_21 
REMARK   14  A    between atoms: C10_20  and  N3_28 
REMARK   15  A    between atoms: C11_21  and  C12_22 
REMARK       I    between atoms: N3_28  and  C18_30 
REMARK   16  A    between atoms: C18_30  and  C19_32 
REMARK   17  A    between atoms: C19_32  and  N4_34 
REMARK       I    between atoms: N4_34  and  C21_36 
REMARK   18  A    between atoms: C21_36  and  C22_38 
REMARK   19  A    between atoms: C22_38  and  N5_40 
ROOT
HETATM    1  C9  UNL     1       2.834  11.861  41.924  1.00  0.00     0.063 C 
ENDROOT
BRANCH   1   2
HETATM    2  C8  UNL     1       1.616  11.338  41.294  1.00  0.00     0.017 C 
BRANCH   2   3
HETATM    3  C7  UNL     1       1.016  10.063  41.665  1.00  0.00     0.132 C 
BRANCH   3   4
HETATM    4  C6  UNL     1       0.389   9.925  42.976  1.00  0.00     0.221 C 
HETATM    5  N2  UNL     1      -0.905   9.357  43.125  1.00  0.00    -0.347 N 
ATOM      6  H2  UNL     1      -1.421   9.040  42.304  1.00  0.00     0.163 HD
HETATM    7  O4  UNL     1       0.974  10.293  44.003  1.00  0.00    -0.273 OA
BRANCH   5   8
HETATM    8  C5  UNL     1      -1.506   9.226  44.481  1.00  0.00     0.180 C 
BRANCH   8   9
HETATM    9  C4  UNL     1      -1.929   7.782  44.622  1.00  0.00     0.241 C 
HETATM   10  N1  UNL     1      -1.498   6.753  43.752  1.00  0.00    -0.345 N 
ATOM     11  H1  UNL     1      -0.853   6.956  42.988  1.00  0.00     0.163 HD
HETATM   12  O3  UNL     1      -2.727   7.477  45.580  1.00  0.00    -0.271 OA
BRANCH  10  13
HETATM   13  C3  UNL     1      -1.991   5.400  43.963  1.00  0.00     0.187 C 
BRANCH  13  14
HETATM   14  C2  UNL     1      -0.889   4.592  44.565  1.00  0.00     0.281 C 
HETATM   15  O2  UNL     1      -0.008   5.034  45.324  1.00  0.00    -0.263 OA
BRANCH  14  16
HETATM   16  O1  UNL     1      -0.896   3.243  44.218  1.00  0.00    -0.325 OA
HETATM   17  C1  UNL     1      -0.849   2.178  45.125  1.00  0.00     0.213 C 
ENDBRANCH  14  16
ENDBRANCH  13  14
BRANCH  13  18
HETATM   18  C27 UNL     1      -2.419   4.752  42.691  1.00  0.00     0.010 C 
HETATM   19  C28 UNL     1      -2.393   5.703  41.513  1.00  0.00     0.012 C 
HETATM   20  C29 UNL     1      -3.878   4.283  42.800  1.00  0.00     0.012 C 
ENDBRANCH  13  18
ENDBRANCH  10  13
ENDBRANCH   8   9
BRANCH   8  21
HETATM   21  C24 UNL     1      -2.573  10.215  44.680  1.00  0.00     0.009 C 
HETATM   22  C25 UNL     1      -2.193  11.660  44.703  1.00  0.00     0.012 C 
HETATM   23  C26 UNL     1      -3.685  10.093  43.625  1.00  0.00     0.012 C 
ENDBRANCH   8  21
ENDBRANCH   5   8
ENDBRANCH   3   4
ENDBRANCH   2   3
ENDBRANCH   1   2
BRANCH   1  24
HETATM   24  O5  UNL     1       2.974  13.203  42.110  1.00  0.00    -0.363 OA
ATOM     25  H5  UNL     1       3.724  13.654  41.737  1.00  0.00     0.217 HD
ENDBRANCH   1  24
BRANCH   1  26
HETATM   26  C10 UNL     1       4.129  11.207  41.586  1.00  0.00     0.145 C 
BRANCH  26  27
HETATM   27  C11 UNL     1       4.949  10.757  42.741  1.00  0.00     0.070 C 
BRANCH  27  28
HETATM   28  C12 UNL     1       4.343   9.715  43.591  1.00  0.00    -0.056 A 
HETATM   29  C13 UNL     1       4.159   9.945  44.941  1.00  0.00     0.007 A 
HETATM   30  C14 UNL     1       3.585   8.995  45.770  1.00  0.00     0.001 A 
HETATM   31  C15 UNL     1       3.171   7.778  45.272  1.00  0.00     0.000 A 
HETATM   32  C16 UNL     1       3.354   7.546  43.915  1.00  0.00     0.001 A 
HETATM   33  C17 UNL     1       3.922   8.491  43.114  1.00  0.00     0.007 A 
ENDBRANCH  27  28
ENDBRANCH  26  27
BRANCH  26  34
HETATM   34  N3  UNL     1       4.937  12.013  40.686  1.00  0.00    -0.348 N 
HETATM   35  C18 UNL     1       5.149  11.703  39.306  1.00  0.00     0.240 C 
HETATM   36  O6  UNL     1       4.598  10.675  38.863  1.00  0.00    -0.271 OA
ATOM     37  H3  UNL     1       5.380  12.852  41.061  1.00  0.00     0.163 HD
BRANCH  35  38
HETATM   38  C19 UNL     1       5.996  12.595  38.451  1.00  0.00     0.172 C 
HETATM   39  C20 UNL     1       6.851  13.523  39.259  1.00  0.00     0.042 C 
BRANCH  38  40
HETATM   40  N4  UNL     1       5.280  13.187  37.370  1.00  0.00    -0.346 N 
HETATM   41  C21 UNL     1       4.050  13.855  37.398  1.00  0.00     0.248 C 
HETATM   42  O7  UNL     1       3.465  13.981  38.519  1.00  0.00    -0.271 OA
ATOM     43  H4  UNL     1       5.722  13.113  36.454  1.00  0.00     0.163 HD
BRANCH  41  44
HETATM   44  C22 UNL     1       3.373  14.432  36.196  1.00  0.00     0.270 C 
HETATM   45  C23 UNL     1       2.035  13.729  36.097  1.00  0.00     0.050 C 
BRANCH  44  46
HETATM   46  N5  UNL     1       4.116  14.107  34.989  1.00  0.00    -0.067 N 
ATOM     47  H53 UNL     1       3.738  13.283  34.521  1.00  0.00     0.275 HD
ATOM     48  H52 UNL     1       3.954  14.789  34.249  1.00  0.00     0.275 HD
ATOM     49  H51 UNL     1       5.109  14.001  35.198  1.00  0.00     0.275 HD
ENDBRANCH  44  46
ENDBRANCH  41  44
ENDBRANCH  38  40
ENDBRANCH  35  38
ENDBRANCH  26  34
ENDBRANCH   1  26
TORSDOF 19
ENDMDL
