MODEL 1
REMARK VINA RESULT: -9.160578306      0.000      0.000
REMARK  19 active torsions:
REMARK  status: ('A' for Active; 'I' for Inactive)
REMARK    1  A    between atoms: O1_2  and  C2_3 
REMARK    2  A    between atoms: C2_3  and  C3_5 
REMARK    3  A    between atoms: C3_5  and  N1_6 
REMARK    4  A    between atoms: C3_5  and  C27_47 
REMARK       I    between atoms: N1_6  and  C4_8 
REMARK    5  A    between atoms: C4_8  and  C5_10 
REMARK    6  A    between atoms: C5_10  and  N2_11 
REMARK    7  A    between atoms: C5_10  and  C24_44 
REMARK       I    between atoms: N2_11  and  C6_13 
REMARK    8  A    between atoms: C6_13  and  C7_15 
REMARK    9  A    between atoms: C7_15  and  C8_16 
REMARK   10  A    between atoms: C8_16  and  C9_17 
REMARK   11  A    between atoms: C9_17  and  O5_18 
REMARK   12  A    between atoms: C9_17  and  C10_20 
REMARK   13  A    between atoms: C10_20  and  C11_21 
REMARK   14  A    between atoms: C10_20  and  N3_28 
REMARK   15  A    between atoms: C11_21  and  C12_22 
REMARK       I    between atoms: N3_28  and  C18_30 
REMARK   16  A    between atoms: C18_30  and  C19_32 
REMARK   17  A    between atoms: C19_32  and  N4_34 
REMARK       I    between atoms: N4_34  and  C21_36 
REMARK   18  A    between atoms: C21_36  and  C22_38 
REMARK   19  A    between atoms: C22_38  and  N5_40 
ROOT
HETATM    1  C9  UNL     1       3.499  13.370  40.037  1.00  0.00     0.063 C 
ENDROOT
BRANCH   1   2
HETATM    2  C8  UNL     1       2.198  12.735  39.798  1.00  0.00     0.017 C 
BRANCH   2   3
HETATM    3  C7  UNL     1       1.334  12.269  40.874  1.00  0.00     0.132 C 
BRANCH   3   4
HETATM    4  C6  UNL     1       1.554  10.943  41.443  1.00  0.00     0.221 C 
HETATM    5  N2  UNL     1       2.285  10.763  42.648  1.00  0.00    -0.347 N 
ATOM      6  H2  UNL     1       2.675  11.570  43.135  1.00  0.00     0.163 HD
HETATM    7  O4  UNL     1       1.102   9.932  40.891  1.00  0.00    -0.273 OA
BRANCH   5   8
HETATM    8  C5  UNL     1       2.481   9.393  43.200  1.00  0.00     0.180 C 
BRANCH   8   9
HETATM    9  C4  UNL     1       1.351   9.161  44.176  1.00  0.00     0.241 C 
HETATM   10  N1  UNL     1       0.108   8.593  43.811  1.00  0.00    -0.345 N 
ATOM     11  H1  UNL     1      -0.064   8.295  42.851  1.00  0.00     0.163 HD
HETATM   12  O3  UNL     1       1.530   9.504  45.400  1.00  0.00    -0.271 OA
BRANCH  10  13
HETATM   13  C3  UNL     1      -0.922   8.440  44.828  1.00  0.00     0.187 C 
BRANCH  13  14
HETATM   14  C2  UNL     1      -0.988   6.999  45.212  1.00  0.00     0.281 C 
HETATM   15  O2  UNL     1      -0.246   6.104  44.768  1.00  0.00    -0.263 OA
BRANCH  14  16
HETATM   16  O1  UNL     1      -1.973   6.686  46.146  1.00  0.00    -0.325 OA
HETATM   17  C1  UNL     1      -2.735   5.512  46.150  1.00  0.00     0.213 C 
ENDBRANCH  14  16
ENDBRANCH  13  14
BRANCH  13  18
HETATM   18  C27 UNL     1      -2.264   8.866  44.339  1.00  0.00     0.010 C 
HETATM   19  C28 UNL     1      -2.707   8.104  43.108  1.00  0.00     0.012 C 
HETATM   20  C29 UNL     1      -2.229  10.341  43.911  1.00  0.00     0.012 C 
ENDBRANCH  13  18
ENDBRANCH  10  13
ENDBRANCH   8   9
BRANCH   8  21
HETATM   21  C24 UNL     1       3.831   9.239  43.754  1.00  0.00     0.009 C 
HETATM   22  C25 UNL     1       4.481   7.897  43.654  1.00  0.00     0.012 C 
HETATM   23  C26 UNL     1       4.831  10.233  43.139  1.00  0.00     0.012 C 
ENDBRANCH   8  21
ENDBRANCH   5   8
ENDBRANCH   3   4
ENDBRANCH   2   3
ENDBRANCH   1   2
BRANCH   1  24
HETATM   24  O5  UNL     1       3.553  14.610  40.598  1.00  0.00    -0.363 OA
ATOM     25  H5  UNL     1       2.839  15.221  40.459  1.00  0.00     0.217 HD
ENDBRANCH   1  24
BRANCH   1  26
HETATM   26  C10 UNL     1       4.567  13.174  39.017  1.00  0.00     0.145 C 
BRANCH  26  27
HETATM   27  C11 UNL     1       5.964  13.218  39.524  1.00  0.00     0.070 C 
BRANCH  27  28
HETATM   28  C12 UNL     1       7.021  13.063  38.507  1.00  0.00    -0.056 A 
HETATM   29  C13 UNL     1       7.238  11.830  37.919  1.00  0.00     0.007 A 
HETATM   30  C14 UNL     1       8.213  11.647  36.953  1.00  0.00     0.001 A 
HETATM   31  C15 UNL     1       9.007  12.695  36.540  1.00  0.00     0.000 A 
HETATM   32  C16 UNL     1       8.788  13.934  37.128  1.00  0.00     0.001 A 
HETATM   33  C17 UNL     1       7.825  14.097  38.078  1.00  0.00     0.007 A 
ENDBRANCH  27  28
ENDBRANCH  26  27
BRANCH  26  34
HETATM   34  N3  UNL     1       4.420  14.072  37.883  1.00  0.00    -0.348 N 
HETATM   35  C18 UNL     1       3.872  13.685  36.621  1.00  0.00     0.240 C 
HETATM   36  O6  UNL     1       3.499  12.500  36.502  1.00  0.00    -0.271 OA
ATOM     37  H3  UNL     1       4.727  15.039  37.995  1.00  0.00     0.163 HD
BRANCH  35  38
HETATM   38  C19 UNL     1       3.756  14.681  35.508  1.00  0.00     0.172 C 
HETATM   39  C20 UNL     1       2.354  14.809  34.996  1.00  0.00     0.042 C 
BRANCH  38  40
HETATM   40  N4  UNL     1       4.773  14.544  34.519  1.00  0.00    -0.346 N 
HETATM   41  C21 UNL     1       5.300  15.520  33.665  1.00  0.00     0.248 C 
HETATM   42  O7  UNL     1       4.844  16.703  33.758  1.00  0.00    -0.271 OA
ATOM     43  H4  UNL     1       5.170  13.609  34.419  1.00  0.00     0.163 HD
BRANCH  41  44
HETATM   44  C22 UNL     1       6.364  15.267  32.645  1.00  0.00     0.270 C 
HETATM   45  C23 UNL     1       7.579  14.805  33.422  1.00  0.00     0.050 C 
BRANCH  44  46
HETATM   46  N5  UNL     1       6.731  16.505  31.975  1.00  0.00    -0.067 N 
ATOM     47  H53 UNL     1       6.186  16.652  31.126  1.00  0.00     0.275 HD
ATOM     48  H52 UNL     1       6.424  17.325  32.498  1.00  0.00     0.275 HD
ATOM     49  H51 UNL     1       7.734  16.527  31.790  1.00  0.00     0.275 HD
ENDBRANCH  44  46
ENDBRANCH  41  44
ENDBRANCH  38  40
ENDBRANCH  35  38
ENDBRANCH  26  34
ENDBRANCH   1  26
TORSDOF 19
ENDMDL
