MODEL 11
REMARK VINA RESULT: -8.278252352      2.545      5.441
REMARK  19 active torsions:
REMARK  status: ('A' for Active; 'I' for Inactive)
REMARK    1  A    between atoms: O1_2  and  C2_3 
REMARK    2  A    between atoms: C2_3  and  C3_5 
REMARK    3  A    between atoms: C3_5  and  N1_6 
REMARK    4  A    between atoms: C3_5  and  C27_47 
REMARK       I    between atoms: N1_6  and  C4_8 
REMARK    5  A    between atoms: C4_8  and  C5_10 
REMARK    6  A    between atoms: C5_10  and  N2_11 
REMARK    7  A    between atoms: C5_10  and  C24_44 
REMARK       I    between atoms: N2_11  and  C6_13 
REMARK    8  A    between atoms: C6_13  and  C7_15 
REMARK    9  A    between atoms: C7_15  and  C8_16 
REMARK   10  A    between atoms: C8_16  and  C9_17 
REMARK   11  A    between atoms: C9_17  and  O5_18 
REMARK   12  A    between atoms: C9_17  and  C10_20 
REMARK   13  A    between atoms: C10_20  and  C11_21 
REMARK   14  A    between atoms: C10_20  and  N3_28 
REMARK   15  A    between atoms: C11_21  and  C12_22 
REMARK       I    between atoms: N3_28  and  C18_30 
REMARK   16  A    between atoms: C18_30  and  C19_32 
REMARK   17  A    between atoms: C19_32  and  N4_34 
REMARK       I    between atoms: N4_34  and  C21_36 
REMARK   18  A    between atoms: C21_36  and  C22_38 
REMARK   19  A    between atoms: C22_38  and  N5_40 
ROOT
HETATM    1  C9  UNL     1       2.834  12.012  41.737  1.00  0.00     0.063 C 
ENDROOT
BRANCH   1   2
HETATM    2  C8  UNL     1       1.728  11.334  41.050  1.00  0.00     0.017 C 
BRANCH   2   3
HETATM    3  C7  UNL     1       1.352   9.954  41.325  1.00  0.00     0.132 C 
BRANCH   3   4
HETATM    4  C6  UNL     1       0.480   9.664  42.459  1.00  0.00     0.221 C 
HETATM    5  N2  UNL     1      -0.691   8.873  42.313  1.00  0.00    -0.347 N 
ATOM      6  H2  UNL     1      -0.943   8.496  41.399  1.00  0.00     0.163 HD
HETATM    7  O4  UNL     1       0.741  10.097  43.589  1.00  0.00    -0.273 OA
BRANCH   5   8
HETATM    8  C5  UNL     1      -1.550   8.593  43.497  1.00  0.00     0.180 C 
BRANCH   8   9
HETATM    9  C4  UNL     1      -1.943   7.136  43.405  1.00  0.00     0.241 C 
HETATM   10  N1  UNL     1      -2.517   6.554  42.252  1.00  0.00    -0.345 N 
ATOM     11  H1  UNL     1      -2.673   7.111  41.412  1.00  0.00     0.163 HD
HETATM   12  O3  UNL     1      -1.747   6.393  44.433  1.00  0.00    -0.271 OA
BRANCH  10  13
HETATM   13  C3  UNL     1      -2.883   5.145  42.282  1.00  0.00     0.187 C 
BRANCH  13  14
HETATM   14  C2  UNL     1      -2.304   4.488  41.072  1.00  0.00     0.281 C 
HETATM   15  O2  UNL     1      -2.022   5.066  40.008  1.00  0.00    -0.263 OA
BRANCH  14  16
HETATM   16  O1  UNL     1      -2.080   3.119  41.202  1.00  0.00    -0.325 OA
HETATM   17  C1  UNL     1      -1.564   2.289  40.200  1.00  0.00     0.213 C 
ENDBRANCH  14  16
ENDBRANCH  13  14
BRANCH  13  18
HETATM   18  C27 UNL     1      -4.360   4.947  42.274  1.00  0.00     0.010 C 
HETATM   19  C28 UNL     1      -5.099   6.080  41.594  1.00  0.00     0.012 C 
HETATM   20  C29 UNL     1      -4.899   4.916  43.712  1.00  0.00     0.012 C 
ENDBRANCH  13  18
ENDBRANCH  10  13
ENDBRANCH   8   9
BRANCH   8  21
HETATM   21  C24 UNL     1      -2.669   9.541  43.570  1.00  0.00     0.009 C 
HETATM   22  C25 UNL     1      -4.035   8.995  43.828  1.00  0.00     0.012 C 
HETATM   23  C26 UNL     1      -2.445  10.627  44.636  1.00  0.00     0.012 C 
ENDBRANCH   8  21
ENDBRANCH   5   8
ENDBRANCH   3   4
ENDBRANCH   2   3
ENDBRANCH   1   2
BRANCH   1  24
HETATM   24  O5  UNL     1       2.857  13.372  41.800  1.00  0.00    -0.363 OA
ATOM     25  H5  UNL     1       3.465  13.806  42.388  1.00  0.00     0.217 HD
ENDBRANCH   1  24
BRANCH   1  26
HETATM   26  C10 UNL     1       4.201  11.439  41.589  1.00  0.00     0.145 C 
BRANCH  26  27
HETATM   27  C11 UNL     1       4.894  11.080  42.854  1.00  0.00     0.070 C 
BRANCH  27  28
HETATM   28  C12 UNL     1       4.342   9.922  43.582  1.00  0.00    -0.056 A 
HETATM   29  C13 UNL     1       4.196   8.707  42.939  1.00  0.00     0.007 A 
HETATM   30  C14 UNL     1       3.692   7.595  43.592  1.00  0.00     0.001 A 
HETATM   31  C15 UNL     1       3.315   7.660  44.916  1.00  0.00     0.000 A 
HETATM   32  C16 UNL     1       3.463   8.880  45.564  1.00  0.00     0.001 A 
HETATM   33  C17 UNL     1       3.961   9.965  44.907  1.00  0.00     0.007 A 
ENDBRANCH  27  28
ENDBRANCH  26  27
BRANCH  26  34
HETATM   34  N3  UNL     1       5.064  12.271  40.767  1.00  0.00    -0.348 N 
HETATM   35  C18 UNL     1       5.343  12.019  39.388  1.00  0.00     0.240 C 
HETATM   36  O6  UNL     1       4.802  11.020  38.872  1.00  0.00    -0.271 OA
ATOM     37  H3  UNL     1       5.497  13.086  41.201  1.00  0.00     0.163 HD
BRANCH  35  38
HETATM   38  C19 UNL     1       6.243  12.935  38.617  1.00  0.00     0.172 C 
HETATM   39  C20 UNL     1       7.248  13.622  39.491  1.00  0.00     0.042 C 
BRANCH  38  40
HETATM   40  N4  UNL     1       5.545  13.767  37.694  1.00  0.00    -0.346 N 
HETATM   41  C21 UNL     1       5.938  14.172  36.413  1.00  0.00     0.248 C 
HETATM   42  O7  UNL     1       7.055  13.758  35.972  1.00  0.00    -0.271 OA
ATOM     43  H4  UNL     1       4.639  14.114  38.009  1.00  0.00     0.163 HD
BRANCH  41  44
HETATM   44  C22 UNL     1       5.131  15.065  35.524  1.00  0.00     0.270 C 
HETATM   45  C23 UNL     1       3.700  14.582  35.642  1.00  0.00     0.050 C 
BRANCH  44  46
HETATM   46  N5  UNL     1       5.526  14.891  34.135  1.00  0.00    -0.067 N 
ATOM     47  H53 UNL     1       5.193  15.656  33.548  1.00  0.00     0.275 HD
ATOM     48  H52 UNL     1       6.529  15.026  34.006  1.00  0.00     0.275 HD
ATOM     49  H51 UNL     1       5.218  13.983  33.786  1.00  0.00     0.275 HD
ENDBRANCH  44  46
ENDBRANCH  41  44
ENDBRANCH  38  40
ENDBRANCH  35  38
ENDBRANCH  26  34
ENDBRANCH   1  26
TORSDOF 19
ENDMDL
