MODEL 4
REMARK VINA RESULT: -9.560827936      3.027      3.794
REMARK  10 active torsions:
REMARK  status: ('A' for Active; 'I' for Inactive)
REMARK    1  A    between atoms: C1_2  and  C2_3 
REMARK       I    between atoms: C1_2  and  N5_27 
REMARK    2  A    between atoms: C2_3  and  N1_4 
REMARK    3  A    between atoms: C5_10  and  N3_11 
REMARK    4  A    between atoms: N3_11  and  C6_13 
REMARK    5  A    between atoms: C6_13  and  C7_14 
REMARK    6  A    between atoms: C7_14  and  C8_17 
REMARK    7  A    between atoms: N4_22  and  O2_23 
REMARK    8  A    between atoms: N5_27  and  C14_29 
REMARK    9  A    between atoms: C14_29  and  C15_30 
REMARK   10  A    between atoms: C20_36  and  N6_37 
ROOT
HETATM    1  N1  UNL     1      17.267 -14.788  21.024  1.00  0.00    -0.270 N 
HETATM    2  C3  UNL     1      18.219 -13.837  21.173  1.00  0.00     0.128 A 
HETATM    3 CL1  UNL     1      19.809 -14.335  21.704  1.00  0.00    -0.062 Cl
HETATM    4  C4  UNL     1      17.948 -12.500  20.910  1.00  0.00     0.132 A 
HETATM    5  N2  UNL     1      16.724 -12.144  20.493  1.00  0.00    -0.345 N 
ATOM      6  H2  UNL     1      16.530 -11.162  20.297  1.00  0.00     0.167 HD
HETATM    7  C5  UNL     1      15.761 -13.038  20.330  1.00  0.00     0.175 A 
HETATM    8  C13 UNL     1      16.044 -14.354  20.594  1.00  0.00     0.297 A 
HETATM    9  O3  UNL     1      15.185 -15.236  20.456  1.00  0.00    -0.263 OA
ENDROOT
BRANCH   1  10
HETATM   10  C2  UNL     1      17.332 -16.137  21.409  1.00  0.00     0.175 C 
BRANCH  10  11
HETATM   11  C1  UNL     1      17.176 -16.687  22.742  1.00  0.00     0.257 C 
HETATM   12  O1  UNL     1      16.543 -17.724  22.991  1.00  0.00    -0.267 OA
HETATM   13  N5  UNL     1      17.753 -16.001  23.796  1.00  0.00    -0.352 N 
ATOM     14  H5  UNL     1      18.302 -15.220  23.436  1.00  0.00     0.163 HD
BRANCH  13  15
HETATM   15  C14 UNL     1      17.834 -16.027  25.214  1.00  0.00     0.164 C 
BRANCH  15  16
HETATM   16  C15 UNL     1      19.326 -16.261  25.379  1.00  0.00    -0.010 A 
HETATM   17  C16 UNL     1      20.161 -15.191  25.158  1.00  0.00     0.035 A 
HETATM   18  C17 UNL     1      21.540 -15.375  25.147  1.00  0.00     0.034 A 
HETATM   19 CL2  UNL     1      22.571 -14.010  24.832  1.00  0.00    -0.084 Cl
HETATM   20  C18 UNL     1      22.062 -16.666  25.366  1.00  0.00     0.026 A 
HETATM   21  C19 UNL     1      21.194 -17.703  25.583  1.00  0.00     0.034 A 
HETATM   22  C20 UNL     1      19.810 -17.509  25.592  1.00  0.00     0.067 A 
BRANCH  22  23
HETATM   23  N6  UNL     1      18.860 -18.511  25.899  1.00  0.00    -0.235 N 
HETATM   24  C21 UNL     1      18.533 -18.906  27.129  1.00  0.00     0.226 A 
HETATM   25  N7  UNL     1      17.637 -19.897  27.036  1.00  0.00    -0.279 N 
HETATM   26  N8  UNL     1      17.398 -20.124  25.743  1.00  0.00    -0.227 N 
ATOM     27  H7  UNL     1      17.210 -20.393  27.818  1.00  0.00     0.189 HD
HETATM   28  N9  UNL     1      18.147 -19.280  25.059  1.00  0.00    -0.220 N 
ATOM     29  H8  UNL     1      16.759 -20.818  25.356  1.00  0.00     0.210 HD
ATOM     30  H9  UNL     1      18.179 -19.219  24.042  1.00  0.00     0.210 HD
ENDBRANCH  22  23
ENDBRANCH  15  16
ENDBRANCH  13  15
ENDBRANCH  10  11
ENDBRANCH   1  10
BRANCH   7  31
HETATM   31  N3  UNL     1      14.413 -12.755  19.870  1.00  0.00    -0.345 N 
ATOM     32  H3  UNL     1      14.100 -13.155  18.984  1.00  0.00     0.166 HD
BRANCH  31  33
HETATM   33  C6  UNL     1      13.535 -11.959  20.595  1.00  0.00     0.147 C 
BRANCH  33  34
HETATM   34  C7  UNL     1      12.617 -12.508  21.605  1.00  0.00     0.320 C 
HETATM   35  F1  UNL     1      11.484 -13.038  21.083  1.00  0.00    -0.193 F 
HETATM   36  F2  UNL     1      13.250 -13.479  22.353  1.00  0.00    -0.193 F 
BRANCH  34  37
HETATM   37  C8  UNL     1      12.317 -11.366  22.587  1.00  0.00     0.116 A 
HETATM   38  C9  UNL     1      13.022 -10.191  22.480  1.00  0.00     0.034 A 
HETATM   39  C10 UNL     1      12.762  -9.153  23.378  1.00  0.00     0.004 A 
HETATM   40  C11 UNL     1      11.812  -9.337  24.347  1.00  0.00     0.020 A 
HETATM   41  C12 UNL     1      11.143 -10.537  24.407  1.00  0.00     0.123 A 
HETATM   42  N4  UNL     1      11.416 -11.535  23.508  1.00  0.00    -0.234 N 
BRANCH  42  43
HETATM   43  O2  UNL     1      10.685 -12.706  23.672  1.00  0.00    -0.283 OA
ATOM     44  H2  UNL     1      10.584 -13.157  24.503  1.00  0.00     0.245 HD
ENDBRANCH  42  43
ENDBRANCH  34  37
ENDBRANCH  33  34
ENDBRANCH  31  33
ENDBRANCH   7  31
TORSDOF 10
ENDMDL
