MODEL 1
REMARK VINA RESULT: -9.825653294      0.000      0.000
REMARK  10 active torsions:
REMARK  status: ('A' for Active; 'I' for Inactive)
REMARK    1  A    between atoms: C1_2  and  C2_3 
REMARK       I    between atoms: C1_2  and  N5_27 
REMARK    2  A    between atoms: C2_3  and  N1_4 
REMARK    3  A    between atoms: C5_10  and  N3_11 
REMARK    4  A    between atoms: N3_11  and  C6_13 
REMARK    5  A    between atoms: C6_13  and  C7_14 
REMARK    6  A    between atoms: C7_14  and  C8_17 
REMARK    7  A    between atoms: N4_22  and  O2_23 
REMARK    8  A    between atoms: N5_27  and  C14_29 
REMARK    9  A    between atoms: C14_29  and  C15_30 
REMARK   10  A    between atoms: C20_36  and  N6_37 
ROOT
HETATM    1  N1  UNL     1      18.536 -14.133  21.183  1.00  0.00    -0.270 N 
HETATM    2  C3  UNL     1      18.752 -13.085  20.354  1.00  0.00     0.128 A 
HETATM    3 CL1  UNL     1      20.340 -12.910  19.641  1.00  0.00    -0.062 Cl
HETATM    4  C4  UNL     1      17.745 -12.172  20.069  1.00  0.00     0.132 A 
HETATM    5  N2  UNL     1      16.533 -12.335  20.619  1.00  0.00    -0.345 N 
ATOM      6  H2  UNL     1      15.794 -11.664  20.405  1.00  0.00     0.167 HD
HETATM    7  C5  UNL     1      16.272 -13.345  21.435  1.00  0.00     0.175 A 
HETATM    8  C13 UNL     1      17.277 -14.238  21.706  1.00  0.00     0.297 A 
HETATM    9  O3  UNL     1      17.092 -15.205  22.458  1.00  0.00    -0.263 OA
ENDROOT
BRANCH   1  10
HETATM   10  C2  UNL     1      19.484 -15.031  21.699  1.00  0.00     0.175 C 
BRANCH  10  11
HETATM   11  C1  UNL     1      20.447 -14.793  22.758  1.00  0.00     0.257 C 
HETATM   12  O1  UNL     1      21.569 -14.296  22.571  1.00  0.00    -0.267 OA
HETATM   13  N5  UNL     1      20.097 -15.159  24.045  1.00  0.00    -0.352 N 
ATOM     14  H5  UNL     1      19.128 -15.477  24.058  1.00  0.00     0.163 HD
BRANCH  13  15
HETATM   15  C14 UNL     1      20.644 -15.239  25.354  1.00  0.00     0.164 C 
BRANCH  15  16
HETATM   16  C15 UNL     1      20.816 -16.745  25.465  1.00  0.00    -0.010 A 
HETATM   17  C16 UNL     1      19.742 -17.470  25.929  1.00  0.00     0.035 A 
HETATM   18  C17 UNL     1      19.882 -18.828  26.194  1.00  0.00     0.034 A 
HETATM   19 CL2  UNL     1      18.518 -19.713  26.809  1.00  0.00    -0.084 Cl
HETATM   20  C18 UNL     1      21.133 -19.443  25.981  1.00  0.00     0.026 A 
HETATM   21  C19 UNL     1      22.174 -18.684  25.518  1.00  0.00     0.034 A 
HETATM   22  C20 UNL     1      22.025 -17.319  25.255  1.00  0.00     0.067 A 
BRANCH  22  23
HETATM   23  N6  UNL     1      23.026 -16.495  24.691  1.00  0.00    -0.235 N 
HETATM   24  C21 UNL     1      24.074 -16.931  23.993  1.00  0.00     0.226 A 
HETATM   25  N7  UNL     1      24.830 -15.878  23.654  1.00  0.00    -0.279 N 
HETATM   26  N8  UNL     1      24.252 -14.777  24.140  1.00  0.00    -0.227 N 
ATOM     27  H7  UNL     1      25.696 -15.911  23.118  1.00  0.00     0.189 HD
HETATM   28  N9  UNL     1      23.160 -15.160  24.770  1.00  0.00    -0.220 N 
ATOM     29  H8  UNL     1      24.593 -13.820  24.042  1.00  0.00     0.210 HD
ATOM     30  H9  UNL     1      22.510 -14.536  25.247  1.00  0.00     0.210 HD
ENDBRANCH  22  23
ENDBRANCH  15  16
ENDBRANCH  13  15
ENDBRANCH  10  11
ENDBRANCH   1  10
BRANCH   7  31
HETATM   31  N3  UNL     1      14.992 -13.614  22.065  1.00  0.00    -0.345 N 
ATOM     32  H3  UNL     1      14.908 -13.506  23.077  1.00  0.00     0.166 HD
BRANCH  31  33
HETATM   33  C6  UNL     1      13.877 -14.015  21.337  1.00  0.00     0.147 C 
BRANCH  33  34
HETATM   34  C7  UNL     1      12.942 -13.056  20.729  1.00  0.00     0.320 C 
HETATM   35  F1  UNL     1      13.431 -12.437  19.628  1.00  0.00    -0.193 F 
HETATM   36  F2  UNL     1      11.762 -13.686  20.389  1.00  0.00    -0.193 F 
BRANCH  34  37
HETATM   37  C8  UNL     1      12.567 -12.055  21.832  1.00  0.00     0.116 A 
HETATM   38  C9  UNL     1      11.567 -12.381  22.718  1.00  0.00     0.034 A 
HETATM   39  C10 UNL     1      11.214 -11.470  23.716  1.00  0.00     0.004 A 
HETATM   40  C11 UNL     1      11.871 -10.271  23.782  1.00  0.00     0.020 A 
HETATM   41  C12 UNL     1      12.859  -9.999  22.865  1.00  0.00     0.123 A 
HETATM   42  N4  UNL     1      13.188 -10.915  21.899  1.00  0.00    -0.234 N 
BRANCH  42  43
HETATM   43  O2  UNL     1      14.194 -10.527  21.022  1.00  0.00    -0.283 OA
ATOM     44  H2  UNL     1      14.047  -9.996  20.247  1.00  0.00     0.245 HD
ENDBRANCH  42  43
ENDBRANCH  34  37
ENDBRANCH  33  34
ENDBRANCH  31  33
ENDBRANCH   7  31
TORSDOF 10
ENDMDL
