MODEL 2
REMARK VINA RESULT: -9.795442877      3.415      8.839
REMARK  10 active torsions:
REMARK  status: ('A' for Active; 'I' for Inactive)
REMARK    1  A    between atoms: C1_2  and  C2_3 
REMARK       I    between atoms: C1_2  and  N5_27 
REMARK    2  A    between atoms: C2_3  and  N1_4 
REMARK    3  A    between atoms: C5_10  and  N3_11 
REMARK    4  A    between atoms: N3_11  and  C6_13 
REMARK    5  A    between atoms: C6_13  and  C7_14 
REMARK    6  A    between atoms: C7_14  and  C8_17 
REMARK    7  A    between atoms: N4_22  and  O2_23 
REMARK    8  A    between atoms: N5_27  and  C14_29 
REMARK    9  A    between atoms: C14_29  and  C15_30 
REMARK   10  A    between atoms: C20_36  and  N6_37 
ROOT
HETATM    1  N1  UNL     1      18.325 -13.444  21.242  1.00  0.00    -0.270 N 
HETATM    2  C3  UNL     1      19.526 -13.883  20.798  1.00  0.00     0.128 A 
HETATM    3 CL1  UNL     1      20.372 -12.916  19.612  1.00  0.00    -0.062 Cl
HETATM    4  C4  UNL     1      20.079 -15.067  21.269  1.00  0.00     0.132 A 
HETATM    5  N2  UNL     1      19.416 -15.786  22.187  1.00  0.00    -0.345 N 
ATOM      6  H2  UNL     1      19.827 -16.653  22.534  1.00  0.00     0.167 HD
HETATM    7  C5  UNL     1      18.239 -15.396  22.655  1.00  0.00     0.175 A 
HETATM    8  C13 UNL     1      17.706 -14.225  22.179  1.00  0.00     0.297 A 
HETATM    9  O3  UNL     1      16.612 -13.808  22.581  1.00  0.00    -0.263 OA
ENDROOT
BRANCH   1  10
HETATM   10  C2  UNL     1      17.563 -12.375  20.746  1.00  0.00     0.175 C 
BRANCH  10  11
HETATM   11  C1  UNL     1      16.587 -12.404  19.673  1.00  0.00     0.257 C 
HETATM   12  O1  UNL     1      16.885 -12.405  18.468  1.00  0.00    -0.267 OA
HETATM   13  N5  UNL     1      15.247 -12.414  20.018  1.00  0.00    -0.352 N 
ATOM     14  H5  UNL     1      15.156 -12.491  21.031  1.00  0.00     0.163 HD
BRANCH  13  15
HETATM   15  C14 UNL     1      13.957 -12.352  19.425  1.00  0.00     0.164 C 
BRANCH  15  16
HETATM   16  C15 UNL     1      13.101 -12.360  20.681  1.00  0.00    -0.010 A 
HETATM   17  C16 UNL     1      12.925 -11.162  21.333  1.00  0.00     0.035 A 
HETATM   18  C17 UNL     1      12.279 -11.128  22.564  1.00  0.00     0.034 A 
HETATM   19 CL2  UNL     1      12.099  -9.604  23.381  1.00  0.00    -0.084 Cl
HETATM   20  C18 UNL     1      11.811 -12.333  23.127  1.00  0.00     0.026 A 
HETATM   21  C19 UNL     1      12.006 -13.503  22.443  1.00  0.00     0.034 A 
HETATM   22  C20 UNL     1      12.658 -13.528  21.206  1.00  0.00     0.067 A 
BRANCH  22  23
HETATM   23  N6  UNL     1      12.813 -14.682  20.403  1.00  0.00    -0.235 N 
HETATM   24  C21 UNL     1      13.670 -15.674  20.643  1.00  0.00     0.226 A 
HETATM   25  N7  UNL     1      13.571 -16.572  19.655  1.00  0.00    -0.279 N 
HETATM   26  N8  UNL     1      12.648 -16.144  18.792  1.00  0.00    -0.227 N 
ATOM     27  H7  UNL     1      14.109 -17.435  19.576  1.00  0.00     0.189 HD
HETATM   28  N9  UNL     1      12.195 -14.994  19.252  1.00  0.00    -0.220 N 
ATOM     29  H8  UNL     1      12.351 -16.616  17.938  1.00  0.00     0.210 HD
ATOM     30  H9  UNL     1      11.479 -14.425  18.800  1.00  0.00     0.210 HD
ENDBRANCH  22  23
ENDBRANCH  15  16
ENDBRANCH  13  15
ENDBRANCH  10  11
ENDBRANCH   1  10
BRANCH   7  31
HETATM   31  N3  UNL     1      17.454 -16.094  23.656  1.00  0.00    -0.345 N 
ATOM     32  H3  UNL     1      16.455 -15.898  23.725  1.00  0.00     0.166 HD
BRANCH  31  33
HETATM   33  C6  UNL     1      18.017 -17.022  24.525  1.00  0.00     0.147 C 
BRANCH  33  34
HETATM   34  C7  UNL     1      18.491 -16.662  25.870  1.00  0.00     0.320 C 
HETATM   35  F1  UNL     1      17.563 -16.025  26.625  1.00  0.00    -0.193 F 
HETATM   36  F2  UNL     1      18.909 -17.788  26.550  1.00  0.00    -0.193 F 
BRANCH  34  37
HETATM   37  C8  UNL     1      19.754 -15.811  25.675  1.00  0.00     0.116 A 
HETATM   38  C9  UNL     1      19.774 -14.524  26.159  1.00  0.00     0.034 A 
HETATM   39  C10 UNL     1      20.916 -13.742  25.973  1.00  0.00     0.004 A 
HETATM   40  C11 UNL     1      21.987 -14.278  25.309  1.00  0.00     0.020 A 
HETATM   41  C12 UNL     1      21.906 -15.569  24.845  1.00  0.00     0.123 A 
HETATM   42  N4  UNL     1      20.773 -16.315  25.046  1.00  0.00    -0.234 N 
BRANCH  42  43
HETATM   43  O2  UNL     1      20.803 -17.603  24.523  1.00  0.00    -0.283 OA
ATOM     44  H2  UNL     1      21.602 -18.091  24.359  1.00  0.00     0.245 HD
ENDBRANCH  42  43
ENDBRANCH  34  37
ENDBRANCH  33  34
ENDBRANCH  31  33
ENDBRANCH   7  31
TORSDOF 10
ENDMDL
