MODEL 8
REMARK VINA RESULT: -9.404705529      3.335      8.941
REMARK  10 active torsions:
REMARK  status: ('A' for Active; 'I' for Inactive)
REMARK    1  A    between atoms: C1_2  and  C2_3 
REMARK       I    between atoms: C1_2  and  N5_27 
REMARK    2  A    between atoms: C2_3  and  N1_4 
REMARK    3  A    between atoms: C5_10  and  N3_11 
REMARK    4  A    between atoms: N3_11  and  C6_13 
REMARK    5  A    between atoms: C6_13  and  C7_14 
REMARK    6  A    between atoms: C7_14  and  C8_17 
REMARK    7  A    between atoms: N4_22  and  O2_23 
REMARK    8  A    between atoms: N5_27  and  C14_29 
REMARK    9  A    between atoms: C14_29  and  C15_30 
REMARK   10  A    between atoms: C20_36  and  N6_37 
ROOT
HETATM    1  N1  UNL     1      18.259 -13.447  21.246  1.00  0.00    -0.270 N 
HETATM    2  C3  UNL     1      19.483 -13.898  20.883  1.00  0.00     0.128 A 
HETATM    3 CL1  UNL     1      20.418 -12.935  19.762  1.00  0.00    -0.062 Cl
HETATM    4  C4  UNL     1      19.990 -15.089  21.385  1.00  0.00     0.132 A 
HETATM    5  N2  UNL     1      19.258 -15.805  22.252  1.00  0.00    -0.345 N 
ATOM      6  H2  UNL     1      19.635 -16.677  22.621  1.00  0.00     0.167 HD
HETATM    7  C5  UNL     1      18.056 -15.404  22.639  1.00  0.00     0.175 A 
HETATM    8  C13 UNL     1      17.569 -14.226  22.134  1.00  0.00     0.297 A 
HETATM    9  O3  UNL     1      16.454 -13.798  22.462  1.00  0.00    -0.263 OA
ENDROOT
BRANCH   1  10
HETATM   10  C2  UNL     1      17.544 -12.368  20.703  1.00  0.00     0.175 C 
BRANCH  10  11
HETATM   11  C1  UNL     1      16.563 -12.401  19.635  1.00  0.00     0.257 C 
HETATM   12  O1  UNL     1      16.855 -12.403  18.429  1.00  0.00    -0.267 OA
HETATM   13  N5  UNL     1      15.225 -12.413  19.986  1.00  0.00    -0.352 N 
ATOM     14  H5  UNL     1      15.138 -12.489  20.999  1.00  0.00     0.163 HD
BRANCH  13  15
HETATM   15  C14 UNL     1      13.932 -12.354  19.399  1.00  0.00     0.164 C 
BRANCH  15  16
HETATM   16  C15 UNL     1      13.081 -12.391  20.658  1.00  0.00    -0.010 A 
HETATM   17  C16 UNL     1      12.885 -11.202  21.322  1.00  0.00     0.035 A 
HETATM   18  C17 UNL     1      12.242 -11.192  22.555  1.00  0.00     0.034 A 
HETATM   19 CL2  UNL     1      12.037  -9.679  23.387  1.00  0.00    -0.084 Cl
HETATM   20  C18 UNL     1      11.799 -12.411  23.108  1.00  0.00     0.026 A 
HETATM   21  C19 UNL     1      12.015 -13.571  22.412  1.00  0.00     0.034 A 
HETATM   22  C20 UNL     1      12.662 -13.572  21.174  1.00  0.00     0.067 A 
BRANCH  22  23
HETATM   23  N6  UNL     1      12.836 -14.715  20.359  1.00  0.00    -0.235 N 
HETATM   24  C21 UNL     1      13.732 -15.678  20.571  1.00  0.00     0.226 A 
HETATM   25  N7  UNL     1      13.640 -16.573  19.579  1.00  0.00    -0.279 N 
HETATM   26  N8  UNL     1      12.681 -16.172  18.743  1.00  0.00    -0.227 N 
ATOM     27  H7  UNL     1      14.205 -17.417  19.481  1.00  0.00     0.189 HD
HETATM   28  N9  UNL     1      12.200 -15.042  19.222  1.00  0.00    -0.220 N 
ATOM     29  H8  UNL     1      12.378 -16.649  17.893  1.00  0.00     0.210 HD
ATOM     30  H9  UNL     1      11.454 -14.495  18.792  1.00  0.00     0.210 HD
ENDBRANCH  22  23
ENDBRANCH  15  16
ENDBRANCH  13  15
ENDBRANCH  10  11
ENDBRANCH   1  10
BRANCH   7  31
HETATM   31  N3  UNL     1      17.197 -16.098  23.581  1.00  0.00    -0.345 N 
ATOM     32  H3  UNL     1      16.242 -15.763  23.717  1.00  0.00     0.166 HD
BRANCH  31  33
HETATM   33  C6  UNL     1      17.630 -17.203  24.304  1.00  0.00     0.147 C 
BRANCH  33  34
HETATM   34  C7  UNL     1      18.105 -17.106  25.693  1.00  0.00     0.320 C 
HETATM   35  F1  UNL     1      17.607 -16.041  26.368  1.00  0.00    -0.193 F 
HETATM   36  F2  UNL     1      17.788 -18.254  26.391  1.00  0.00    -0.193 F 
BRANCH  34  37
HETATM   37  C8  UNL     1      19.639 -17.078  25.628  1.00  0.00     0.116 A 
HETATM   38  C9  UNL     1      20.333 -18.261  25.740  1.00  0.00     0.034 A 
HETATM   39  C10 UNL     1      21.729 -18.241  25.693  1.00  0.00     0.004 A 
HETATM   40  C11 UNL     1      22.370 -17.041  25.541  1.00  0.00     0.020 A 
HETATM   41  C12 UNL     1      21.623 -15.892  25.439  1.00  0.00     0.123 A 
HETATM   42  N4  UNL     1      20.253 -15.943  25.484  1.00  0.00    -0.234 N 
BRANCH  42  43
HETATM   43  O2  UNL     1      19.604 -14.717  25.381  1.00  0.00    -0.283 OA
ATOM     44  H2  UNL     1      19.793 -13.969  25.935  1.00  0.00     0.245 HD
ENDBRANCH  42  43
ENDBRANCH  34  37
ENDBRANCH  33  34
ENDBRANCH  31  33
ENDBRANCH   7  31
TORSDOF 10
ENDMDL
