MODEL 5
REMARK VINA RESULT: -9.531847755      4.030      9.205
REMARK  10 active torsions:
REMARK  status: ('A' for Active; 'I' for Inactive)
REMARK    1  A    between atoms: C1_2  and  C2_3 
REMARK       I    between atoms: C1_2  and  N5_27 
REMARK    2  A    between atoms: C2_3  and  N1_4 
REMARK    3  A    between atoms: C5_10  and  N3_11 
REMARK    4  A    between atoms: N3_11  and  C6_13 
REMARK    5  A    between atoms: C6_13  and  C7_14 
REMARK    6  A    between atoms: C7_14  and  C8_17 
REMARK    7  A    between atoms: N4_22  and  O2_23 
REMARK    8  A    between atoms: N5_27  and  C14_29 
REMARK    9  A    between atoms: C14_29  and  C15_30 
REMARK   10  A    between atoms: C20_36  and  N6_37 
ROOT
HETATM    1  N1  UNL     1      14.357 -18.391  21.343  1.00  0.00    -0.270 N 
HETATM    2  C3  UNL     1      14.079 -19.611  21.860  1.00  0.00     0.128 A 
HETATM    3 CL1  UNL     1      12.966 -20.642  20.991  1.00  0.00    -0.062 Cl
HETATM    4  C4  UNL     1      14.662 -20.041  23.045  1.00  0.00     0.132 A 
HETATM    5  N2  UNL     1      15.522 -19.237  23.687  1.00  0.00    -0.345 N 
ATOM      6  H2  UNL     1      15.951 -19.557  24.556  1.00  0.00     0.167 HD
HETATM    7  C5  UNL     1      15.827 -18.035  23.221  1.00  0.00     0.175 A 
HETATM    8  C13 UNL     1      15.243 -17.625  22.050  1.00  0.00     0.297 A 
HETATM    9  O3  UNL     1      15.492 -16.514  21.562  1.00  0.00    -0.263 OA
ENDROOT
BRANCH   1  10
HETATM   10  C2  UNL     1      13.728 -17.751  20.264  1.00  0.00     0.175 C 
BRANCH  10  11
HETATM   11  C1  UNL     1      12.522 -16.944  20.291  1.00  0.00     0.257 C 
HETATM   12  O1  UNL     1      11.387 -17.392  20.067  1.00  0.00    -0.267 OA
HETATM   13  N5  UNL     1      12.653 -15.595  20.565  1.00  0.00    -0.352 N 
ATOM     14  H5  UNL     1      13.623 -15.387  20.804  1.00  0.00     0.163 HD
BRANCH  13  15
HETATM   15  C14 UNL     1      11.882 -14.403  20.624  1.00  0.00     0.164 C 
BRANCH  15  16
HETATM   16  C15 UNL     1      12.985 -13.377  20.424  1.00  0.00    -0.010 A 
HETATM   17  C16 UNL     1      13.835 -13.564  19.359  1.00  0.00     0.035 A 
HETATM   18  C17 UNL     1      14.951 -12.747  19.208  1.00  0.00     0.034 A 
HETATM   19 CL2  UNL     1      16.026 -13.027  17.871  1.00  0.00    -0.084 Cl
HETATM   20  C18 UNL     1      15.192 -11.733  20.157  1.00  0.00     0.026 A 
HETATM   21  C19 UNL     1      14.320 -11.582  21.201  1.00  0.00     0.034 A 
HETATM   22  C20 UNL     1      13.201 -12.408  21.346  1.00  0.00     0.067 A 
BRANCH  22  23
HETATM   23  N6  UNL     1      12.210 -12.252  22.343  1.00  0.00    -0.235 N 
HETATM   24  C21 UNL     1      11.817 -11.087  22.857  1.00  0.00     0.226 A 
HETATM   25  N7  UNL     1      10.898 -11.326  23.802  1.00  0.00    -0.279 N 
HETATM   26  N8  UNL     1      10.712 -12.645  23.880  1.00  0.00    -0.227 N 
ATOM     27  H7  UNL     1      10.423 -10.621  24.365  1.00  0.00     0.189 HD
HETATM   28  N9  UNL     1      11.515 -13.200  22.992  1.00  0.00    -0.220 N 
ATOM     29  H8  UNL     1      10.072 -13.132  24.507  1.00  0.00     0.210 HD
ATOM     30  H9  UNL     1      11.595 -14.202  22.824  1.00  0.00     0.210 HD
ENDBRANCH  22  23
ENDBRANCH  15  16
ENDBRANCH  13  15
ENDBRANCH  10  11
ENDBRANCH   1  10
BRANCH   7  31
HETATM   31  N3  UNL     1      16.754 -17.101  23.833  1.00  0.00    -0.345 N 
ATOM     32  H3  UNL     1      16.427 -16.512  24.599  1.00  0.00     0.166 HD
BRANCH  31  33
HETATM   33  C6  UNL     1      18.073 -16.982  23.409  1.00  0.00     0.147 C 
BRANCH  33  34
HETATM   34  C7  UNL     1      18.932 -15.853  23.801  1.00  0.00     0.320 C 
HETATM   35  F1  UNL     1      18.529 -15.225  24.932  1.00  0.00    -0.193 F 
HETATM   36  F2  UNL     1      20.233 -16.279  23.977  1.00  0.00    -0.193 F 
BRANCH  34  37
HETATM   37  C8  UNL     1      18.974 -14.900  22.598  1.00  0.00     0.116 A 
HETATM   38  C9  UNL     1      20.135 -14.798  21.868  1.00  0.00     0.034 A 
HETATM   39  C10 UNL     1      20.183 -13.923  20.779  1.00  0.00     0.004 A 
HETATM   40  C11 UNL     1      19.071 -13.187  20.471  1.00  0.00     0.020 A 
HETATM   41  C12 UNL     1      17.940 -13.329  21.240  1.00  0.00     0.123 A 
HETATM   42  N4  UNL     1      17.921 -14.199  22.300  1.00  0.00    -0.234 N 
BRANCH  42  43
HETATM   43  O2  UNL     1      16.728 -14.251  23.012  1.00  0.00    -0.283 OA
ATOM     44  H2  UNL     1      15.913 -13.865  22.710  1.00  0.00     0.245 HD
ENDBRANCH  42  43
ENDBRANCH  34  37
ENDBRANCH  33  34
ENDBRANCH  31  33
ENDBRANCH   7  31
TORSDOF 10
ENDMDL
