MODEL 1
REMARK VINA RESULT: -9.214489803      0.000      0.000
REMARK  14 active torsions:
REMARK  status: ('A' for Active; 'I' for Inactive)
REMARK    1  A    between atoms: C2_2  and  N1_3 
REMARK    2  A    between atoms: C2_2  and  C25_37 
REMARK    3  A    between atoms: N1_3  and  C3_5 
REMARK    4  A    between atoms: C3_5  and  C4_6 
REMARK    5  A    between atoms: C3_5  and  C12_14 
REMARK    6  A    between atoms: C4_6  and  C5_7 
REMARK    7  A    between atoms: C5_7  and  C6_8 
REMARK       I    between atoms: C12_14  and  N2_16 
REMARK    8  A    between atoms: N2_16  and  C13_18 
REMARK    9  A    between atoms: C13_18  and  C14_19 
REMARK   10  A    between atoms: C13_18  and  C18_27 
REMARK   11  A    between atoms: C14_19  and  C15_20 
REMARK   12  A    between atoms: C15_20  and  C16_21 
REMARK   13  A    between atoms: C16_21  and  N3_22 
REMARK       I    between atoms: C18_27  and  N6_29 
REMARK   14  A    between atoms: N6_29  and  C19_31 
ROOT
HETATM    1  C12 UNL     1     -20.125  92.381  82.033  1.00  0.00     0.240 C 
HETATM    2  O1  UNL     1     -20.106  93.224  82.983  1.00  0.00    -0.271 OA
HETATM    3  N2  UNL     1     -18.842  92.051  81.508  1.00  0.00    -0.346 N 
ATOM      4  H2  UNL     1     -18.770  91.382  80.740  1.00  0.00     0.163 HD
ENDROOT
BRANCH   3   5
HETATM    5  C13 UNL     1     -17.623  92.661  82.056  1.00  0.00     0.177 C 
BRANCH   5   6
HETATM    6  C14 UNL     1     -16.589  91.643  82.399  1.00  0.00     0.036 C 
BRANCH   6   7
HETATM    7  C15 UNL     1     -15.415  92.231  83.161  1.00  0.00     0.022 C 
BRANCH   7   8
HETATM    8  C16 UNL     1     -15.928  92.795  84.485  1.00  0.00     0.122 C 
BRANCH   8   9
HETATM    9  N3  UNL     1     -14.927  92.631  85.503  1.00  0.00    -0.367 N 
HETATM   10  C17 UNL     1     -14.862  93.435  86.488  1.00  0.00     0.196 C 
HETATM   11  N4  UNL     1     -13.855  93.227  87.465  1.00  0.00    -0.067 NA
HETATM   12  N5  UNL     1     -15.784  94.506  86.589  1.00  0.00    -0.067 NA
ATOM     13  H3  UNL     1     -14.261  91.862  85.436  1.00  0.00     0.161 HD
ENDBRANCH   8   9
ENDBRANCH   7   8
ENDBRANCH   6   7
ENDBRANCH   5   6
BRANCH   5  14
HETATM   14  C18 UNL     1     -17.045  93.493  80.934  1.00  0.00     0.245 C 
HETATM   15  O2  UNL     1     -16.632  92.948  79.900  1.00  0.00    -0.271 OA
HETATM   16  N6  UNL     1     -17.011  94.894  81.142  1.00  0.00    -0.325 N 
ATOM     17  H6  UNL     1     -17.372  95.252  82.026  1.00  0.00     0.169 HD
BRANCH  16  18
HETATM   18  C19 UNL     1     -16.512  95.821  80.214  1.00  0.00     0.034 A 
HETATM   19  C20 UNL     1     -15.260  96.393  80.461  1.00  0.00     0.029 A 
HETATM   20  C21 UNL     1     -14.680  97.301  79.631  1.00  0.00     0.002 A 
HETATM   21  C22 UNL     1     -15.323  97.700  78.486  1.00  0.00     0.000 A 
HETATM   22  C23 UNL     1     -16.547  97.153  78.227  1.00  0.00     0.002 A 
HETATM   23  C24 UNL     1     -17.143  96.215  79.085  1.00  0.00     0.029 A 
ENDBRANCH  16  18
ENDBRANCH   5  14
ENDBRANCH   3   5
BRANCH   1  24
HETATM   24  C3  UNL     1     -21.386  91.820  81.545  1.00  0.00     0.170 C 
BRANCH  24  25
HETATM   25  N1  UNL     1     -22.436  91.756  82.538  1.00  0.00    -0.396 N 
ATOM     26  H1  UNL     1     -22.259  91.942  83.525  1.00  0.00     0.154 HD
BRANCH  25  27
HETATM   27  C2  UNL     1     -23.734  91.417  82.055  1.00  0.00     0.175 C 
HETATM   28  C1  UNL     1     -24.746  91.884  83.127  1.00  0.00     0.043 C 
BRANCH  27  29
HETATM   29  C25 UNL     1     -23.963  89.958  81.960  1.00  0.00     0.195 C 
HETATM   30  O3  UNL     1     -23.425  89.195  82.780  1.00  0.00    -0.646 OA
HETATM   31  O4  UNL     1     -24.767  89.436  80.973  1.00  0.00    -0.646 OA
ENDBRANCH  27  29
ENDBRANCH  25  27
ENDBRANCH  24  25
BRANCH  24  32
HETATM   32  C4  UNL     1     -21.891  92.452  80.277  1.00  0.00     0.039 C 
BRANCH  32  33
HETATM   33  C5  UNL     1     -21.513  91.706  79.021  1.00  0.00     0.041 C 
BRANCH  33  34
HETATM   34  C6  UNL     1     -22.758  91.373  78.254  1.00  0.00    -0.058 A 
HETATM   35  C7  UNL     1     -22.675  90.488  77.202  1.00  0.00     0.007 A 
HETATM   36  C8  UNL     1     -23.799  90.145  76.459  1.00  0.00     0.001 A 
HETATM   37  C9  UNL     1     -25.031  90.685  76.760  1.00  0.00     0.000 A 
HETATM   38  C10 UNL     1     -25.116  91.571  77.812  1.00  0.00     0.001 A 
HETATM   39  C11 UNL     1     -23.989  91.913  78.554  1.00  0.00     0.007 A 
ENDBRANCH  33  34
ENDBRANCH  32  33
ENDBRANCH  24  32
ENDBRANCH   1  24
TORSDOF 14
ENDMDL
