MODEL 2
REMARK VINA RESULT: -8.929107268      1.825      3.254
REMARK  14 active torsions:
REMARK  status: ('A' for Active; 'I' for Inactive)
REMARK    1  A    between atoms: C2_2  and  N1_3 
REMARK    2  A    between atoms: C2_2  and  C25_37 
REMARK    3  A    between atoms: N1_3  and  C3_5 
REMARK    4  A    between atoms: C3_5  and  C4_6 
REMARK    5  A    between atoms: C3_5  and  C12_14 
REMARK    6  A    between atoms: C4_6  and  C5_7 
REMARK    7  A    between atoms: C5_7  and  C6_8 
REMARK       I    between atoms: C12_14  and  N2_16 
REMARK    8  A    between atoms: N2_16  and  C13_18 
REMARK    9  A    between atoms: C13_18  and  C14_19 
REMARK   10  A    between atoms: C13_18  and  C18_27 
REMARK   11  A    between atoms: C14_19  and  C15_20 
REMARK   12  A    between atoms: C15_20  and  C16_21 
REMARK   13  A    between atoms: C16_21  and  N3_22 
REMARK       I    between atoms: C18_27  and  N6_29 
REMARK   14  A    between atoms: N6_29  and  C19_31 
ROOT
HETATM    1  C12 UNL     1     -20.140  92.541  82.175  1.00  0.00     0.240 C 
HETATM    2  O1  UNL     1     -20.059  93.412  83.095  1.00  0.00    -0.271 OA
HETATM    3  N2  UNL     1     -18.885  92.120  81.646  1.00  0.00    -0.346 N 
ATOM      4  H2  UNL     1     -18.861  91.423  80.901  1.00  0.00     0.163 HD
ENDROOT
BRANCH   3   5
HETATM    5  C13 UNL     1     -17.625  92.677  82.159  1.00  0.00     0.177 C 
BRANCH   5   6
HETATM    6  C14 UNL     1     -16.625  91.615  82.469  1.00  0.00     0.036 C 
BRANCH   6   7
HETATM    7  C15 UNL     1     -15.374  92.162  83.132  1.00  0.00     0.022 C 
BRANCH   7   8
HETATM    8  C16 UNL     1     -15.500  91.974  84.642  1.00  0.00     0.122 C 
BRANCH   8   9
HETATM    9  N3  UNL     1     -15.754  93.241  85.270  1.00  0.00    -0.367 N 
HETATM   10  C17 UNL     1     -15.097  93.601  86.299  1.00  0.00     0.196 C 
HETATM   11  N4  UNL     1     -15.388  94.862  86.881  1.00  0.00    -0.067 NA
HETATM   12  N5  UNL     1     -14.101  92.748  86.838  1.00  0.00    -0.067 NA
ATOM     13  H3  UNL     1     -16.469  93.859  84.887  1.00  0.00     0.161 HD
ENDBRANCH   8   9
ENDBRANCH   7   8
ENDBRANCH   6   7
ENDBRANCH   5   6
BRANCH   5  14
HETATM   14  C18 UNL     1     -17.047  93.488  81.023  1.00  0.00     0.245 C 
HETATM   15  O2  UNL     1     -16.643  92.924  79.995  1.00  0.00    -0.271 OA
HETATM   16  N6  UNL     1     -17.001  94.891  81.210  1.00  0.00    -0.325 N 
ATOM     17  H6  UNL     1     -17.355  95.265  82.090  1.00  0.00     0.169 HD
BRANCH  16  18
HETATM   18  C19 UNL     1     -16.500  95.801  80.266  1.00  0.00     0.034 A 
HETATM   19  C20 UNL     1     -15.228  96.341  80.482  1.00  0.00     0.029 A 
HETATM   20  C21 UNL     1     -14.644  97.231  79.634  1.00  0.00     0.002 A 
HETATM   21  C22 UNL     1     -15.303  97.640  78.502  1.00  0.00     0.000 A 
HETATM   22  C23 UNL     1     -16.546  97.124  78.274  1.00  0.00     0.002 A 
HETATM   23  C24 UNL     1     -17.146  96.206  79.150  1.00  0.00     0.029 A 
ENDBRANCH  16  18
ENDBRANCH   5  14
ENDBRANCH   3   5
BRANCH   1  24
HETATM   24  C3  UNL     1     -21.437  92.037  81.721  1.00  0.00     0.170 C 
BRANCH  24  25
HETATM   25  N1  UNL     1     -21.433  91.506  80.374  1.00  0.00    -0.396 N 
ATOM     26  H1  UNL     1     -21.023  90.599  80.152  1.00  0.00     0.154 HD
BRANCH  25  27
HETATM   27  C2  UNL     1     -22.037  92.327  79.377  1.00  0.00     0.175 C 
HETATM   28  C1  UNL     1     -22.279  91.426  78.144  1.00  0.00     0.043 C 
BRANCH  27  29
HETATM   29  C25 UNL     1     -21.141  93.390  78.870  1.00  0.00     0.195 C 
HETATM   30  O3  UNL     1     -19.909  93.233  78.918  1.00  0.00    -0.646 OA
HETATM   31  O4  UNL     1     -21.657  94.552  78.345  1.00  0.00    -0.646 OA
ENDBRANCH  27  29
ENDBRANCH  25  27
ENDBRANCH  24  25
BRANCH  24  32
HETATM   32  C4  UNL     1     -22.089  91.070  82.671  1.00  0.00     0.039 C 
BRANCH  32  33
HETATM   33  C5  UNL     1     -23.042  90.104  82.011  1.00  0.00     0.041 C 
BRANCH  33  34
HETATM   34  C6  UNL     1     -24.447  90.588  82.207  1.00  0.00    -0.058 A 
HETATM   35  C7  UNL     1     -25.154  91.040  81.115  1.00  0.00     0.007 A 
HETATM   36  C8  UNL     1     -26.460  91.499  81.242  1.00  0.00     0.001 A 
HETATM   37  C9  UNL     1     -27.084  91.512  82.471  1.00  0.00     0.000 A 
HETATM   38  C10 UNL     1     -26.379  91.060  83.565  1.00  0.00     0.001 A 
HETATM   39  C11 UNL     1     -25.070  90.601  83.435  1.00  0.00     0.007 A 
ENDBRANCH  33  34
ENDBRANCH  32  33
ENDBRANCH  24  32
ENDBRANCH   1  24
TORSDOF 14
ENDMDL
