MODEL 8
REMARK VINA RESULT: -8.872936601      3.331      7.475
REMARK  14 active torsions:
REMARK  status: ('A' for Active; 'I' for Inactive)
REMARK    1  A    between atoms: C2_2  and  N1_3 
REMARK    2  A    between atoms: C2_2  and  C25_37 
REMARK    3  A    between atoms: N1_3  and  C3_5 
REMARK    4  A    between atoms: C3_5  and  C4_6 
REMARK    5  A    between atoms: C3_5  and  C12_14 
REMARK    6  A    between atoms: C4_6  and  C5_7 
REMARK    7  A    between atoms: C5_7  and  C6_8 
REMARK       I    between atoms: C12_14  and  N2_16 
REMARK    8  A    between atoms: N2_16  and  C13_18 
REMARK    9  A    between atoms: C13_18  and  C14_19 
REMARK   10  A    between atoms: C13_18  and  C18_27 
REMARK   11  A    between atoms: C14_19  and  C15_20 
REMARK   12  A    between atoms: C15_20  and  C16_21 
REMARK   13  A    between atoms: C16_21  and  N3_22 
REMARK       I    between atoms: C18_27  and  N6_29 
REMARK   14  A    between atoms: N6_29  and  C19_31 
ROOT
HETATM    1  C12 UNL     1     -17.342  93.376  80.959  1.00  0.00     0.240 C 
HETATM    2  O1  UNL     1     -16.914  92.503  80.142  1.00  0.00    -0.271 OA
HETATM    3  N2  UNL     1     -17.043  94.722  80.599  1.00  0.00    -0.346 N 
ATOM      4  H2  UNL     1     -17.349  95.484  81.204  1.00  0.00     0.163 HD
ENDROOT
BRANCH   3   5
HETATM    5  C13 UNL     1     -16.299  95.026  79.368  1.00  0.00     0.177 C 
BRANCH   5   6
HETATM    6  C14 UNL     1     -17.003  96.029  78.519  1.00  0.00     0.036 C 
BRANCH   6   7
HETATM    7  C15 UNL     1     -18.306  95.501  77.945  1.00  0.00     0.022 C 
BRANCH   7   8
HETATM    8  C16 UNL     1     -19.333  96.632  77.947  1.00  0.00     0.122 C 
BRANCH   8   9
HETATM    9  N3  UNL     1     -19.634  97.013  79.299  1.00  0.00    -0.367 N 
HETATM   10  C17 UNL     1     -20.823  96.937  79.747  1.00  0.00     0.196 C 
HETATM   11  N4  UNL     1     -21.066  97.326  81.090  1.00  0.00    -0.067 NA
HETATM   12  N5  UNL     1     -21.867  96.471  78.910  1.00  0.00    -0.067 NA
ATOM     13  H3  UNL     1     -18.887  97.349  79.906  1.00  0.00     0.161 HD
ENDBRANCH   8   9
ENDBRANCH   7   8
ENDBRANCH   6   7
ENDBRANCH   5   6
BRANCH   5  14
HETATM   14  C18 UNL     1     -15.013  95.678  79.821  1.00  0.00     0.245 C 
HETATM   15  O2  UNL     1     -14.967  96.284  80.903  1.00  0.00    -0.271 OA
HETATM   16  N6  UNL     1     -13.903  95.553  78.952  1.00  0.00    -0.325 N 
ATOM     17  H6  UNL     1     -14.035  95.037  78.082  1.00  0.00     0.169 HD
BRANCH  16  18
HETATM   18  C19 UNL     1     -12.632  96.092  79.207  1.00  0.00     0.034 A 
HETATM   19  C20 UNL     1     -11.538  95.220  79.222  1.00  0.00     0.029 A 
HETATM   20  C21 UNL     1     -10.263  95.631  79.458  1.00  0.00     0.002 A 
HETATM   21  C22 UNL     1      -9.997  96.957  79.697  1.00  0.00     0.000 A 
HETATM   22  C23 UNL     1     -11.052  97.822  79.687  1.00  0.00     0.002 A 
HETATM   23  C24 UNL     1     -12.367  97.396  79.443  1.00  0.00     0.029 A 
ENDBRANCH  16  18
ENDBRANCH   5  14
ENDBRANCH   3   5
BRANCH   1  24
HETATM   24  C3  UNL     1     -18.076  92.988  82.165  1.00  0.00     0.170 C 
BRANCH  24  25
HETATM   25  N1  UNL     1     -19.018  91.908  81.970  1.00  0.00    -0.396 N 
ATOM     26  H1  UNL     1     -18.802  90.947  82.235  1.00  0.00     0.154 HD
BRANCH  25  27
HETATM   27  C2  UNL     1     -20.268  92.266  81.385  1.00  0.00     0.175 C 
HETATM   28  C1  UNL     1     -20.520  93.749  81.744  1.00  0.00     0.043 C 
BRANCH  27  29
HETATM   29  C25 UNL     1     -21.421  91.555  81.981  1.00  0.00     0.195 C 
HETATM   30  O3  UNL     1     -21.757  91.799  83.152  1.00  0.00    -0.646 OA
HETATM   31  O4  UNL     1     -22.125  90.625  81.252  1.00  0.00    -0.646 OA
ENDBRANCH  27  29
ENDBRANCH  25  27
ENDBRANCH  24  25
BRANCH  24  32
HETATM   32  C4  UNL     1     -17.201  92.721  83.360  1.00  0.00     0.039 C 
BRANCH  32  33
HETATM   33  C5  UNL     1     -16.907  93.942  84.197  1.00  0.00     0.041 C 
BRANCH  33  34
HETATM   34  C6  UNL     1     -15.871  93.597  85.223  1.00  0.00    -0.058 A 
HETATM   35  C7  UNL     1     -15.705  94.429  86.307  1.00  0.00     0.007 A 
HETATM   36  C8  UNL     1     -14.759  94.154  87.289  1.00  0.00     0.001 A 
HETATM   37  C9  UNL     1     -13.961  93.034  87.200  1.00  0.00     0.000 A 
HETATM   38  C10 UNL     1     -14.126  92.199  86.116  1.00  0.00     0.001 A 
HETATM   39  C11 UNL     1     -15.074  92.477  85.135  1.00  0.00     0.007 A 
ENDBRANCH  33  34
ENDBRANCH  32  33
ENDBRANCH  24  32
ENDBRANCH   1  24
TORSDOF 14
ENDMDL
