MODEL 13
REMARK VINA RESULT: -8.725647985      3.382      7.986
REMARK  14 active torsions:
REMARK  status: ('A' for Active; 'I' for Inactive)
REMARK    1  A    between atoms: C2_2  and  N1_3 
REMARK    2  A    between atoms: C2_2  and  C25_37 
REMARK    3  A    between atoms: N1_3  and  C3_5 
REMARK    4  A    between atoms: C3_5  and  C4_6 
REMARK    5  A    between atoms: C3_5  and  C12_14 
REMARK    6  A    between atoms: C4_6  and  C5_7 
REMARK    7  A    between atoms: C5_7  and  C6_8 
REMARK       I    between atoms: C12_14  and  N2_16 
REMARK    8  A    between atoms: N2_16  and  C13_18 
REMARK    9  A    between atoms: C13_18  and  C14_19 
REMARK   10  A    between atoms: C13_18  and  C18_27 
REMARK   11  A    between atoms: C14_19  and  C15_20 
REMARK   12  A    between atoms: C15_20  and  C16_21 
REMARK   13  A    between atoms: C16_21  and  N3_22 
REMARK       I    between atoms: C18_27  and  N6_29 
REMARK   14  A    between atoms: N6_29  and  C19_31 
ROOT
HETATM    1  C12 UNL     1     -17.174  93.634  80.818  1.00  0.00     0.240 C 
HETATM    2  O1  UNL     1     -16.698  92.836  79.952  1.00  0.00    -0.271 OA
HETATM    3  N2  UNL     1     -16.963  95.014  80.532  1.00  0.00    -0.346 N 
ATOM      4  H2  UNL     1     -17.313  95.721  81.179  1.00  0.00     0.163 HD
ENDROOT
BRANCH   3   5
HETATM    5  C13 UNL     1     -16.248  95.432  79.317  1.00  0.00     0.177 C 
BRANCH   5   6
HETATM    6  C14 UNL     1     -16.883  96.615  78.670  1.00  0.00     0.036 C 
BRANCH   6   7
HETATM    7  C15 UNL     1     -18.400  96.570  78.722  1.00  0.00     0.022 C 
BRANCH   7   8
HETATM    8  C16 UNL     1     -18.900  95.677  77.588  1.00  0.00     0.122 C 
BRANCH   8   9
HETATM    9  N3  UNL     1     -18.447  96.195  76.326  1.00  0.00    -0.367 N 
HETATM   10  C17 UNL     1     -19.278  96.609  75.456  1.00  0.00     0.196 C 
HETATM   11  N4  UNL     1     -18.777  97.110  74.227  1.00  0.00    -0.067 NA
HETATM   12  N5  UNL     1     -20.668  96.564  75.727  1.00  0.00    -0.067 NA
ATOM     13  H3  UNL     1     -17.448  96.230  76.126  1.00  0.00     0.161 HD
ENDBRANCH   8   9
ENDBRANCH   7   8
ENDBRANCH   6   7
ENDBRANCH   5   6
BRANCH   5  14
HETATM   14  C18 UNL     1     -14.884  95.883  79.785  1.00  0.00     0.245 C 
HETATM   15  O2  UNL     1     -14.745  96.399  80.904  1.00  0.00    -0.271 OA
HETATM   16  N6  UNL     1     -13.810  95.681  78.883  1.00  0.00    -0.325 N 
ATOM     17  H6  UNL     1     -14.020  95.249  77.983  1.00  0.00     0.169 HD
BRANCH  16  18
HETATM   18  C19 UNL     1     -12.478  96.035  79.145  1.00  0.00     0.034 A 
HETATM   19  C20 UNL     1     -12.182  97.389  79.339  1.00  0.00     0.029 A 
HETATM   20  C21 UNL     1     -10.927  97.846  79.599  1.00  0.00     0.002 A 
HETATM   21  C22 UNL     1      -9.876  96.967  79.683  1.00  0.00     0.000 A 
HETATM   22  C23 UNL     1     -10.145  95.642  79.495  1.00  0.00     0.002 A 
HETATM   23  C24 UNL     1     -11.440  95.173  79.228  1.00  0.00     0.029 A 
ENDBRANCH  16  18
ENDBRANCH   5  14
ENDBRANCH   3   5
BRANCH   1  24
HETATM   24  C3  UNL     1     -17.875  93.135  82.003  1.00  0.00     0.170 C 
BRANCH  24  25
HETATM   25  N1  UNL     1     -18.762  92.021  81.748  1.00  0.00    -0.396 N 
ATOM     26  H1  UNL     1     -18.470  91.054  81.887  1.00  0.00     0.154 HD
BRANCH  25  27
HETATM   27  C2  UNL     1     -20.071  92.356  81.289  1.00  0.00     0.175 C 
HETATM   28  C1  UNL     1     -20.322  93.827  81.692  1.00  0.00     0.043 C 
BRANCH  27  29
HETATM   29  C25 UNL     1     -21.144  91.609  81.982  1.00  0.00     0.195 C 
HETATM   30  O3  UNL     1     -21.265  91.705  83.215  1.00  0.00    -0.646 OA
HETATM   31  O4  UNL     1     -22.012  90.809  81.275  1.00  0.00    -0.646 OA
ENDBRANCH  27  29
ENDBRANCH  25  27
ENDBRANCH  24  25
BRANCH  24  32
HETATM   32  C4  UNL     1     -16.975  92.841  83.172  1.00  0.00     0.039 C 
BRANCH  32  33
HETATM   33  C5  UNL     1     -16.927  93.938  84.207  1.00  0.00     0.041 C 
BRANCH  33  34
HETATM   34  C6  UNL     1     -15.886  93.602  85.231  1.00  0.00    -0.058 A 
HETATM   35  C7  UNL     1     -15.707  94.449  86.302  1.00  0.00     0.007 A 
HETATM   36  C8  UNL     1     -14.756  94.183  87.281  1.00  0.00     0.001 A 
HETATM   37  C9  UNL     1     -13.965  93.057  87.203  1.00  0.00     0.000 A 
HETATM   38  C10 UNL     1     -14.143  92.207  86.134  1.00  0.00     0.001 A 
HETATM   39  C11 UNL     1     -15.096  92.476  85.154  1.00  0.00     0.007 A 
ENDBRANCH  33  34
ENDBRANCH  32  33
ENDBRANCH  24  32
ENDBRANCH   1  24
TORSDOF 14
ENDMDL
