MODEL 3
REMARK VINA RESULT: -8.925096632      0.857      1.534
REMARK  14 active torsions:
REMARK  status: ('A' for Active; 'I' for Inactive)
REMARK    1  A    between atoms: C2_2  and  N1_3 
REMARK    2  A    between atoms: C2_2  and  C25_37 
REMARK    3  A    between atoms: N1_3  and  C3_5 
REMARK    4  A    between atoms: C3_5  and  C4_6 
REMARK    5  A    between atoms: C3_5  and  C12_14 
REMARK    6  A    between atoms: C4_6  and  C5_7 
REMARK    7  A    between atoms: C5_7  and  C6_8 
REMARK       I    between atoms: C12_14  and  N2_16 
REMARK    8  A    between atoms: N2_16  and  C13_18 
REMARK    9  A    between atoms: C13_18  and  C14_19 
REMARK   10  A    between atoms: C13_18  and  C18_27 
REMARK   11  A    between atoms: C14_19  and  C15_20 
REMARK   12  A    between atoms: C15_20  and  C16_21 
REMARK   13  A    between atoms: C16_21  and  N3_22 
REMARK       I    between atoms: C18_27  and  N6_29 
REMARK   14  A    between atoms: N6_29  and  C19_31 
ROOT
HETATM    1  C12 UNL     1     -20.013  92.486  82.134  1.00  0.00     0.240 C 
HETATM    2  O1  UNL     1     -20.062  93.313  83.096  1.00  0.00    -0.271 OA
HETATM    3  N2  UNL     1     -18.697  92.184  81.678  1.00  0.00    -0.346 N 
ATOM      4  H2  UNL     1     -18.569  91.529  80.906  1.00  0.00     0.163 HD
ENDROOT
BRANCH   3   5
HETATM    5  C13 UNL     1     -17.521  92.804  82.306  1.00  0.00     0.177 C 
BRANCH   5   6
HETATM    6  C14 UNL     1     -16.339  91.894  82.308  1.00  0.00     0.036 C 
BRANCH   6   7
HETATM    7  C15 UNL     1     -15.886  91.525  83.709  1.00  0.00     0.022 C 
BRANCH   7   8
HETATM    8  C16 UNL     1     -15.880  92.787  84.569  1.00  0.00     0.122 C 
BRANCH   8   9
HETATM    9  N3  UNL     1     -14.850  92.692  85.566  1.00  0.00    -0.367 N 
HETATM   10  C17 UNL     1     -14.817  93.501  86.548  1.00  0.00     0.196 C 
HETATM   11  N4  UNL     1     -13.779  93.363  87.504  1.00  0.00    -0.067 NA
HETATM   12  N5  UNL     1     -15.804  94.511  86.666  1.00  0.00    -0.067 NA
ATOM     13  H3  UNL     1     -14.137  91.967  85.487  1.00  0.00     0.161 HD
ENDBRANCH   8   9
ENDBRANCH   7   8
ENDBRANCH   6   7
ENDBRANCH   5   6
BRANCH   5  14
HETATM   14  C18 UNL     1     -17.157  93.973  81.421  1.00  0.00     0.245 C 
HETATM   15  O2  UNL     1     -16.410  94.868  81.844  1.00  0.00    -0.271 OA
HETATM   16  N6  UNL     1     -17.712  93.974  80.118  1.00  0.00    -0.325 N 
ATOM     17  H6  UNL     1     -18.317  93.195  79.859  1.00  0.00     0.169 HD
BRANCH  16  18
HETATM   18  C19 UNL     1     -17.485  94.975  79.161  1.00  0.00     0.034 A 
HETATM   19  C20 UNL     1     -18.465  95.188  78.185  1.00  0.00     0.029 A 
HETATM   20  C21 UNL     1     -18.351  96.129  77.209  1.00  0.00     0.002 A 
HETATM   21  C22 UNL     1     -17.236  96.927  77.147  1.00  0.00     0.000 A 
HETATM   22  C23 UNL     1     -16.268  96.734  78.090  1.00  0.00     0.002 A 
HETATM   23  C24 UNL     1     -16.389  95.763  79.096  1.00  0.00     0.029 A 
ENDBRANCH  16  18
ENDBRANCH   5  14
ENDBRANCH   3   5
BRANCH   1  24
HETATM   24  C3  UNL     1     -21.234  91.913  81.564  1.00  0.00     0.170 C 
BRANCH  24  25
HETATM   25  N1  UNL     1     -22.297  91.698  82.522  1.00  0.00    -0.396 N 
ATOM     26  H1  UNL     1     -22.131  91.726  83.528  1.00  0.00     0.154 HD
BRANCH  25  27
HETATM   27  C2  UNL     1     -23.589  91.443  81.977  1.00  0.00     0.175 C 
HETATM   28  C1  UNL     1     -24.619  91.981  82.997  1.00  0.00     0.043 C 
BRANCH  27  29
HETATM   29  C25 UNL     1     -23.909  90.001  81.874  1.00  0.00     0.195 C 
HETATM   30  O3  UNL     1     -23.409  89.200  82.681  1.00  0.00    -0.646 OA
HETATM   31  O4  UNL     1     -24.756  89.539  80.893  1.00  0.00    -0.646 OA
ENDBRANCH  27  29
ENDBRANCH  25  27
ENDBRANCH  24  25
BRANCH  24  32
HETATM   32  C4  UNL     1     -21.750  92.643  80.353  1.00  0.00     0.039 C 
BRANCH  32  33
HETATM   33  C5  UNL     1     -21.368  92.006  79.039  1.00  0.00     0.041 C 
BRANCH  33  34
HETATM   34  C6  UNL     1     -22.610  91.547  78.337  1.00  0.00    -0.058 A 
HETATM   35  C7  UNL     1     -23.808  92.156  78.635  1.00  0.00     0.007 A 
HETATM   36  C8  UNL     1     -24.988  91.768  78.011  1.00  0.00     0.001 A 
HETATM   37  C9  UNL     1     -24.988  90.759  77.072  1.00  0.00     0.000 A 
HETATM   38  C10 UNL     1     -23.790  90.149  76.772  1.00  0.00     0.001 A 
HETATM   39  C11 UNL     1     -22.609  90.539  77.398  1.00  0.00     0.007 A 
ENDBRANCH  33  34
ENDBRANCH  32  33
ENDBRANCH  24  32
ENDBRANCH   1  24
TORSDOF 14
ENDMDL
