MODEL 10
REMARK VINA RESULT: -10.832583225      3.031      4.339
REMARK  5 active torsions:
REMARK  status: ('A' for Active; 'I' for Inactive)
REMARK    1  A    between atoms: C5_10  and  C6_11 
REMARK    2  A    between atoms: C9_14  and  N3_15 
REMARK    3  A    between atoms: N3_15  and  C10_17 
REMARK    4  A    between atoms: C11_18  and  C12_19 
REMARK    5  A    between atoms: C12_19  and  C13_20 
ROOT
HETATM    1  N3  UNL     1      60.877   1.849  12.468  1.00  0.00    -0.359 N 
ATOM      2  H3  UNL     1      61.468   1.527  13.234  1.00  0.00     0.166 HD
ENDROOT
BRANCH   1   3
HETATM    3  C9  UNL     1      59.809   1.029  11.975  1.00  0.00     0.032 A 
HETATM    4  C8  UNL     1      59.843   0.477  10.714  1.00  0.00     0.030 A 
HETATM    5  C7  UNL     1      58.837  -0.319  10.199  1.00  0.00     0.015 A 
HETATM    6  C6  UNL     1      57.739  -0.582  10.973  1.00  0.00    -0.012 A 
HETATM    7  C24 UNL     1      57.682  -0.039  12.245  1.00  0.00     0.015 A 
HETATM    8  C23 UNL     1      58.696   0.752  12.739  1.00  0.00     0.030 A 
BRANCH   6   9
HETATM    9  C5  UNL     1      56.619  -1.424  10.499  1.00  0.00     0.040 C 
HETATM   10  C2  UNL     1      55.524  -1.685  11.447  1.00  0.00     0.042 C 
HETATM   11  C1  UNL     1      55.905  -2.784  12.406  1.00  0.00     0.017 C 
HETATM   12  C3  UNL     1      54.248  -2.112  10.753  1.00  0.00     0.115 C 
HETATM   13  C4  UNL     1      54.524  -3.009   9.601  1.00  0.00     0.236 C 
HETATM   14  O1  UNL     1      53.796  -4.027   9.365  1.00  0.00    -0.272 OA
HETATM   15  N1  UNL     1      55.633  -2.694   8.769  1.00  0.00    -0.270 N 
HETATM   16  N2  UNL     1      56.646  -1.890   9.296  1.00  0.00    -0.301 N 
ATOM     17  H1  UNL     1      55.687  -3.046   7.812  1.00  0.00     0.190 HD
ATOM     18  H2  UNL     1      57.442  -1.660   8.702  1.00  0.00     0.186 HD
ENDBRANCH   6   9
ENDBRANCH   1   3
BRANCH   1  19
HETATM   19  C10 UNL     1      61.095   3.112  11.869  1.00  0.00     0.019 C 
HETATM   20  C11 UNL     1      62.343   3.519  11.571  1.00  0.00     0.014 C 
HETATM   21  C19 UNL     1      62.463   4.836  10.957  1.00  0.00     0.157 C 
HETATM   22  O2  UNL     1      63.385   5.006  10.111  1.00  0.00    -0.293 OA
HETATM   23  C20 UNL     1      61.544   5.967  11.297  1.00  0.00     0.084 C 
HETATM   24  C21 UNL     1      60.401   5.413  12.147  1.00  0.00     0.014 C 
HETATM   25  C22 UNL     1      60.009   4.066  11.530  1.00  0.00     0.058 C 
BRANCH  20  26
HETATM   26  C12 UNL     1      63.493   2.660  11.861  1.00  0.00     0.083 C 
BRANCH  26  27
HETATM   27  C13 UNL     1      63.900   1.767  10.761  1.00  0.00    -0.052 A 
HETATM   28  C14 UNL     1      63.145   1.639   9.608  1.00  0.00     0.007 A 
HETATM   29  C15 UNL     1      63.543   0.793   8.592  1.00  0.00     0.002 A 
HETATM   30  C16 UNL     1      64.699   0.049   8.681  1.00  0.00     0.018 A 
HETATM   31  C17 UNL     1      65.446   0.183   9.833  1.00  0.00     0.006 A 
HETATM   32  I1  UNL     1      67.219  -0.950   9.984  1.00  0.00    -0.045 I 
HETATM   33  C18 UNL     1      65.064   1.019  10.853  1.00  0.00     0.025 A 
ENDBRANCH  26  27
ENDBRANCH  20  26
ENDBRANCH   1  19
TORSDOF 5
ENDMDL
