MODEL 1
REMARK VINA RESULT: -11.664819516      0.000      0.000
REMARK  5 active torsions:
REMARK  status: ('A' for Active; 'I' for Inactive)
REMARK    1  A    between atoms: C5_10  and  C6_11 
REMARK    2  A    between atoms: C9_14  and  N3_15 
REMARK    3  A    between atoms: N3_15  and  C10_17 
REMARK    4  A    between atoms: C11_18  and  C12_19 
REMARK    5  A    between atoms: C12_19  and  C13_20 
ROOT
HETATM    1  N3  UNL     1      60.413   3.053  12.965  1.00  0.00    -0.359 N 
ATOM      2  H3  UNL     1      61.281   3.339  12.513  1.00  0.00     0.166 HD
ENDROOT
BRANCH   1   3
HETATM    3  C9  UNL     1      59.572   2.056  12.369  1.00  0.00     0.032 A 
HETATM    4  C8  UNL     1      60.048   1.185  11.415  1.00  0.00     0.030 A 
HETATM    5  C7  UNL     1      59.274   0.208  10.815  1.00  0.00     0.015 A 
HETATM    6  C6  UNL     1      57.959   0.090  11.179  1.00  0.00    -0.012 A 
HETATM    7  C24 UNL     1      57.458   0.954  12.137  1.00  0.00     0.015 A 
HETATM    8  C23 UNL     1      58.247   1.920  12.722  1.00  0.00     0.030 A 
BRANCH   6   9
HETATM    9  C5  UNL     1      57.064  -0.928  10.588  1.00  0.00     0.040 C 
HETATM   10  C2  UNL     1      55.931  -1.387  11.408  1.00  0.00     0.042 C 
HETATM   11  C1  UNL     1      56.386  -2.415  12.412  1.00  0.00     0.017 C 
HETATM   12  C3  UNL     1      54.835  -2.019  10.578  1.00  0.00     0.115 C 
HETATM   13  C4  UNL     1      55.390  -2.841   9.471  1.00  0.00     0.236 C 
HETATM   14  O1  UNL     1      54.881  -3.966   9.161  1.00  0.00    -0.272 OA
HETATM   15  N1  UNL     1      56.513  -2.328   8.767  1.00  0.00    -0.270 N 
HETATM   16  N2  UNL     1      57.305  -1.367   9.399  1.00  0.00    -0.301 N 
ATOM     17  H1  UNL     1      56.735  -2.653   7.825  1.00  0.00     0.190 HD
ATOM     18  H2  UNL     1      58.112  -0.995   8.897  1.00  0.00     0.186 HD
ENDBRANCH   6   9
ENDBRANCH   1   3
BRANCH   1  19
HETATM   19  C10 UNL     1      60.013   3.633  14.192  1.00  0.00     0.019 C 
HETATM   20  C11 UNL     1      60.100   4.964  14.377  1.00  0.00     0.014 C 
HETATM   21  C19 UNL     1      59.664   5.464  15.675  1.00  0.00     0.157 C 
HETATM   22  O2  UNL     1      59.116   6.601  15.710  1.00  0.00    -0.293 OA
HETATM   23  C20 UNL     1      59.845   4.684  16.939  1.00  0.00     0.084 C 
HETATM   24  C21 UNL     1      60.302   3.274  16.567  1.00  0.00     0.014 C 
HETATM   25  C22 UNL     1      59.483   2.856  15.341  1.00  0.00     0.058 C 
BRANCH  20  26
HETATM   26  C12 UNL     1      60.609   5.829  13.312  1.00  0.00     0.083 C 
BRANCH  26  27
HETATM   27  C13 UNL     1      62.025   6.222  13.448  1.00  0.00    -0.052 A 
HETATM   28  C14 UNL     1      62.426   7.209  14.331  1.00  0.00     0.007 A 
HETATM   29  C15 UNL     1      63.757   7.563  14.438  1.00  0.00     0.002 A 
HETATM   30  C16 UNL     1      64.731   6.953  13.679  1.00  0.00     0.018 A 
HETATM   31  C17 UNL     1      64.321   5.971  12.802  1.00  0.00     0.006 A 
HETATM   32  I1  UNL     1      65.803   5.028  11.632  1.00  0.00    -0.045 I 
HETATM   33  C18 UNL     1      63.004   5.607  12.683  1.00  0.00     0.025 A 
ENDBRANCH  26  27
ENDBRANCH  20  26
ENDBRANCH   1  19
TORSDOF 5
ENDMDL
