MODEL 5
REMARK VINA RESULT: -11.064161054      3.203      4.209
REMARK  5 active torsions:
REMARK  status: ('A' for Active; 'I' for Inactive)
REMARK    1  A    between atoms: C5_10  and  C6_11 
REMARK    2  A    between atoms: C9_14  and  N3_15 
REMARK    3  A    between atoms: N3_15  and  C10_17 
REMARK    4  A    between atoms: C11_18  and  C12_19 
REMARK    5  A    between atoms: C12_19  and  C13_20 
ROOT
HETATM    1  N3  UNL     1      61.543   1.568  10.455  1.00  0.00    -0.359 N 
ATOM      2  H3  UNL     1      62.420   1.247  10.044  1.00  0.00     0.166 HD
ENDROOT
BRANCH   1   3
HETATM    3  C9  UNL     1      60.352   0.778  10.346  1.00  0.00     0.032 A 
HETATM    4  C8  UNL     1      59.376   0.803  11.317  1.00  0.00     0.030 A 
HETATM    5  C7  UNL     1      58.212   0.059  11.252  1.00  0.00     0.015 A 
HETATM    6  C6  UNL     1      58.005  -0.753  10.169  1.00  0.00    -0.012 A 
HETATM    7  C24 UNL     1      58.971  -0.795   9.180  1.00  0.00     0.015 A 
HETATM    8  C23 UNL     1      60.124  -0.045   9.264  1.00  0.00     0.030 A 
BRANCH   6   9
HETATM    9  C5  UNL     1      56.787  -1.580  10.023  1.00  0.00     0.040 C 
HETATM   10  C2  UNL     1      55.875  -1.646  11.175  1.00  0.00     0.042 C 
HETATM   11  C1  UNL     1      56.383  -2.629  12.198  1.00  0.00     0.017 C 
HETATM   12  C3  UNL     1      54.479  -2.080  10.783  1.00  0.00     0.115 C 
HETATM   13  C4  UNL     1      54.506  -3.137   9.740  1.00  0.00     0.236 C 
HETATM   14  O1  UNL     1      53.710  -4.130   9.781  1.00  0.00    -0.272 OA
HETATM   15  N1  UNL     1      55.456  -3.004   8.689  1.00  0.00    -0.270 N 
HETATM   16  N2  UNL     1      56.577  -2.202   8.912  1.00  0.00    -0.301 N 
ATOM     17  H1  UNL     1      55.321  -3.483   7.798  1.00  0.00     0.190 HD
ATOM     18  H2  UNL     1      57.260  -2.102   8.161  1.00  0.00     0.186 HD
ENDBRANCH   6   9
ENDBRANCH   1   3
BRANCH   1  19
HETATM   19  C10 UNL     1      61.478   2.802  11.144  1.00  0.00     0.019 C 
HETATM   20  C11 UNL     1      62.597   3.367  11.636  1.00  0.00     0.014 C 
HETATM   21  C19 UNL     1      62.426   4.638  12.330  1.00  0.00     0.157 C 
HETATM   22  O2  UNL     1      63.354   5.488  12.233  1.00  0.00    -0.293 OA
HETATM   23  C20 UNL     1      61.207   4.953  13.138  1.00  0.00     0.084 C 
HETATM   24  C21 UNL     1      60.168   3.862  12.880  1.00  0.00     0.014 C 
HETATM   25  C22 UNL     1      60.220   3.553  11.379  1.00  0.00     0.058 C 
BRANCH  20  26
HETATM   26  C12 UNL     1      63.896   2.714  11.464  1.00  0.00     0.083 C 
BRANCH  26  27
HETATM   27  C13 UNL     1      64.335   2.552  10.065  1.00  0.00    -0.052 A 
HETATM   28  C14 UNL     1      64.314   3.607   9.168  1.00  0.00     0.007 A 
HETATM   29  C15 UNL     1      64.726   3.431   7.861  1.00  0.00     0.002 A 
HETATM   30  C16 UNL     1      65.171   2.211   7.401  1.00  0.00     0.018 A 
HETATM   31  C17 UNL     1      65.187   1.167   8.302  1.00  0.00     0.006 A 
HETATM   32  I1  UNL     1      65.866  -0.707   7.609  1.00  0.00    -0.045 I 
HETATM   33  C18 UNL     1      64.782   1.324   9.603  1.00  0.00     0.025 A 
ENDBRANCH  26  27
ENDBRANCH  20  26
ENDBRANCH   1  19
TORSDOF 5
ENDMDL
