MODEL 2
REMARK VINA RESULT: -11.531275523      0.854      1.163
REMARK  5 active torsions:
REMARK  status: ('A' for Active; 'I' for Inactive)
REMARK    1  A    between atoms: C5_10  and  C6_11 
REMARK    2  A    between atoms: C9_14  and  N3_15 
REMARK    3  A    between atoms: N3_15  and  C10_17 
REMARK    4  A    between atoms: C11_18  and  C12_19 
REMARK    5  A    between atoms: C12_19  and  C13_20 
ROOT
HETATM    1  N3  UNL     1      60.487   3.373  13.038  1.00  0.00    -0.359 N 
ATOM      2  H3  UNL     1      61.328   3.704  12.567  1.00  0.00     0.166 HD
ENDROOT
BRANCH   1   3
HETATM    3  C9  UNL     1      59.679   2.343  12.453  1.00  0.00     0.032 A 
HETATM    4  C8  UNL     1      60.203   1.426  11.569  1.00  0.00     0.030 A 
HETATM    5  C7  UNL     1      59.462   0.417  10.983  1.00  0.00     0.015 A 
HETATM    6  C6  UNL     1      58.131   0.310  11.287  1.00  0.00    -0.012 A 
HETATM    7  C24 UNL     1      57.582   1.219  12.174  1.00  0.00     0.015 A 
HETATM    8  C23 UNL     1      58.338   2.218  12.747  1.00  0.00     0.030 A 
BRANCH   6   9
HETATM    9  C5  UNL     1      57.268  -0.741  10.705  1.00  0.00     0.040 C 
HETATM   10  C2  UNL     1      57.931  -1.954  10.203  1.00  0.00     0.042 C 
HETATM   11  C1  UNL     1      58.511  -1.713   8.832  1.00  0.00     0.017 C 
HETATM   12  C3  UNL     1      56.982  -3.128  10.093  1.00  0.00     0.115 C 
HETATM   13  C4  UNL     1      55.642  -2.706   9.611  1.00  0.00     0.236 C 
HETATM   14  O1  UNL     1      54.992  -3.403   8.766  1.00  0.00    -0.272 OA
HETATM   15  N1  UNL     1      55.106  -1.494  10.126  1.00  0.00    -0.270 N 
HETATM   16  N2  UNL     1      55.992  -0.556  10.660  1.00  0.00    -0.301 N 
ATOM     17  H1  UNL     1      54.102  -1.315  10.105  1.00  0.00     0.190 HD
ATOM     18  H2  UNL     1      55.613   0.315  11.031  1.00  0.00     0.186 HD
ENDBRANCH   6   9
ENDBRANCH   1   3
BRANCH   1  19
HETATM   19  C10 UNL     1      60.092   3.920  14.281  1.00  0.00     0.019 C 
HETATM   20  C11 UNL     1      60.185   5.246  14.502  1.00  0.00     0.014 C 
HETATM   21  C19 UNL     1      59.754   5.713  15.814  1.00  0.00     0.157 C 
HETATM   22  O2  UNL     1      59.210   6.850  15.882  1.00  0.00    -0.293 OA
HETATM   23  C20 UNL     1      59.936   4.898  17.056  1.00  0.00     0.084 C 
HETATM   24  C21 UNL     1      60.387   3.496  16.645  1.00  0.00     0.014 C 
HETATM   25  C22 UNL     1      59.563   3.115  15.410  1.00  0.00     0.058 C 
BRANCH  20  26
HETATM   26  C12 UNL     1      60.694   6.138  13.459  1.00  0.00     0.083 C 
BRANCH  26  27
HETATM   27  C13 UNL     1      62.141   6.418  13.527  1.00  0.00    -0.052 A 
HETATM   28  C14 UNL     1      62.660   7.361  14.397  1.00  0.00     0.007 A 
HETATM   29  C15 UNL     1      64.018   7.610  14.440  1.00  0.00     0.002 A 
HETATM   30  C16 UNL     1      64.904   6.936  13.629  1.00  0.00     0.018 A 
HETATM   31  C17 UNL     1      64.377   5.998  12.766  1.00  0.00     0.006 A 
HETATM   32  I1  UNL     1      65.722   4.957  11.518  1.00  0.00    -0.045 I 
HETATM   33  C18 UNL     1      63.030   5.738  12.710  1.00  0.00     0.025 A 
ENDBRANCH  26  27
ENDBRANCH  20  26
ENDBRANCH   1  19
TORSDOF 5
ENDMDL
