MODEL 9
REMARK VINA RESULT: -10.868404950      2.393      3.445
REMARK  5 active torsions:
REMARK  status: ('A' for Active; 'I' for Inactive)
REMARK    1  A    between atoms: C5_10  and  C6_11 
REMARK    2  A    between atoms: C9_14  and  N3_15 
REMARK    3  A    between atoms: N3_15  and  C10_17 
REMARK    4  A    between atoms: C11_18  and  C12_19 
REMARK    5  A    between atoms: C12_19  and  C13_20 
ROOT
HETATM    1  N3  UNL     1      60.963   2.267  12.483  1.00  0.00    -0.359 N 
ATOM      2  H3  UNL     1      60.897   2.674  13.415  1.00  0.00     0.166 HD
ENDROOT
BRANCH   1   3
HETATM    3  C9  UNL     1      59.942   1.386  11.995  1.00  0.00     0.032 A 
HETATM    4  C8  UNL     1      59.997   0.846  10.730  1.00  0.00     0.030 A 
HETATM    5  C7  UNL     1      59.035  -0.008  10.220  1.00  0.00     0.015 A 
HETATM    6  C6  UNL     1      57.964  -0.342  11.004  1.00  0.00    -0.012 A 
HETATM    7  C24 UNL     1      57.888   0.188  12.280  1.00  0.00     0.015 A 
HETATM    8  C23 UNL     1      58.856   1.037  12.769  1.00  0.00     0.030 A 
BRANCH   6   9
HETATM    9  C5  UNL     1      56.893  -1.249  10.536  1.00  0.00     0.040 C 
HETATM   10  C2  UNL     1      55.875  -1.653  11.518  1.00  0.00     0.042 C 
HETATM   11  C1  UNL     1      56.394  -2.766  12.392  1.00  0.00     0.017 C 
HETATM   12  C3  UNL     1      54.603  -2.146  10.863  1.00  0.00     0.115 C 
HETATM   13  C4  UNL     1      54.889  -2.953   9.649  1.00  0.00     0.236 C 
HETATM   14  O1  UNL     1      54.234  -4.014   9.388  1.00  0.00    -0.272 OA
HETATM   15  N1  UNL     1      55.923  -2.500   8.783  1.00  0.00    -0.270 N 
HETATM   16  N2  UNL     1      56.893  -1.644   9.307  1.00  0.00    -0.301 N 
ATOM     17  H1  UNL     1      55.955  -2.794   7.807  1.00  0.00     0.190 HD
ATOM     18  H2  UNL     1      57.636  -1.316   8.691  1.00  0.00     0.186 HD
ENDBRANCH   6   9
ENDBRANCH   1   3
BRANCH   1  19
HETATM   19  C10 UNL     1      62.065   2.558  11.644  1.00  0.00     0.019 C 
HETATM   20  C11 UNL     1      62.173   3.764  11.056  1.00  0.00     0.014 C 
HETATM   21  C19 UNL     1      63.343   3.967  10.210  1.00  0.00     0.157 C 
HETATM   22  O2  UNL     1      63.847   5.124  10.174  1.00  0.00    -0.293 OA
HETATM   23  C20 UNL     1      63.949   2.864   9.400  1.00  0.00     0.084 C 
HETATM   24  C21 UNL     1      63.296   1.548   9.822  1.00  0.00     0.014 C 
HETATM   25  C22 UNL     1      63.157   1.597  11.347  1.00  0.00     0.058 C 
BRANCH  20  26
HETATM   26  C12 UNL     1      61.154   4.791  11.276  1.00  0.00     0.083 C 
BRANCH  26  27
HETATM   27  C13 UNL     1      61.445   5.737  12.370  1.00  0.00    -0.052 A 
HETATM   28  C14 UNL     1      60.689   6.881  12.564  1.00  0.00     0.007 A 
HETATM   29  C15 UNL     1      60.982   7.755  13.593  1.00  0.00     0.002 A 
HETATM   30  C16 UNL     1      62.027   7.527  14.461  1.00  0.00     0.018 A 
HETATM   31  C17 UNL     1      62.774   6.385  14.259  1.00  0.00     0.006 A 
HETATM   32  I1  UNL     1      64.379   6.023  15.580  1.00  0.00    -0.045 I 
HETATM   33  C18 UNL     1      62.497   5.506  13.242  1.00  0.00     0.025 A 
ENDBRANCH  26  27
ENDBRANCH  20  26
ENDBRANCH   1  19
TORSDOF 5
ENDMDL
