MODEL 10
REMARK VINA RESULT: -8.837415984      2.287      2.768
REMARK  7 active torsions:
REMARK  status: ('A' for Active; 'I' for Inactive)
REMARK    1  A    between atoms: C1_2  and  C2_6 
REMARK    2  A    between atoms: C7_11  and  C8_12 
REMARK       I    between atoms: C8_12  and  N3_14 
REMARK    3  A    between atoms: N3_14  and  C9_16 
REMARK    4  A    between atoms: C12_19  and  C13_20 
REMARK    5  A    between atoms: C13_20  and  N4_21 
REMARK    6  A    between atoms: C17_28  and  N5_29 
REMARK    7  A    between atoms: N5_29  and  C18_31 
ROOT
HETATM    1  C2  UNL     1      19.274  18.614  33.581  1.00  0.00     0.005 A 
HETATM    2  C3  UNL     1      18.800  17.485  32.951  1.00  0.00     0.015 A 
HETATM    3  C4  UNL     1      19.631  16.485  32.505  1.00  0.00     0.013 A 
HETATM    4  C5  UNL     1      21.001  16.567  32.670  1.00  0.00    -0.023 A 
HETATM    5  C6  UNL     1      21.799  15.525  32.195  1.00  0.00     0.029 A 
HETATM    6  C7  UNL     1      23.158  15.593  32.350  1.00  0.00     0.035 A 
HETATM    7  C16 UNL     1      23.673  16.699  32.972  1.00  0.00     0.048 A 
HETATM    8  C17 UNL     1      22.904  17.747  33.451  1.00  0.00     0.061 A 
HETATM    9  C22 UNL     1      21.513  17.681  33.295  1.00  0.00     0.002 A 
HETATM   10  C23 UNL     1      20.671  18.679  33.738  1.00  0.00     0.029 A 
ENDROOT
BRANCH   6  11
HETATM   11  C8  UNL     1      23.975  14.491  31.855  1.00  0.00     0.256 C 
HETATM   12  O1  UNL     1      23.500  13.335  31.894  1.00  0.00    -0.267 OA
HETATM   13  N3  UNL     1      25.253  14.689  31.344  1.00  0.00    -0.323 N 
ATOM     14  H3  UNL     1      25.582  15.654  31.333  1.00  0.00     0.169 HD
BRANCH  13  15
HETATM   15  C9  UNL     1      26.159  13.722  30.835  1.00  0.00     0.035 A 
HETATM   16  C10 UNL     1      26.827  12.837  31.633  1.00  0.00     0.030 A 
HETATM   17  C11 UNL     1      27.714  11.883  31.101  1.00  0.00     0.011 A 
HETATM   18  C12 UNL     1      27.949  11.796  29.749  1.00  0.00    -0.033 A 
HETATM   19  C14 UNL     1      27.269  12.694  28.956  1.00  0.00     0.011 A 
HETATM   20  C15 UNL     1      26.404  13.625  29.471  1.00  0.00     0.030 A 
BRANCH  18  21
HETATM   21  C13 UNL     1      28.873  10.806  29.151  1.00  0.00     0.268 C 
BRANCH  21  22
HETATM   22  N4  UNL     1      28.124  10.043  28.158  1.00  0.00    -0.075 N 
ATOM     23  H43 UNL     1      28.715   9.665  27.419  1.00  0.00     0.274 HD
ATOM     24  H42 UNL     1      27.777   9.155  28.520  1.00  0.00     0.274 HD
ATOM     25  H41 UNL     1      27.380  10.644  27.803  1.00  0.00     0.274 HD
ENDBRANCH  21  22
ENDBRANCH  18  21
ENDBRANCH  13  15
ENDBRANCH   6  11
BRANCH   8  26
HETATM   26  N5  UNL     1      23.442  18.881  34.102  1.00  0.00    -0.191 N 
ATOM     27  H5  UNL     1      23.523  19.742  33.561  1.00  0.00     0.184 HD
BRANCH  26  28
HETATM   28  C18 UNL     1      23.872  18.909  35.435  1.00  0.00     0.682 A 
HETATM   29  N6  UNL     1      23.886  17.720  36.125  1.00  0.00    -0.202 N 
HETATM   30  C19 UNL     1      24.272  17.637  37.392  1.00  0.00     0.107 A 
ATOM     31  H6  UNL     1      23.590  16.870  35.645  1.00  0.00     0.183 HD
HETATM   32  C20 UNL     1      24.679  18.768  38.071  1.00  0.00     0.035 A 
HETATM   33  C21 UNL     1      24.674  19.982  37.394  1.00  0.00     0.107 A 
HETATM   34  N7  UNL     1      24.263  19.959  36.105  1.00  0.00    -0.202 N 
ATOM     35  H7  UNL     1      24.259  20.850  35.608  1.00  0.00     0.183 HD
ENDBRANCH  26  28
ENDBRANCH   8  26
BRANCH   1  36
HETATM   36  C1  UNL     1      18.394  19.668  34.050  1.00  0.00     0.120 C 
HETATM   37  N1  UNL     1      17.019  19.592  33.621  1.00  0.00    -0.082 NA
HETATM   38  N2  UNL     1      18.713  20.647  34.800  1.00  0.00    -0.387 N 
ATOM     39  H22 UNL     1      18.095  21.388  35.130  1.00  0.00     0.157 HD
ATOM     40  H21 UNL     1      19.685  20.701  35.104  1.00  0.00     0.157 HD
ENDBRANCH   1  36
TORSDOF 7
ENDMDL
