MODEL 7
REMARK VINA RESULT: -9.017855265      2.769      5.056
REMARK  7 active torsions:
REMARK  status: ('A' for Active; 'I' for Inactive)
REMARK    1  A    between atoms: C1_2  and  C2_6 
REMARK    2  A    between atoms: C7_11  and  C8_12 
REMARK       I    between atoms: C8_12  and  N3_14 
REMARK    3  A    between atoms: N3_14  and  C9_16 
REMARK    4  A    between atoms: C12_19  and  C13_20 
REMARK    5  A    between atoms: C13_20  and  N4_21 
REMARK    6  A    between atoms: C17_28  and  N5_29 
REMARK    7  A    between atoms: N5_29  and  C18_31 
ROOT
HETATM    1  C2  UNL     1      24.993  18.254  30.504  1.00  0.00     0.005 A 
HETATM    2  C3  UNL     1      25.624  17.199  29.884  1.00  0.00     0.015 A 
HETATM    3  C4  UNL     1      25.493  15.902  30.320  1.00  0.00     0.013 A 
HETATM    4  C5  UNL     1      24.710  15.591  31.416  1.00  0.00    -0.023 A 
HETATM    5  C6  UNL     1      24.614  14.257  31.817  1.00  0.00     0.029 A 
HETATM    6  C7  UNL     1      23.843  13.934  32.902  1.00  0.00     0.035 A 
HETATM    7  C16 UNL     1      23.197  14.953  33.549  1.00  0.00     0.048 A 
HETATM    8  C17 UNL     1      23.275  16.285  33.172  1.00  0.00     0.061 A 
HETATM    9  C22 UNL     1      24.062  16.619  32.062  1.00  0.00     0.002 A 
HETATM   10  C23 UNL     1      24.201  17.917  31.617  1.00  0.00     0.029 A 
ENDROOT
BRANCH   6  11
HETATM   11  C8  UNL     1      23.749  12.536  33.302  1.00  0.00     0.256 C 
HETATM   12  O1  UNL     1      22.637  12.094  33.663  1.00  0.00    -0.267 OA
HETATM   13  N3  UNL     1      24.851  11.687  33.291  1.00  0.00    -0.323 N 
ATOM     14  H3  UNL     1      25.729  12.104  32.982  1.00  0.00     0.169 HD
BRANCH  13  15
HETATM   15  C9  UNL     1      24.913  10.316  33.655  1.00  0.00     0.035 A 
HETATM   16  C10 UNL     1      24.571   9.305  32.801  1.00  0.00     0.030 A 
HETATM   17  C11 UNL     1      24.650   7.954  33.185  1.00  0.00     0.011 A 
HETATM   18  C12 UNL     1      25.076   7.587  34.440  1.00  0.00    -0.033 A 
HETATM   19  C14 UNL     1      25.417   8.616  35.289  1.00  0.00     0.011 A 
HETATM   20  C15 UNL     1      25.342   9.934  34.919  1.00  0.00     0.030 A 
BRANCH  18  21
HETATM   21  C13 UNL     1      25.173   6.177  34.880  1.00  0.00     0.268 C 
BRANCH  21  22
HETATM   22  N4  UNL     1      25.302   6.175  36.335  1.00  0.00    -0.075 N 
ATOM     23  H43 UNL     1      25.424   7.109  36.724  1.00  0.00     0.274 HD
ATOM     24  H42 UNL     1      24.429   5.945  36.809  1.00  0.00     0.274 HD
ATOM     25  H41 UNL     1      26.064   5.541  36.577  1.00  0.00     0.274 HD
ENDBRANCH  21  22
ENDBRANCH  18  21
ENDBRANCH  13  15
ENDBRANCH   6  11
BRANCH   8  26
HETATM   26  N5  UNL     1      22.596  17.329  33.838  1.00  0.00    -0.191 N 
ATOM     27  H5  UNL     1      23.147  17.949  34.432  1.00  0.00     0.184 HD
BRANCH  26  28
HETATM   28  C18 UNL     1      21.219  17.577  33.743  1.00  0.00     0.682 A 
HETATM   29  N6  UNL     1      20.788  18.865  33.951  1.00  0.00    -0.202 N 
HETATM   30  C19 UNL     1      19.508  19.206  33.888  1.00  0.00     0.107 A 
ATOM     31  H6  UNL     1      21.479  19.586  34.162  1.00  0.00     0.183 HD
HETATM   32  C20 UNL     1      18.548  18.255  33.606  1.00  0.00     0.035 A 
HETATM   33  C21 UNL     1      18.959  16.945  33.391  1.00  0.00     0.107 A 
HETATM   34  N7  UNL     1      20.288  16.702  33.477  1.00  0.00    -0.202 N 
ATOM     35  H7  UNL     1      20.590  15.741  33.320  1.00  0.00     0.183 HD
ENDBRANCH  26  28
ENDBRANCH   8  26
BRANCH   1  36
HETATM   36  C1  UNL     1      25.133  19.623  30.042  1.00  0.00     0.120 C 
HETATM   37  N1  UNL     1      26.481  20.112  29.895  1.00  0.00    -0.082 NA
HETATM   38  N2  UNL     1      24.189  20.428  29.754  1.00  0.00    -0.387 N 
ATOM     39  H22 UNL     1      24.288  21.390  29.430  1.00  0.00     0.157 HD
ATOM     40  H21 UNL     1      23.236  20.081  29.858  1.00  0.00     0.157 HD
ENDBRANCH   1  36
TORSDOF 7
ENDMDL
