MODEL 5
REMARK VINA RESULT: -9.043075325      1.810      2.206
REMARK  7 active torsions:
REMARK  status: ('A' for Active; 'I' for Inactive)
REMARK    1  A    between atoms: C1_2  and  C2_6 
REMARK    2  A    between atoms: C7_11  and  C8_12 
REMARK       I    between atoms: C8_12  and  N3_14 
REMARK    3  A    between atoms: N3_14  and  C9_16 
REMARK    4  A    between atoms: C12_19  and  C13_20 
REMARK    5  A    between atoms: C13_20  and  N4_21 
REMARK    6  A    between atoms: C17_28  and  N5_29 
REMARK    7  A    between atoms: N5_29  and  C18_31 
ROOT
HETATM    1  C2  UNL     1      19.368  18.460  33.465  1.00  0.00     0.005 A 
HETATM    2  C3  UNL     1      18.921  17.370  32.752  1.00  0.00     0.015 A 
HETATM    3  C4  UNL     1      19.777  16.448  32.200  1.00  0.00     0.013 A 
HETATM    4  C5  UNL     1      21.147  16.572  32.335  1.00  0.00    -0.023 A 
HETATM    5  C6  UNL     1      21.971  15.608  31.752  1.00  0.00     0.029 A 
HETATM    6  C7  UNL     1      23.330  15.718  31.877  1.00  0.00     0.035 A 
HETATM    7  C16 UNL     1      23.820  16.788  32.579  1.00  0.00     0.048 A 
HETATM    8  C17 UNL     1      23.025  17.758  33.167  1.00  0.00     0.061 A 
HETATM    9  C22 UNL     1      21.633  17.648  33.042  1.00  0.00     0.002 A 
HETATM   10  C23 UNL     1      20.766  18.568  33.591  1.00  0.00     0.029 A 
ENDROOT
BRANCH   6  11
HETATM   11  C8  UNL     1      24.174  14.698  31.267  1.00  0.00     0.256 C 
HETATM   12  O1  UNL     1      24.236  14.645  30.020  1.00  0.00    -0.267 OA
HETATM   13  N3  UNL     1      24.907  13.792  32.027  1.00  0.00    -0.323 N 
ATOM     14  H3  UNL     1      24.820  13.889  33.039  1.00  0.00     0.169 HD
BRANCH  13  15
HETATM   15  C9  UNL     1      25.760  12.751  31.578  1.00  0.00     0.035 A 
HETATM   16  C10 UNL     1      26.972  12.984  30.992  1.00  0.00     0.030 A 
HETATM   17  C11 UNL     1      27.803  11.931  30.563  1.00  0.00     0.011 A 
HETATM   18  C12 UNL     1      27.430  10.616  30.715  1.00  0.00    -0.033 A 
HETATM   19  C14 UNL     1      26.207  10.396  31.307  1.00  0.00     0.011 A 
HETATM   20  C15 UNL     1      25.396  11.419  31.726  1.00  0.00     0.030 A 
BRANCH  18  21
HETATM   21  C13 UNL     1      28.276   9.482  30.278  1.00  0.00     0.268 C 
BRANCH  21  22
HETATM   22  N4  UNL     1      28.007   9.249  28.862  1.00  0.00    -0.075 N 
ATOM     23  H43 UNL     1      27.047   9.471  28.599  1.00  0.00     0.274 HD
ATOM     24  H42 UNL     1      28.472   9.923  28.254  1.00  0.00     0.274 HD
ATOM     25  H41 UNL     1      28.262   8.284  28.653  1.00  0.00     0.274 HD
ENDBRANCH  21  22
ENDBRANCH  18  21
ENDBRANCH  13  15
ENDBRANCH   6  11
BRANCH   8  26
HETATM   26  N5  UNL     1      23.537  18.853  33.899  1.00  0.00    -0.191 N 
ATOM     27  H5  UNL     1      23.628  19.745  33.414  1.00  0.00     0.184 HD
BRANCH  26  28
HETATM   28  C18 UNL     1      23.928  18.803  35.245  1.00  0.00     0.682 A 
HETATM   29  N6  UNL     1      24.386  19.964  35.818  1.00  0.00    -0.202 N 
HETATM   30  C19 UNL     1      24.785  20.025  37.082  1.00  0.00     0.107 A 
ATOM     31  H6  UNL     1      24.421  20.812  35.251  1.00  0.00     0.183 HD
HETATM   32  C20 UNL     1      24.751  18.897  37.877  1.00  0.00     0.035 A 
HETATM   33  C21 UNL     1      24.290  17.710  37.319  1.00  0.00     0.107 A 
HETATM   34  N7  UNL     1      23.907  17.755  36.022  1.00  0.00    -0.202 N 
ATOM     35  H7  UNL     1      23.570  16.884  35.613  1.00  0.00     0.183 HD
ENDBRANCH  26  28
ENDBRANCH   8  26
BRANCH   1  36
HETATM   36  C1  UNL     1      18.462  19.433  34.047  1.00  0.00     0.120 C 
HETATM   37  N1  UNL     1      17.092  19.377  33.600  1.00  0.00    -0.082 NA
HETATM   38  N2  UNL     1      18.755  20.324  34.908  1.00  0.00    -0.387 N 
ATOM     39  H22 UNL     1      18.118  21.008  35.317  1.00  0.00     0.157 HD
ATOM     40  H21 UNL     1      19.724  20.363  35.224  1.00  0.00     0.157 HD
ENDBRANCH   1  36
TORSDOF 7
ENDMDL
