MODEL 14
REMARK VINA RESULT: -8.391598089      2.931      5.268
REMARK  7 active torsions:
REMARK  status: ('A' for Active; 'I' for Inactive)
REMARK    1  A    between atoms: C1_2  and  C2_6 
REMARK    2  A    between atoms: C7_11  and  C8_12 
REMARK       I    between atoms: C8_12  and  N3_14 
REMARK    3  A    between atoms: N3_14  and  C9_16 
REMARK    4  A    between atoms: C12_19  and  C13_20 
REMARK    5  A    between atoms: C13_20  and  N4_21 
REMARK    6  A    between atoms: C17_28  and  N5_29 
REMARK    7  A    between atoms: N5_29  and  C18_31 
ROOT
HETATM    1  C2  UNL     1      25.247  18.019  30.868  1.00  0.00     0.005 A 
HETATM    2  C3  UNL     1      26.368  17.309  31.232  1.00  0.00     0.015 A 
HETATM    3  C4  UNL     1      26.300  16.048  31.774  1.00  0.00     0.013 A 
HETATM    4  C5  UNL     1      25.084  15.424  31.983  1.00  0.00    -0.023 A 
HETATM    5  C6  UNL     1      25.072  14.144  32.539  1.00  0.00     0.029 A 
HETATM    6  C7  UNL     1      23.875  13.513  32.753  1.00  0.00     0.035 A 
HETATM    7  C16 UNL     1      22.733  14.183  32.405  1.00  0.00     0.048 A 
HETATM    8  C17 UNL     1      22.716  15.454  31.852  1.00  0.00     0.061 A 
HETATM    9  C22 UNL     1      23.939  16.102  31.631  1.00  0.00     0.002 A 
HETATM   10  C23 UNL     1      24.019  17.366  31.088  1.00  0.00     0.029 A 
ENDROOT
BRANCH   6  11
HETATM   11  C8  UNL     1      23.882  12.174  33.328  1.00  0.00     0.256 C 
HETATM   12  O1  UNL     1      22.876  11.795  33.966  1.00  0.00    -0.267 OA
HETATM   13  N3  UNL     1      24.966  11.313  33.186  1.00  0.00    -0.323 N 
ATOM     14  H3  UNL     1      25.754  11.677  32.651  1.00  0.00     0.169 HD
BRANCH  13  15
HETATM   15  C9  UNL     1      25.118   9.995  33.690  1.00  0.00     0.035 A 
HETATM   16  C10 UNL     1      24.791   8.882  32.968  1.00  0.00     0.030 A 
HETATM   17  C11 UNL     1      24.960   7.585  33.488  1.00  0.00     0.011 A 
HETATM   18  C12 UNL     1      25.462   7.379  34.752  1.00  0.00    -0.033 A 
HETATM   19  C14 UNL     1      25.787   8.510  35.468  1.00  0.00     0.011 A 
HETATM   20  C15 UNL     1      25.624   9.774  34.964  1.00  0.00     0.030 A 
BRANCH  18  21
HETATM   21  C13 UNL     1      25.654   6.032  35.334  1.00  0.00     0.268 C 
BRANCH  21  22
HETATM   22  N4  UNL     1      26.087   5.142  34.260  1.00  0.00    -0.075 N 
ATOM     23  H43 UNL     1      25.307   4.735  33.744  1.00  0.00     0.274 HD
ATOM     24  H42 UNL     1      26.516   5.641  33.482  1.00  0.00     0.274 HD
ATOM     25  H41 UNL     1      26.702   4.439  34.670  1.00  0.00     0.274 HD
ENDBRANCH  21  22
ENDBRANCH  18  21
ENDBRANCH  13  15
ENDBRANCH   6  11
BRANCH   8  26
HETATM   26  N5  UNL     1      21.534  16.134  31.485  1.00  0.00    -0.191 N 
ATOM     27  H5  UNL     1      21.220  16.049  30.518  1.00  0.00     0.184 HD
BRANCH  26  28
HETATM   28  C18 UNL     1      20.759  16.918  32.352  1.00  0.00     0.682 A 
HETATM   29  N6  UNL     1      19.397  16.743  32.322  1.00  0.00    -0.202 N 
HETATM   30  C19 UNL     1      18.573  17.436  33.098  1.00  0.00     0.107 A 
ATOM     31  H6  UNL     1      19.004  16.055  31.679  1.00  0.00     0.183 HD
HETATM   32  C20 UNL     1      19.072  18.375  33.979  1.00  0.00     0.035 A 
HETATM   33  C21 UNL     1      20.448  18.569  34.028  1.00  0.00     0.107 A 
HETATM   34  N7  UNL     1      21.200  17.811  33.195  1.00  0.00    -0.202 N 
ATOM     35  H7  UNL     1      22.209  17.954  33.231  1.00  0.00     0.183 HD
ENDBRANCH  26  28
ENDBRANCH   8  26
BRANCH   1  36
HETATM   36  C1  UNL     1      25.322  19.350  30.295  1.00  0.00     0.120 C 
HETATM   37  N1  UNL     1      26.634  19.944  30.230  1.00  0.00    -0.082 NA
HETATM   38  N2  UNL     1      24.350  20.041  29.847  1.00  0.00    -0.387 N 
ATOM     39  H22 UNL     1      24.403  20.977  29.445  1.00  0.00     0.157 HD
ATOM     40  H21 UNL     1      23.422  19.620  29.893  1.00  0.00     0.157 HD
ENDBRANCH   1  36
TORSDOF 7
ENDMDL
