MODEL 17
REMARK VINA RESULT: -8.285471516      2.929      3.565
REMARK  7 active torsions:
REMARK  status: ('A' for Active; 'I' for Inactive)
REMARK    1  A    between atoms: C1_2  and  C2_6 
REMARK    2  A    between atoms: C7_11  and  C8_12 
REMARK       I    between atoms: C8_12  and  N3_14 
REMARK    3  A    between atoms: N3_14  and  C9_16 
REMARK    4  A    between atoms: C12_19  and  C13_20 
REMARK    5  A    between atoms: C13_20  and  N4_21 
REMARK    6  A    between atoms: C17_28  and  N5_29 
REMARK    7  A    between atoms: N5_29  and  C18_31 
ROOT
HETATM    1  C2  UNL     1      19.743  18.213  33.390  1.00  0.00     0.005 A 
HETATM    2  C3  UNL     1      19.465  17.118  32.604  1.00  0.00     0.015 A 
HETATM    3  C4  UNL     1      20.448  16.289  32.119  1.00  0.00     0.013 A 
HETATM    4  C5  UNL     1      21.781  16.519  32.402  1.00  0.00    -0.023 A 
HETATM    5  C6  UNL     1      22.739  15.646  31.881  1.00  0.00     0.029 A 
HETATM    6  C7  UNL     1      24.064  15.862  32.152  1.00  0.00     0.035 A 
HETATM    7  C16 UNL     1      24.387  16.941  32.931  1.00  0.00     0.048 A 
HETATM    8  C17 UNL     1      23.456  17.822  33.460  1.00  0.00     0.061 A 
HETATM    9  C22 UNL     1      22.099  17.604  33.186  1.00  0.00     0.002 A 
HETATM   10  C23 UNL     1      21.106  18.430  33.666  1.00  0.00     0.029 A 
ENDROOT
BRANCH   6  11
HETATM   11  C8  UNL     1      25.049  14.937  31.607  1.00  0.00     0.256 C 
HETATM   12  O1  UNL     1      25.424  13.980  32.318  1.00  0.00    -0.267 OA
HETATM   13  N3  UNL     1      25.577  15.087  30.328  1.00  0.00    -0.323 N 
ATOM     14  H3  UNL     1      25.228  15.883  29.795  1.00  0.00     0.169 HD
BRANCH  13  15
HETATM   15  C9  UNL     1      26.537  14.276  29.670  1.00  0.00     0.035 A 
HETATM   16  C10 UNL     1      26.344  12.945  29.426  1.00  0.00     0.030 A 
HETATM   17  C11 UNL     1      27.311  12.166  28.763  1.00  0.00     0.011 A 
HETATM   18  C12 UNL     1      28.497  12.709  28.329  1.00  0.00    -0.033 A 
HETATM   19  C14 UNL     1      28.678  14.051  28.581  1.00  0.00     0.011 A 
HETATM   20  C15 UNL     1      27.739  14.813  29.226  1.00  0.00     0.030 A 
BRANCH  18  21
HETATM   21  C13 UNL     1      29.537  11.923  27.628  1.00  0.00     0.268 C 
BRANCH  21  22
HETATM   22  N4  UNL     1      28.871  10.820  26.941  1.00  0.00    -0.075 N 
ATOM     23  H43 UNL     1      28.854   9.962  27.493  1.00  0.00     0.274 HD
ATOM     24  H42 UNL     1      27.863  10.951  26.866  1.00  0.00     0.274 HD
ATOM     25  H41 UNL     1      29.325  10.700  26.036  1.00  0.00     0.274 HD
ENDBRANCH  21  22
ENDBRANCH  18  21
ENDBRANCH  13  15
ENDBRANCH   6  11
BRANCH   8  26
HETATM   26  N5  UNL     1      23.796  18.927  34.273  1.00  0.00    -0.191 N 
ATOM     27  H5  UNL     1      23.839  19.844  33.829  1.00  0.00     0.184 HD
BRANCH  26  28
HETATM   28  C18 UNL     1      24.079  18.855  35.644  1.00  0.00     0.682 A 
HETATM   29  N6  UNL     1      24.343  20.031  36.302  1.00  0.00    -0.202 N 
HETATM   30  C19 UNL     1      24.625  20.074  37.598  1.00  0.00     0.107 A 
ATOM     31  H6  UNL     1      24.320  20.905  35.775  1.00  0.00     0.183 HD
HETATM   32  C20 UNL     1      24.664  18.910  38.340  1.00  0.00     0.035 A 
HETATM   33  C21 UNL     1      24.400  17.707  37.696  1.00  0.00     0.107 A 
HETATM   34  N7  UNL     1      24.122  17.773  36.373  1.00  0.00    -0.202 N 
ATOM     35  H7  UNL     1      23.929  16.890  35.900  1.00  0.00     0.183 HD
ENDBRANCH  26  28
ENDBRANCH   8  26
BRANCH   1  36
HETATM   36  C1  UNL     1      18.702  19.087  33.900  1.00  0.00     0.120 C 
HETATM   37  N1  UNL     1      17.394  18.934  33.313  1.00  0.00    -0.082 NA
HETATM   38  N2  UNL     1      18.830  19.970  34.810  1.00  0.00    -0.387 N 
ATOM     39  H22 UNL     1      18.099  20.584  35.168  1.00  0.00     0.157 HD
ATOM     40  H21 UNL     1      19.755  20.078  35.225  1.00  0.00     0.157 HD
ENDBRANCH   1  36
TORSDOF 7
ENDMDL
