MODEL 12
REMARK VINA RESULT: -8.548208804      2.797      9.919
REMARK  7 active torsions:
REMARK  status: ('A' for Active; 'I' for Inactive)
REMARK    1  A    between atoms: C1_2  and  C2_6 
REMARK    2  A    between atoms: C7_11  and  C8_12 
REMARK       I    between atoms: C8_12  and  N3_14 
REMARK    3  A    between atoms: N3_14  and  C9_16 
REMARK    4  A    between atoms: C12_19  and  C13_20 
REMARK    5  A    between atoms: C13_20  and  N4_21 
REMARK    6  A    between atoms: C17_28  and  N5_29 
REMARK    7  A    between atoms: N5_29  and  C18_31 
ROOT
HETATM    1  C2  UNL     1      26.744  10.482  30.679  1.00  0.00     0.005 A 
HETATM    2  C3  UNL     1      27.032  11.744  30.209  1.00  0.00     0.015 A 
HETATM    3  C4  UNL     1      26.353  12.861  30.631  1.00  0.00     0.013 A 
HETATM    4  C5  UNL     1      25.333  12.770  31.560  1.00  0.00    -0.023 A 
HETATM    5  C6  UNL     1      24.675  13.937  31.952  1.00  0.00     0.029 A 
HETATM    6  C7  UNL     1      23.661  13.863  32.870  1.00  0.00     0.035 A 
HETATM    7  C16 UNL     1      23.340  12.627  33.364  1.00  0.00     0.048 A 
HETATM    8  C17 UNL     1      23.977  11.453  32.992  1.00  0.00     0.061 A 
HETATM    9  C22 UNL     1      25.015  11.526  32.053  1.00  0.00     0.002 A 
HETATM   10  C23 UNL     1      25.702  10.411  31.623  1.00  0.00     0.029 A 
ENDROOT
BRANCH   6  11
HETATM   11  C8  UNL     1      22.990  15.092  33.272  1.00  0.00     0.256 C 
HETATM   12  O1  UNL     1      23.591  15.875  34.040  1.00  0.00    -0.267 OA
HETATM   13  N3  UNL     1      21.712  15.418  32.828  1.00  0.00    -0.323 N 
ATOM     14  H3  UNL     1      21.276  14.743  32.200  1.00  0.00     0.169 HD
BRANCH  13  15
HETATM   15  C9  UNL     1      20.937  16.566  33.136  1.00  0.00     0.035 A 
HETATM   16  C10 UNL     1      21.479  17.717  33.636  1.00  0.00     0.030 A 
HETATM   17  C11 UNL     1      20.688  18.844  33.924  1.00  0.00     0.011 A 
HETATM   18  C12 UNL     1      19.329  18.840  33.716  1.00  0.00    -0.033 A 
HETATM   19  C14 UNL     1      18.796  17.674  33.212  1.00  0.00     0.011 A 
HETATM   20  C15 UNL     1      19.563  16.574  32.930  1.00  0.00     0.030 A 
BRANCH  18  21
HETATM   21  C13 UNL     1      18.463  20.005  34.006  1.00  0.00     0.268 C 
BRANCH  21  22
HETATM   22  N4  UNL     1      17.077  19.547  33.974  1.00  0.00    -0.075 N 
ATOM     23  H43 UNL     1      16.481  20.041  34.639  1.00  0.00     0.274 HD
ATOM     24  H42 UNL     1      16.588  19.824  33.124  1.00  0.00     0.274 HD
ATOM     25  H41 UNL     1      17.082  18.538  34.119  1.00  0.00     0.274 HD
ENDBRANCH  21  22
ENDBRANCH  18  21
ENDBRANCH  13  15
ENDBRANCH   6  11
BRANCH   8  26
HETATM   26  N5  UNL     1      23.648  10.183  33.515  1.00  0.00    -0.191 N 
ATOM     27  H5  UNL     1      22.744   9.785  33.257  1.00  0.00     0.184 HD
BRANCH  26  28
HETATM   28  C18 UNL     1      24.471   9.428  34.361  1.00  0.00     0.682 A 
HETATM   29  N6  UNL     1      24.348   8.060  34.315  1.00  0.00    -0.202 N 
HETATM   30  C19 UNL     1      25.077   7.254  35.077  1.00  0.00     0.107 A 
ATOM     31  H6  UNL     1      23.672   7.649  33.672  1.00  0.00     0.183 HD
HETATM   32  C20 UNL     1      26.001   7.777  35.959  1.00  0.00     0.035 A 
HETATM   33  C21 UNL     1      26.144   9.159  36.023  1.00  0.00     0.107 A 
HETATM   34  N7  UNL     1      25.354   9.891  35.204  1.00  0.00    -0.202 N 
ATOM     35  H7  UNL     1      25.458  10.904  35.251  1.00  0.00     0.183 HD
ENDBRANCH  26  28
ENDBRANCH   8  26
BRANCH   1  36
HETATM   36  C1  UNL     1      27.462   9.303  30.231  1.00  0.00     0.120 C 
HETATM   37  N1  UNL     1      27.618   8.244  31.197  1.00  0.00    -0.082 NA
HETATM   38  N2  UNL     1      27.965   9.113  29.077  1.00  0.00    -0.387 N 
ATOM     39  H22 UNL     1      28.471   8.284  28.762  1.00  0.00     0.157 HD
ATOM     40  H21 UNL     1      27.856   9.862  28.393  1.00  0.00     0.157 HD
ENDBRANCH   1  36
TORSDOF 7
ENDMDL
