MODEL 11
REMARK VINA RESULT: -8.762379889      2.235      2.631
REMARK  7 active torsions:
REMARK  status: ('A' for Active; 'I' for Inactive)
REMARK    1  A    between atoms: C1_2  and  C2_6 
REMARK    2  A    between atoms: C7_11  and  C8_12 
REMARK       I    between atoms: C8_12  and  N3_14 
REMARK    3  A    between atoms: N3_14  and  C9_16 
REMARK    4  A    between atoms: C12_19  and  C13_20 
REMARK    5  A    between atoms: C13_20  and  N4_21 
REMARK    6  A    between atoms: C17_28  and  N5_29 
REMARK    7  A    between atoms: N5_29  and  C18_31 
ROOT
HETATM    1  C2  UNL     1      18.894  18.776  33.346  1.00  0.00     0.005 A 
HETATM    2  C3  UNL     1      18.488  17.680  32.618  1.00  0.00     0.015 A 
HETATM    3  C4  UNL     1      19.354  16.683  32.239  1.00  0.00     0.013 A 
HETATM    4  C5  UNL     1      20.694  16.733  32.576  1.00  0.00    -0.023 A 
HETATM    5  C6  UNL     1      21.531  15.695  32.164  1.00  0.00     0.029 A 
HETATM    6  C7  UNL     1      22.861  15.732  32.489  1.00  0.00     0.035 A 
HETATM    7  C16 UNL     1      23.309  16.804  33.214  1.00  0.00     0.048 A 
HETATM    8  C17 UNL     1      22.500  17.847  33.635  1.00  0.00     0.061 A 
HETATM    9  C22 UNL     1      21.139  17.813  33.305  1.00  0.00     0.002 A 
HETATM   10  C23 UNL     1      20.261  18.808  33.679  1.00  0.00     0.029 A 
ENDROOT
BRANCH   6  11
HETATM   11  C8  UNL     1      23.717  14.635  32.056  1.00  0.00     0.256 C 
HETATM   12  O1  UNL     1      23.285  13.466  32.157  1.00  0.00    -0.267 OA
HETATM   13  N3  UNL     1      24.990  14.850  31.536  1.00  0.00    -0.323 N 
ATOM     14  H3  UNL     1      25.284  15.825  31.474  1.00  0.00     0.169 HD
BRANCH  13  15
HETATM   15  C9  UNL     1      25.931  13.890  31.082  1.00  0.00     0.035 A 
HETATM   16  C10 UNL     1      26.715  13.159  31.930  1.00  0.00     0.030 A 
HETATM   17  C11 UNL     1      27.635  12.207  31.452  1.00  0.00     0.011 A 
HETATM   18  C12 UNL     1      27.788  11.968  30.106  1.00  0.00    -0.033 A 
HETATM   19  C14 UNL     1      26.992  12.712  29.264  1.00  0.00     0.011 A 
HETATM   20  C15 UNL     1      26.094  13.639  29.725  1.00  0.00     0.030 A 
BRANCH  18  21
HETATM   21  C13 UNL     1      28.744  10.975  29.566  1.00  0.00     0.268 C 
BRANCH  21  22
HETATM   22  N4  UNL     1      28.087  10.284  28.460  1.00  0.00    -0.075 N 
ATOM     23  H43 UNL     1      28.025  10.854  27.617  1.00  0.00     0.274 HD
ATOM     24  H42 UNL     1      28.653   9.530  28.072  1.00  0.00     0.274 HD
ATOM     25  H41 UNL     1      27.176   9.966  28.792  1.00  0.00     0.274 HD
ENDBRANCH  21  22
ENDBRANCH  18  21
ENDBRANCH  13  15
ENDBRANCH   6  11
BRANCH   8  26
HETATM   26  N5  UNL     1      22.968  18.945  34.393  1.00  0.00    -0.191 N 
ATOM     27  H5  UNL     1      22.272  19.572  34.795  1.00  0.00     0.184 HD
BRANCH  26  28
HETATM   28  C18 UNL     1      24.318  19.235  34.631  1.00  0.00     0.682 A 
HETATM   29  N6  UNL     1      25.012  19.892  33.644  1.00  0.00    -0.202 N 
HETATM   30  C19 UNL     1      26.294  20.211  33.766  1.00  0.00     0.107 A 
ATOM     31  H6  UNL     1      24.524  20.144  32.785  1.00  0.00     0.183 HD
HETATM   32  C20 UNL     1      26.986  19.884  34.916  1.00  0.00     0.035 A 
HETATM   33  C21 UNL     1      26.304  19.219  35.930  1.00  0.00     0.107 A 
HETATM   34  N7  UNL     1      24.999  18.941  35.705  1.00  0.00    -0.202 N 
ATOM     35  H7  UNL     1      24.499  18.453  36.448  1.00  0.00     0.183 HD
ENDBRANCH  26  28
ENDBRANCH   8  26
BRANCH   1  36
HETATM   36  C1  UNL     1      17.977  19.827  33.745  1.00  0.00     0.120 C 
HETATM   37  N1  UNL     1      18.507  21.169  33.751  1.00  0.00    -0.082 NA
HETATM   38  N2  UNL     1      16.758  19.684  34.085  1.00  0.00    -0.387 N 
ATOM     39  H22 UNL     1      16.114  20.424  34.365  1.00  0.00     0.157 HD
ATOM     40  H21 UNL     1      16.384  18.736  34.080  1.00  0.00     0.157 HD
ENDBRANCH   1  36
TORSDOF 7
ENDMDL
