MODEL 6
REMARK VINA RESULT: -9.018183733      2.257      2.649
REMARK  7 active torsions:
REMARK  status: ('A' for Active; 'I' for Inactive)
REMARK    1  A    between atoms: C1_2  and  C2_6 
REMARK    2  A    between atoms: C7_11  and  C8_12 
REMARK       I    between atoms: C8_12  and  N3_14 
REMARK    3  A    between atoms: N3_14  and  C9_16 
REMARK    4  A    between atoms: C12_19  and  C13_20 
REMARK    5  A    between atoms: C13_20  and  N4_21 
REMARK    6  A    between atoms: C17_28  and  N5_29 
REMARK    7  A    between atoms: N5_29  and  C18_31 
ROOT
HETATM    1  C2  UNL     1      18.954  18.745  33.367  1.00  0.00     0.005 A 
HETATM    2  C3  UNL     1      18.534  17.644  32.656  1.00  0.00     0.015 A 
HETATM    3  C4  UNL     1      19.394  16.648  32.262  1.00  0.00     0.013 A 
HETATM    4  C5  UNL     1      20.742  16.705  32.566  1.00  0.00    -0.023 A 
HETATM    5  C6  UNL     1      21.572  15.667  32.139  1.00  0.00     0.029 A 
HETATM    6  C7  UNL     1      22.909  15.711  32.432  1.00  0.00     0.035 A 
HETATM    7  C16 UNL     1      23.371  16.789  33.139  1.00  0.00     0.048 A 
HETATM    8  C17 UNL     1      22.569  17.832  33.574  1.00  0.00     0.061 A 
HETATM    9  C22 UNL     1      21.200  17.791  33.277  1.00  0.00     0.002 A 
HETATM   10  C23 UNL     1      20.328  18.785  33.666  1.00  0.00     0.029 A 
ENDROOT
BRANCH   6  11
HETATM   11  C8  UNL     1      23.759  14.614  31.985  1.00  0.00     0.256 C 
HETATM   12  O1  UNL     1      23.324  13.446  32.081  1.00  0.00    -0.267 OA
HETATM   13  N3  UNL     1      25.028  14.829  31.457  1.00  0.00    -0.323 N 
ATOM     14  H3  UNL     1      25.325  15.803  31.399  1.00  0.00     0.169 HD
BRANCH  13  15
HETATM   15  C9  UNL     1      25.963  13.870  30.988  1.00  0.00     0.035 A 
HETATM   16  C10 UNL     1      26.695  13.075  31.826  1.00  0.00     0.030 A 
HETATM   17  C11 UNL     1      27.609  12.125  31.334  1.00  0.00     0.011 A 
HETATM   18  C12 UNL     1      27.810  11.953  29.984  1.00  0.00    -0.033 A 
HETATM   19  C14 UNL     1      27.066  12.760  29.153  1.00  0.00     0.011 A 
HETATM   20  C15 UNL     1      26.174  13.686  29.628  1.00  0.00     0.030 A 
BRANCH  18  21
HETATM   21  C13 UNL     1      28.762  10.964  29.429  1.00  0.00     0.268 C 
BRANCH  21  22
HETATM   22  N4  UNL     1      28.120  10.325  28.284  1.00  0.00    -0.075 N 
ATOM     23  H43 UNL     1      27.580   9.499  28.542  1.00  0.00     0.274 HD
ATOM     24  H42 UNL     1      27.349  10.875  27.904  1.00  0.00     0.274 HD
ATOM     25  H41 UNL     1      28.844  10.127  27.594  1.00  0.00     0.274 HD
ENDBRANCH  21  22
ENDBRANCH  18  21
ENDBRANCH  13  15
ENDBRANCH   6  11
BRANCH   8  26
HETATM   26  N5  UNL     1      23.051  18.936  34.313  1.00  0.00    -0.191 N 
ATOM     27  H5  UNL     1      22.923  19.865  33.912  1.00  0.00     0.184 HD
BRANCH  26  28
HETATM   28  C18 UNL     1      23.691  18.848  35.557  1.00  0.00     0.682 A 
HETATM   29  N6  UNL     1      24.330  19.971  36.024  1.00  0.00    -0.202 N 
HETATM   30  C19 UNL     1      24.969  19.994  37.187  1.00  0.00     0.107 A 
ATOM     31  H6  UNL     1      24.312  20.818  35.457  1.00  0.00     0.183 HD
HETATM   32  C20 UNL     1      25.013  18.864  37.979  1.00  0.00     0.035 A 
HETATM   33  C21 UNL     1      24.373  17.715  37.527  1.00  0.00     0.107 A 
HETATM   34  N7  UNL     1      23.750  17.797  36.329  1.00  0.00    -0.202 N 
ATOM     35  H7  UNL     1      23.280  16.955  35.997  1.00  0.00     0.183 HD
ENDBRANCH  26  28
ENDBRANCH   8  26
BRANCH   1  36
HETATM   36  C1  UNL     1      18.042  19.796  33.782  1.00  0.00     0.120 C 
HETATM   37  N1  UNL     1      18.610  21.114  33.926  1.00  0.00    -0.082 NA
HETATM   38  N2  UNL     1      16.799  19.671  34.028  1.00  0.00    -0.387 N 
ATOM     39  H22 UNL     1      16.159  20.409  34.319  1.00  0.00     0.157 HD
ATOM     40  H21 UNL     1      16.398  18.739  33.926  1.00  0.00     0.157 HD
ENDBRANCH   1  36
TORSDOF 7
ENDMDL
