MODEL 13
REMARK VINA RESULT: -8.315623760      5.564     11.325
REMARK  7 active torsions:
REMARK  status: ('A' for Active; 'I' for Inactive)
REMARK    1  A    between atoms: O1_2  and  C2_3 
REMARK    2  A    between atoms: C5_6  and  C6_7 
REMARK    3  A    between atoms: C7_8  and  S1_9 
REMARK    4  A    between atoms: C11_15  and  C12_16 
REMARK    5  A    between atoms: C12_16  and  C13_18 
REMARK    6  A    between atoms: N2_22  and  C15_23 
REMARK    7  A    between atoms: C19_27  and  O5_28 
ROOT
HETATM    1  C6  UNL     1      47.552 -10.026  -1.955  1.00  0.00     0.003 A 
HETATM    2  C7  UNL     1      46.452 -10.431  -2.665  1.00  0.00     0.070 A 
HETATM    3  C9  UNL     1      45.197  -9.887  -2.346  1.00  0.00     0.025 A 
HETATM    4  C10 UNL     1      45.063  -8.960  -1.334  1.00  0.00     0.017 A 
HETATM    5  C11 UNL     1      46.169  -8.550  -0.618  1.00  0.00     0.022 A 
HETATM    6  C20 UNL     1      47.372  -9.095  -0.949  1.00  0.00    -0.035 A 
HETATM    7  C21 UNL     1      48.595  -8.700  -0.204  1.00  0.00     0.050 C 
ENDROOT
BRANCH   5   8
HETATM    8  C12 UNL     1      45.979  -7.561   0.431  1.00  0.00     0.198 C 
HETATM    9  O4  UNL     1      45.740  -8.071   1.587  1.00  0.00    -0.286 OA
BRANCH   8  10
HETATM   10  C13 UNL     1      46.038  -6.142   0.258  1.00  0.00     0.084 A 
HETATM   11  C14 UNL     1      46.713  -5.461  -0.720  1.00  0.00     0.127 A 
HETATM   12  N1  UNL     1      46.487  -4.150  -0.512  1.00  0.00    -0.306 N 
HETATM   13  N2  UNL     1      45.712  -3.951   0.539  1.00  0.00    -0.262 N 
ATOM     14  H1  UNL     1      46.868  -3.404  -1.093  1.00  0.00     0.186 HD
HETATM   15  C19 UNL     1      45.428  -5.178   1.023  1.00  0.00     0.173 A 
BRANCH  13  16
HETATM   16  C15 UNL     1      45.283  -2.654   1.030  1.00  0.00     0.045 C 
HETATM   17  C16 UNL     1      43.795  -2.512   0.845  1.00  0.00     0.039 C 
HETATM   18  C17 UNL     1      46.039  -1.580   0.274  1.00  0.00     0.039 C 
HETATM   19  C18 UNL     1      45.631  -2.489   2.499  1.00  0.00     0.039 C 
ENDBRANCH  13  16
BRANCH  15  20
HETATM   20  O5  UNL     1      44.628  -5.412   2.142  1.00  0.00    -0.344 OA
ATOM     21  H5  UNL     1      44.827  -6.010   2.852  1.00  0.00     0.219 HD
ENDBRANCH  15  20
ENDBRANCH   8  10
ENDBRANCH   5   8
BRANCH   1  22
HETATM   22  C5  UNL     1      48.869 -10.566  -2.253  1.00  0.00    -0.024 A 
HETATM   23  C4  UNL     1      49.695  -9.927  -3.157  1.00  0.00     0.015 A 
HETATM   24  C3  UNL     1      50.955 -10.398  -3.477  1.00  0.00     0.037 A 
HETATM   25  C2  UNL     1      51.408 -11.558  -2.868  1.00  0.00     0.068 A 
HETATM   26  C23 UNL     1      50.563 -12.183  -1.964  1.00  0.00     0.037 A 
HETATM   27  C22 UNL     1      49.310 -11.712  -1.647  1.00  0.00     0.015 A 
BRANCH  25  28
HETATM   28  O1  UNL     1      52.662 -12.082  -3.146  1.00  0.00    -0.356 OA
HETATM   29  C1  UNL     1      53.304 -13.012  -2.301  1.00  0.00     0.210 C 
ENDBRANCH  25  28
ENDBRANCH   1  22
BRANCH   2  30
HETATM   30  S1  UNL     1      46.549 -11.595  -3.960  1.00  0.00     0.172 S 
HETATM   31  C8  UNL     1      46.986 -13.211  -3.428  1.00  0.00     0.167 C 
HETATM   32  O2  UNL     1      47.490 -11.097  -5.049  1.00  0.00    -0.223 OA
HETATM   33  O3  UNL     1      45.202 -11.709  -4.647  1.00  0.00    -0.223 OA
ENDBRANCH   2  30
TORSDOF 7
ENDMDL
