MODEL 17
REMARK VINA RESULT: -8.033959288      4.855      9.878
REMARK  7 active torsions:
REMARK  status: ('A' for Active; 'I' for Inactive)
REMARK    1  A    between atoms: O1_2  and  C2_3 
REMARK    2  A    between atoms: C5_6  and  C6_7 
REMARK    3  A    between atoms: C7_8  and  S1_9 
REMARK    4  A    between atoms: C11_15  and  C12_16 
REMARK    5  A    between atoms: C12_16  and  C13_18 
REMARK    6  A    between atoms: N2_22  and  C15_23 
REMARK    7  A    between atoms: C19_27  and  O5_28 
ROOT
HETATM    1  C6  UNL     1      47.040  -8.672  -0.576  1.00  0.00     0.003 A 
HETATM    2  C7  UNL     1      46.195  -9.157  -1.540  1.00  0.00     0.070 A 
HETATM    3  C9  UNL     1      44.833  -8.816  -1.486  1.00  0.00     0.025 A 
HETATM    4  C10 UNL     1      44.344  -8.007  -0.482  1.00  0.00     0.017 A 
HETATM    5  C11 UNL     1      45.193  -7.518   0.489  1.00  0.00     0.022 A 
HETATM    6  C20 UNL     1      46.507  -7.865   0.413  1.00  0.00    -0.035 A 
HETATM    7  C21 UNL     1      47.465  -7.377   1.438  1.00  0.00     0.050 C 
ENDROOT
BRANCH   5   8
HETATM    8  C12 UNL     1      44.633  -6.658   1.520  1.00  0.00     0.198 C 
HETATM    9  O4  UNL     1      43.794  -7.254   2.292  1.00  0.00    -0.286 OA
BRANCH   8  10
HETATM   10  C13 UNL     1      44.943  -5.274   1.709  1.00  0.00     0.084 A 
HETATM   11  C14 UNL     1      45.334  -4.381   0.748  1.00  0.00     0.127 A 
HETATM   12  N1  UNL     1      45.508  -3.196   1.361  1.00  0.00    -0.306 N 
HETATM   13  N2  UNL     1      45.253  -3.276   2.655  1.00  0.00    -0.262 N 
ATOM     14  H1  UNL     1      45.800  -2.342   0.886  1.00  0.00     0.186 HD
HETATM   15  C19 UNL     1      44.902  -4.559   2.881  1.00  0.00     0.173 A 
BRANCH  13  16
HETATM   16  C15 UNL     1      45.347  -2.175   3.598  1.00  0.00     0.045 C 
HETATM   17  C16 UNL     1      43.981  -1.577   3.812  1.00  0.00     0.039 C 
HETATM   18  C17 UNL     1      46.318  -1.151   3.045  1.00  0.00     0.039 C 
HETATM   19  C18 UNL     1      45.911  -2.647   4.926  1.00  0.00     0.039 C 
ENDBRANCH  13  16
BRANCH  15  20
HETATM   20  O5  UNL     1      44.551  -5.065   4.133  1.00  0.00    -0.344 OA
ATOM     21  H5  UNL     1      45.152  -5.243   4.848  1.00  0.00     0.219 HD
ENDBRANCH  15  20
ENDBRANCH   8  10
ENDBRANCH   5   8
BRANCH   1  22
HETATM   22  C5  UNL     1      48.456  -9.003  -0.594  1.00  0.00    -0.024 A 
HETATM   23  C4  UNL     1      48.900 -10.190  -0.043  1.00  0.00     0.015 A 
HETATM   24  C3  UNL     1      50.234 -10.553  -0.032  1.00  0.00     0.037 A 
HETATM   25  C2  UNL     1      51.164  -9.693  -0.596  1.00  0.00     0.068 A 
HETATM   26  C23 UNL     1      50.697  -8.508  -1.142  1.00  0.00     0.037 A 
HETATM   27  C22 UNL     1      49.368  -8.150  -1.152  1.00  0.00     0.015 A 
BRANCH  25  28
HETATM   28  O1  UNL     1      52.516 -10.000  -0.617  1.00  0.00    -0.356 OA
HETATM   29  C1  UNL     1      53.345  -9.869   0.518  1.00  0.00     0.210 C 
ENDBRANCH  25  28
ENDBRANCH   1  22
BRANCH   2  30
HETATM   30  S1  UNL     1      46.746 -10.180  -2.841  1.00  0.00     0.172 S 
HETATM   31  C8  UNL     1      47.119 -11.822  -2.340  1.00  0.00     0.167 C 
HETATM   32  O2  UNL     1      47.926  -9.537  -3.556  1.00  0.00    -0.223 OA
HETATM   33  O3  UNL     1      45.668 -10.280  -3.904  1.00  0.00    -0.223 OA
ENDBRANCH   2  30
TORSDOF 7
ENDMDL
