MODEL 1
REMARK VINA RESULT: -10.151699131      0.000      0.000
REMARK  7 active torsions:
REMARK  status: ('A' for Active; 'I' for Inactive)
REMARK    1  A    between atoms: O1_2  and  C2_3 
REMARK    2  A    between atoms: C5_6  and  C6_7 
REMARK    3  A    between atoms: C7_8  and  S1_9 
REMARK    4  A    between atoms: C11_15  and  C12_16 
REMARK    5  A    between atoms: C12_16  and  C13_18 
REMARK    6  A    between atoms: N2_22  and  C15_23 
REMARK    7  A    between atoms: C19_27  and  O5_28 
ROOT
HETATM    1  C6  UNL     1      46.030  -0.747   3.344  1.00  0.00     0.003 A 
HETATM    2  C7  UNL     1      47.159  -0.319   2.696  1.00  0.00     0.070 A 
HETATM    3  C9  UNL     1      47.423  -0.797   1.401  1.00  0.00     0.025 A 
HETATM    4  C10 UNL     1      46.566  -1.682   0.783  1.00  0.00     0.017 A 
HETATM    5  C11 UNL     1      45.428  -2.114   1.434  1.00  0.00     0.022 A 
HETATM    6  C20 UNL     1      45.198  -1.636   2.688  1.00  0.00    -0.035 A 
HETATM    7  C21 UNL     1      43.996  -2.076   3.441  1.00  0.00     0.050 C 
ENDROOT
BRANCH   5   8
HETATM    8  C12 UNL     1      44.548  -3.039   0.737  1.00  0.00     0.198 C 
HETATM    9  O4  UNL     1      43.438  -2.512   0.359  1.00  0.00    -0.286 OA
BRANCH   8  10
HETATM   10  C13 UNL     1      44.832  -4.416   0.469  1.00  0.00     0.084 A 
HETATM   11  C14 UNL     1      46.060  -4.969   0.220  1.00  0.00     0.127 A 
HETATM   12  N1  UNL     1      45.865  -6.287   0.034  1.00  0.00    -0.306 N 
HETATM   13  N2  UNL     1      44.590  -6.611   0.146  1.00  0.00    -0.262 N 
ATOM     14  H1  UNL     1      46.610  -6.953  -0.169  1.00  0.00     0.186 HD
HETATM   15  C19 UNL     1      43.941  -5.460   0.415  1.00  0.00     0.173 A 
BRANCH  13  16
HETATM   16  C15 UNL     1      44.049  -7.951  -0.001  1.00  0.00     0.045 C 
HETATM   17  C16 UNL     1      43.784  -8.539   1.361  1.00  0.00     0.039 C 
HETATM   18  C17 UNL     1      45.044  -8.788  -0.779  1.00  0.00     0.039 C 
HETATM   19  C18 UNL     1      42.762  -7.931  -0.806  1.00  0.00     0.039 C 
ENDBRANCH  13  16
BRANCH  15  20
HETATM   20  O5  UNL     1      42.562  -5.365   0.608  1.00  0.00    -0.344 OA
ATOM     21  H5  UNL     1      42.098  -5.581   1.409  1.00  0.00     0.219 HD
ENDBRANCH  15  20
ENDBRANCH   8  10
ENDBRANCH   5   8
BRANCH   1  22
HETATM   22  C5  UNL     1      45.721  -0.280   4.687  1.00  0.00    -0.024 A 
HETATM   23  C4  UNL     1      44.981   0.872   4.869  1.00  0.00     0.015 A 
HETATM   24  C3  UNL     1      44.661   1.362   6.121  1.00  0.00     0.037 A 
HETATM   25  C2  UNL     1      45.100   0.670   7.240  1.00  0.00     0.068 A 
HETATM   26  C23 UNL     1      45.841  -0.483   7.034  1.00  0.00     0.037 A 
HETATM   27  C22 UNL     1      46.158  -0.967   5.786  1.00  0.00     0.015 A 
BRANCH  25  28
HETATM   28  O1  UNL     1      44.812   1.109   8.523  1.00  0.00    -0.356 OA
HETATM   29  C1  UNL     1      43.827   2.084   8.792  1.00  0.00     0.210 C 
ENDBRANCH  25  28
ENDBRANCH   1  22
BRANCH   2  30
HETATM   30  S1  UNL     1      48.284   0.803   3.414  1.00  0.00     0.172 S 
HETATM   31  C8  UNL     1      49.136   0.158   4.807  1.00  0.00     0.167 C 
HETATM   32  O2  UNL     1      47.582   2.112   3.752  1.00  0.00    -0.223 OA
HETATM   33  O3  UNL     1      49.339   1.192   2.396  1.00  0.00    -0.223 OA
ENDBRANCH   2  30
TORSDOF 7
ENDMDL
