MODEL 15
REMARK VINA RESULT: -8.081829477      4.474      9.895
REMARK  7 active torsions:
REMARK  status: ('A' for Active; 'I' for Inactive)
REMARK    1  A    between atoms: O1_2  and  C2_3 
REMARK    2  A    between atoms: C5_6  and  C6_7 
REMARK    3  A    between atoms: C7_8  and  S1_9 
REMARK    4  A    between atoms: C11_15  and  C12_16 
REMARK    5  A    between atoms: C12_16  and  C13_18 
REMARK    6  A    between atoms: N2_22  and  C15_23 
REMARK    7  A    between atoms: C19_27  and  O5_28 
ROOT
HETATM    1  C6  UNL     1      46.134  -8.359  -0.954  1.00  0.00     0.003 A 
HETATM    2  C7  UNL     1      45.235  -9.391  -1.018  1.00  0.00     0.070 A 
HETATM    3  C9  UNL     1      43.910  -9.167  -0.608  1.00  0.00     0.025 A 
HETATM    4  C10 UNL     1      43.510  -7.930  -0.147  1.00  0.00     0.017 A 
HETATM    5  C11 UNL     1      44.413  -6.890  -0.083  1.00  0.00     0.022 A 
HETATM    6  C20 UNL     1      45.690  -7.136  -0.485  1.00  0.00    -0.035 A 
HETATM    7  C21 UNL     1      46.708  -6.056  -0.427  1.00  0.00     0.050 C 
ENDROOT
BRANCH   5   8
HETATM    8  C12 UNL     1      43.941  -5.600   0.399  1.00  0.00     0.198 C 
HETATM    9  O4  UNL     1      43.040  -5.067  -0.347  1.00  0.00    -0.286 OA
BRANCH   8  10
HETATM   10  C13 UNL     1      44.399  -4.935   1.580  1.00  0.00     0.084 A 
HETATM   11  C14 UNL     1      44.702  -5.513   2.784  1.00  0.00     0.127 A 
HETATM   12  N1  UNL     1      45.100  -4.524   3.605  1.00  0.00    -0.306 N 
HETATM   13  N2  UNL     1      45.069  -3.350   3.002  1.00  0.00    -0.262 N 
ATOM     14  H1  UNL     1      45.390  -4.664   4.573  1.00  0.00     0.186 HD
HETATM   15  C19 UNL     1      44.636  -3.593   1.748  1.00  0.00     0.173 A 
BRANCH  13  16
HETATM   16  C15 UNL     1      45.436  -2.084   3.612  1.00  0.00     0.045 C 
HETATM   17  C16 UNL     1      44.198  -1.254   3.834  1.00  0.00     0.039 C 
HETATM   18  C17 UNL     1      46.417  -1.377   2.698  1.00  0.00     0.039 C 
HETATM   19  C18 UNL     1      46.145  -2.305   4.936  1.00  0.00     0.039 C 
ENDBRANCH  13  16
BRANCH  15  20
HETATM   20  O5  UNL     1      44.461  -2.607   0.775  1.00  0.00    -0.344 OA
ATOM     21  H5  UNL     1      45.099  -1.945   0.535  1.00  0.00     0.219 HD
ENDBRANCH  15  20
ENDBRANCH   8  10
ENDBRANCH   5   8
BRANCH   1  22
HETATM   22  C5  UNL     1      47.515  -8.550  -1.366  1.00  0.00    -0.024 A 
HETATM   23  C4  UNL     1      47.841  -8.598  -2.708  1.00  0.00     0.015 A 
HETATM   24  C3  UNL     1      49.136  -8.779  -3.155  1.00  0.00     0.037 A 
HETATM   25  C2  UNL     1      50.151  -8.918  -2.219  1.00  0.00     0.068 A 
HETATM   26  C23 UNL     1      49.802  -8.867  -0.879  1.00  0.00     0.037 A 
HETATM   27  C22 UNL     1      48.511  -8.687  -0.438  1.00  0.00     0.015 A 
BRANCH  25  28
HETATM   28  O1  UNL     1      51.470  -9.102  -2.603  1.00  0.00    -0.356 OA
HETATM   29  C1  UNL     1      52.547  -8.443  -1.970  1.00  0.00     0.210 C 
ENDBRANCH  25  28
ENDBRANCH   1  22
BRANCH   2  30
HETATM   30  S1  UNL     1      45.669 -10.979  -1.595  1.00  0.00     0.172 S 
HETATM   31  C8  UNL     1      45.732 -11.103  -3.346  1.00  0.00     0.167 C 
HETATM   32  O2  UNL     1      44.743 -12.030  -0.998  1.00  0.00    -0.223 OA
HETATM   33  O3  UNL     1      47.046 -11.351  -1.079  1.00  0.00    -0.223 OA
ENDBRANCH   2  30
TORSDOF 7
ENDMDL
