MODEL 12
REMARK VINA RESULT: -8.408582568      1.645      1.902
REMARK  7 active torsions:
REMARK  status: ('A' for Active; 'I' for Inactive)
REMARK    1  A    between atoms: O1_2  and  C2_3 
REMARK    2  A    between atoms: C5_6  and  C6_7 
REMARK    3  A    between atoms: C7_8  and  S1_9 
REMARK    4  A    between atoms: C11_15  and  C12_16 
REMARK    5  A    between atoms: C12_16  and  C13_18 
REMARK    6  A    between atoms: N2_22  and  C15_23 
REMARK    7  A    between atoms: C19_27  and  O5_28 
ROOT
HETATM    1  C6  UNL     1      47.041  -0.210   3.077  1.00  0.00     0.003 A 
HETATM    2  C7  UNL     1      47.682   0.529   2.117  1.00  0.00     0.070 A 
HETATM    3  C9  UNL     1      47.496   0.198   0.765  1.00  0.00     0.025 A 
HETATM    4  C10 UNL     1      46.682  -0.853   0.397  1.00  0.00     0.017 A 
HETATM    5  C11 UNL     1      46.035  -1.598   1.362  1.00  0.00     0.022 A 
HETATM    6  C20 UNL     1      46.234  -1.255   2.664  1.00  0.00    -0.035 A 
HETATM    7  C21 UNL     1      45.572  -2.030   3.745  1.00  0.00     0.050 C 
ENDROOT
BRANCH   5   8
HETATM    8  C12 UNL     1      45.177  -2.688   0.925  1.00  0.00     0.198 C 
HETATM    9  O4  UNL     1      43.929  -2.382   0.884  1.00  0.00    -0.286 OA
BRANCH   8  10
HETATM   10  C13 UNL     1      45.618  -4.000   0.563  1.00  0.00     0.084 A 
HETATM   11  C14 UNL     1      46.544  -4.322  -0.394  1.00  0.00     0.127 A 
HETATM   12  N1  UNL     1      46.660  -5.663  -0.392  1.00  0.00    -0.306 N 
HETATM   13  N2  UNL     1      45.867  -6.218   0.505  1.00  0.00    -0.262 N 
ATOM     14  H1  UNL     1      47.284  -6.184  -1.007  1.00  0.00     0.186 HD
HETATM   15  C19 UNL     1      45.217  -5.198   1.103  1.00  0.00     0.173 A 
BRANCH  13  16
HETATM   16  C15 UNL     1      45.755  -7.644   0.757  1.00  0.00     0.045 C 
HETATM   17  C16 UNL     1      46.406  -7.975   2.075  1.00  0.00     0.039 C 
HETATM   18  C17 UNL     1      46.414  -8.387  -0.387  1.00  0.00     0.039 C 
HETATM   19  C18 UNL     1      44.300  -8.077   0.786  1.00  0.00     0.039 C 
ENDBRANCH  13  16
BRANCH  15  20
HETATM   20  O5  UNL     1      44.276  -5.359   2.121  1.00  0.00    -0.344 OA
ATOM     21  H5  UNL     1      44.192  -6.119   2.684  1.00  0.00     0.219 HD
ENDBRANCH  15  20
ENDBRANCH   8  10
ENDBRANCH   5   8
BRANCH   1  22
HETATM   22  C5  UNL     1      47.209   0.098   4.488  1.00  0.00    -0.024 A 
HETATM   23  C4  UNL     1      46.338   0.966   5.119  1.00  0.00     0.015 A 
HETATM   24  C3  UNL     1      46.453   1.294   6.457  1.00  0.00     0.037 A 
HETATM   25  C2  UNL     1      47.483   0.731   7.196  1.00  0.00     0.068 A 
HETATM   26  C23 UNL     1      48.344  -0.137   6.543  1.00  0.00     0.037 A 
HETATM   27  C22 UNL     1      48.227  -0.462   5.211  1.00  0.00     0.015 A 
BRANCH  25  28
HETATM   28  O1  UNL     1      47.651   1.019   8.542  1.00  0.00    -0.356 OA
HETATM   29  C1  UNL     1      48.921   1.215   9.126  1.00  0.00     0.210 C 
ENDBRANCH  25  28
ENDBRANCH   1  22
BRANCH   2  30
HETATM   30  S1  UNL     1      48.722   1.874   2.509  1.00  0.00     0.172 S 
HETATM   31  C8  UNL     1      50.179   1.413   3.375  1.00  0.00     0.167 C 
HETATM   32  O2  UNL     1      47.942   2.941   3.266  1.00  0.00    -0.223 OA
HETATM   33  O3  UNL     1      49.168   2.563   1.235  1.00  0.00    -0.223 OA
ENDBRANCH   2  30
TORSDOF 7
ENDMDL
