MODEL 2
REMARK VINA RESULT: -10.014917674      0.220      1.174
REMARK  7 active torsions:
REMARK  status: ('A' for Active; 'I' for Inactive)
REMARK    1  A    between atoms: O1_2  and  C2_3 
REMARK    2  A    between atoms: C5_6  and  C6_7 
REMARK    3  A    between atoms: C7_8  and  S1_9 
REMARK    4  A    between atoms: C11_15  and  C12_16 
REMARK    5  A    between atoms: C12_16  and  C13_18 
REMARK    6  A    between atoms: N2_22  and  C15_23 
REMARK    7  A    between atoms: C19_27  and  O5_28 
ROOT
HETATM    1  C6  UNL     1      46.003  -0.697   3.373  1.00  0.00     0.003 A 
HETATM    2  C7  UNL     1      47.167  -0.287   2.777  1.00  0.00     0.070 A 
HETATM    3  C9  UNL     1      47.467  -0.743   1.482  1.00  0.00     0.025 A 
HETATM    4  C10 UNL     1      46.609  -1.590   0.813  1.00  0.00     0.017 A 
HETATM    5  C11 UNL     1      45.436  -2.003   1.411  1.00  0.00     0.022 A 
HETATM    6  C20 UNL     1      45.172  -1.547   2.666  1.00  0.00    -0.035 A 
HETATM    7  C21 UNL     1      43.930  -1.968   3.363  1.00  0.00     0.050 C 
ENDROOT
BRANCH   5   8
HETATM    8  C12 UNL     1      44.557  -2.887   0.660  1.00  0.00     0.198 C 
HETATM    9  O4  UNL     1      43.532  -2.295   0.158  1.00  0.00    -0.286 OA
BRANCH   8  10
HETATM   10  C13 UNL     1      44.758  -4.290   0.464  1.00  0.00     0.084 A 
HETATM   11  C14 UNL     1      45.954  -4.933   0.289  1.00  0.00     0.127 A 
HETATM   12  N1  UNL     1      45.679  -6.244   0.153  1.00  0.00    -0.306 N 
HETATM   13  N2  UNL     1      44.382  -6.479   0.230  1.00  0.00    -0.262 N 
ATOM     14  H1  UNL     1      46.385  -6.965   0.010  1.00  0.00     0.186 HD
HETATM   15  C19 UNL     1      43.802  -5.276   0.423  1.00  0.00     0.173 A 
BRANCH  13  16
HETATM   16  C15 UNL     1      43.759  -7.786   0.122  1.00  0.00     0.045 C 
HETATM   17  C16 UNL     1      42.506  -7.679  -0.708  1.00  0.00     0.039 C 
HETATM   18  C17 UNL     1      43.454  -8.289   1.519  1.00  0.00     0.039 C 
HETATM   19  C18 UNL     1      44.706  -8.787  -0.512  1.00  0.00     0.039 C 
ENDBRANCH  13  16
BRANCH  15  20
HETATM   20  O5  UNL     1      42.426  -5.083   0.558  1.00  0.00    -0.344 OA
ATOM     21  H5  UNL     1      41.787  -5.136  -0.143  1.00  0.00     0.219 HD
ENDBRANCH  15  20
ENDBRANCH   8  10
ENDBRANCH   5   8
BRANCH   1  22
HETATM   22  C5  UNL     1      45.657  -0.250   4.713  1.00  0.00    -0.024 A 
HETATM   23  C4  UNL     1      46.011  -1.009   5.812  1.00  0.00     0.015 A 
HETATM   24  C3  UNL     1      45.706  -0.632   7.107  1.00  0.00     0.037 A 
HETATM   25  C2  UNL     1      45.017   0.554   7.311  1.00  0.00     0.068 A 
HETATM   26  C23 UNL     1      44.673   1.300   6.195  1.00  0.00     0.037 A 
HETATM   27  C22 UNL     1      44.978   0.922   4.908  1.00  0.00     0.015 A 
BRANCH  25  28
HETATM   28  O1  UNL     1      44.683   0.988   8.585  1.00  0.00    -0.356 OA
HETATM   29  C1  UNL     1      43.963   2.179   8.820  1.00  0.00     0.210 C 
ENDBRANCH  25  28
ENDBRANCH   1  22
BRANCH   2  30
HETATM   30  S1  UNL     1      48.295   0.787   3.562  1.00  0.00     0.172 S 
HETATM   31  C8  UNL     1      49.012   0.118   5.020  1.00  0.00     0.167 C 
HETATM   32  O2  UNL     1      47.640   2.134   3.835  1.00  0.00    -0.223 OA
HETATM   33  O3  UNL     1      49.438   1.107   2.618  1.00  0.00    -0.223 OA
ENDBRANCH   2  30
TORSDOF 7
ENDMDL
