MODEL 10
REMARK VINA RESULT: -8.728724488      1.714      2.283
REMARK  7 active torsions:
REMARK  status: ('A' for Active; 'I' for Inactive)
REMARK    1  A    between atoms: O1_2  and  C2_3 
REMARK    2  A    between atoms: C5_6  and  C6_7 
REMARK    3  A    between atoms: C7_8  and  S1_9 
REMARK    4  A    between atoms: C11_15  and  C12_16 
REMARK    5  A    between atoms: C12_16  and  C13_18 
REMARK    6  A    between atoms: N2_22  and  C15_23 
REMARK    7  A    between atoms: C19_27  and  O5_28 
ROOT
HETATM    1  C6  UNL     1      46.614  -0.378   3.055  1.00  0.00     0.003 A 
HETATM    2  C7  UNL     1      47.374   0.219   2.084  1.00  0.00     0.070 A 
HETATM    3  C9  UNL     1      47.312  -0.276   0.771  1.00  0.00     0.025 A 
HETATM    4  C10 UNL     1      46.501  -1.345   0.453  1.00  0.00     0.017 A 
HETATM    5  C11 UNL     1      45.734  -1.947   1.430  1.00  0.00     0.022 A 
HETATM    6  C20 UNL     1      45.815  -1.447   2.694  1.00  0.00    -0.035 A 
HETATM    7  C21 UNL     1      45.020  -2.062   3.787  1.00  0.00     0.050 C 
ENDROOT
BRANCH   5   8
HETATM    8  C12 UNL     1      44.884  -3.063   1.044  1.00  0.00     0.198 C 
HETATM    9  O4  UNL     1      43.724  -2.709   0.619  1.00  0.00    -0.286 OA
BRANCH   8  10
HETATM   10  C13 UNL     1      45.247  -4.446   1.110  1.00  0.00     0.084 A 
HETATM   11  C14 UNL     1      44.901  -5.341   2.087  1.00  0.00     0.127 A 
HETATM   12  N1  UNL     1      45.444  -6.524   1.746  1.00  0.00    -0.306 N 
HETATM   13  N2  UNL     1      46.116  -6.441   0.612  1.00  0.00    -0.262 N 
ATOM     14  H1  UNL     1      45.348  -7.378   2.295  1.00  0.00     0.186 HD
HETATM   15  C19 UNL     1      46.001  -5.158   0.210  1.00  0.00     0.173 A 
BRANCH  13  16
HETATM   16  C15 UNL     1      46.820  -7.538  -0.027  1.00  0.00     0.045 C 
HETATM   17  C16 UNL     1      47.710  -6.999  -1.117  1.00  0.00     0.039 C 
HETATM   18  C17 UNL     1      45.795  -8.508  -0.581  1.00  0.00     0.039 C 
HETATM   19  C18 UNL     1      47.657  -8.306   0.980  1.00  0.00     0.039 C 
ENDBRANCH  13  16
BRANCH  15  20
HETATM   20  O5  UNL     1      46.573  -4.650  -0.957  1.00  0.00    -0.344 OA
ATOM     21  H5  UNL     1      46.703  -5.130  -1.766  1.00  0.00     0.219 HD
ENDBRANCH  15  20
ENDBRANCH   8  10
ENDBRANCH   5   8
BRANCH   1  22
HETATM   22  C5  UNL     1      46.651   0.102   4.428  1.00  0.00    -0.024 A 
HETATM   23  C4  UNL     1      47.638  -0.334   5.291  1.00  0.00     0.015 A 
HETATM   24  C3  UNL     1      47.719   0.088   6.605  1.00  0.00     0.037 A 
HETATM   25  C2  UNL     1      46.773   0.986   7.076  1.00  0.00     0.068 A 
HETATM   26  C23 UNL     1      45.792   1.411   6.193  1.00  0.00     0.037 A 
HETATM   27  C22 UNL     1      45.714   0.988   4.886  1.00  0.00     0.015 A 
BRANCH  25  28
HETATM   28  O1  UNL     1      46.800   1.448   8.383  1.00  0.00    -0.356 OA
HETATM   29  C1  UNL     1      47.929   2.084   8.943  1.00  0.00     0.210 C 
ENDBRANCH  25  28
ENDBRANCH   1  22
BRANCH   2  30
HETATM   30  S1  UNL     1      48.418   1.577   2.413  1.00  0.00     0.172 S 
HETATM   31  C8  UNL     1      49.835   1.167   3.367  1.00  0.00     0.167 C 
HETATM   32  O2  UNL     1      47.627   2.708   3.054  1.00  0.00    -0.223 OA
HETATM   33  O3  UNL     1      48.923   2.161   1.107  1.00  0.00    -0.223 OA
ENDBRANCH   2  30
TORSDOF 7
ENDMDL
