MODEL 3
REMARK VINA RESULT: -9.962368925      1.089      1.526
REMARK  7 active torsions:
REMARK  status: ('A' for Active; 'I' for Inactive)
REMARK    1  A    between atoms: O1_2  and  C2_3 
REMARK    2  A    between atoms: C5_6  and  C6_7 
REMARK    3  A    between atoms: C7_8  and  S1_9 
REMARK    4  A    between atoms: C11_15  and  C12_16 
REMARK    5  A    between atoms: C12_16  and  C13_18 
REMARK    6  A    between atoms: N2_22  and  C15_23 
REMARK    7  A    between atoms: C19_27  and  O5_28 
ROOT
HETATM    1  C6  UNL     1      46.012  -0.835   3.386  1.00  0.00     0.003 A 
HETATM    2  C7  UNL     1      47.148  -0.445   2.726  1.00  0.00     0.070 A 
HETATM    3  C9  UNL     1      47.402  -0.961   1.444  1.00  0.00     0.025 A 
HETATM    4  C10 UNL     1      46.528  -1.847   0.850  1.00  0.00     0.017 A 
HETATM    5  C11 UNL     1      45.384  -2.241   1.513  1.00  0.00     0.022 A 
HETATM    6  C20 UNL     1      45.163  -1.726   2.754  1.00  0.00    -0.035 A 
HETATM    7  C21 UNL     1      43.954  -2.124   3.519  1.00  0.00     0.050 C 
ENDROOT
BRANCH   5   8
HETATM    8  C12 UNL     1      44.486  -3.168   0.841  1.00  0.00     0.198 C 
HETATM    9  O4  UNL     1      43.431  -2.611   0.361  1.00  0.00    -0.286 OA
BRANCH   8  10
HETATM   10  C13 UNL     1      44.699  -4.575   0.696  1.00  0.00     0.084 A 
HETATM   11  C14 UNL     1      43.981  -5.580   1.287  1.00  0.00     0.127 A 
HETATM   12  N1  UNL     1      44.514  -6.743   0.868  1.00  0.00    -0.306 N 
HETATM   13  N2  UNL     1      45.530  -6.543   0.047  1.00  0.00    -0.262 N 
ATOM     14  H1  UNL     1      44.176  -7.662   1.149  1.00  0.00     0.186 HD
HETATM   15  C19 UNL     1      45.653  -5.204  -0.066  1.00  0.00     0.173 A 
BRANCH  13  16
HETATM   16  C15 UNL     1      46.320  -7.588  -0.578  1.00  0.00     0.045 C 
HETATM   17  C16 UNL     1      45.469  -8.816  -0.771  1.00  0.00     0.039 C 
HETATM   18  C17 UNL     1      47.517  -7.880   0.305  1.00  0.00     0.039 C 
HETATM   19  C18 UNL     1      46.862  -7.129  -1.920  1.00  0.00     0.039 C 
ENDBRANCH  13  16
BRANCH  15  20
HETATM   20  O5  UNL     1      46.618  -4.570  -0.850  1.00  0.00    -0.344 OA
ATOM     21  H5  UNL     1      47.389  -4.120  -0.525  1.00  0.00     0.219 HD
ENDBRANCH  15  20
ENDBRANCH   8  10
ENDBRANCH   5   8
BRANCH   1  22
HETATM   22  C5  UNL     1      45.713  -0.327   4.715  1.00  0.00    -0.024 A 
HETATM   23  C4  UNL     1      44.986   0.838   4.868  1.00  0.00     0.015 A 
HETATM   24  C3  UNL     1      44.676   1.366   6.107  1.00  0.00     0.037 A 
HETATM   25  C2  UNL     1      45.112   0.701   7.243  1.00  0.00     0.068 A 
HETATM   26  C23 UNL     1      45.840  -0.465   7.067  1.00  0.00     0.037 A 
HETATM   27  C22 UNL     1      46.147  -0.988   5.832  1.00  0.00     0.015 A 
BRANCH  25  28
HETATM   28  O1  UNL     1      44.833   1.179   8.515  1.00  0.00    -0.356 OA
HETATM   29  C1  UNL     1      43.809   2.117   8.769  1.00  0.00     0.210 C 
ENDBRANCH  25  28
ENDBRANCH   1  22
BRANCH   2  30
HETATM   30  S1  UNL     1      48.294   0.676   3.413  1.00  0.00     0.172 S 
HETATM   31  C8  UNL     1      49.060   0.093   4.882  1.00  0.00     0.167 C 
HETATM   32  O2  UNL     1      47.639   2.034   3.632  1.00  0.00    -0.223 OA
HETATM   33  O3  UNL     1      49.404   0.948   2.417  1.00  0.00    -0.223 OA
ENDBRANCH   2  30
TORSDOF 7
ENDMDL
