MODEL 5
REMARK VINA RESULT: -7.265833613      3.566      6.777
REMARK  3 active torsions:
REMARK  status: ('A' for Active; 'I' for Inactive)
REMARK    1  A    between atoms: C1_2  and  C2_6 
REMARK    2  A    between atoms: C9_13  and  N3_14 
REMARK    3  A    between atoms: N3_14  and  C10_16 
ROOT
HETATM    1  C2  UNL     1      24.069  12.868  32.919  1.00  0.00     0.005 A 
HETATM    2  C3  UNL     1      25.107  12.901  32.015  1.00  0.00     0.015 A 
HETATM    3  C4  UNL     1      25.377  14.025  31.265  1.00  0.00     0.013 A 
HETATM    4  C5  UNL     1      24.568  15.127  31.447  1.00  0.00    -0.024 A 
HETATM    5  C6  UNL     1      24.846  16.243  30.693  1.00  0.00     0.012 A 
HETATM    6  C7  UNL     1      24.061  17.348  30.851  1.00  0.00     0.003 A 
HETATM    7  C8  UNL     1      22.998  17.358  31.756  1.00  0.00     0.031 A 
HETATM    8  C9  UNL     1      22.694  16.255  32.526  1.00  0.00     0.060 A 
HETATM    9  C14 UNL     1      23.505  15.124  32.356  1.00  0.00     0.002 A 
HETATM   10  C15 UNL     1      23.273  13.997  33.076  1.00  0.00     0.029 A 
ENDROOT
BRANCH   8  11
HETATM   11  N3  UNL     1      21.612  16.255  33.450  1.00  0.00    -0.191 N 
ATOM     12  H3  UNL     1      21.676  15.597  34.227  1.00  0.00     0.184 HD
BRANCH  11  13
HETATM   13  C10 UNL     1      20.468  17.064  33.407  1.00  0.00     0.682 A 
HETATM   14  N4  UNL     1      19.407  16.943  32.625  1.00  0.00    -0.202 N 
HETATM   15  C11 UNL     1      18.354  17.767  32.655  1.00  0.00     0.107 A 
ATOM     16  H4  UNL     1      19.392  16.172  31.957  1.00  0.00     0.183 HD
HETATM   17  C12 UNL     1      18.338  18.830  33.552  1.00  0.00     0.035 A 
HETATM   18  C13 UNL     1      19.428  18.982  34.380  1.00  0.00     0.107 A 
HETATM   19  N5  UNL     1      20.425  18.115  34.278  1.00  0.00    -0.202 N 
ATOM     20  H5  UNL     1      21.224  18.243  34.899  1.00  0.00     0.183 HD
ENDBRANCH  11  13
ENDBRANCH   8  11
BRANCH   1  21
HETATM   21  C1  UNL     1      23.745  11.706  33.733  1.00  0.00     0.120 C 
HETATM   22  N1  UNL     1      22.367  11.369  33.950  1.00  0.00    -0.082 NA
HETATM   23  N2  UNL     1      24.644  10.985  34.256  1.00  0.00    -0.387 N 
ATOM     24  H22 UNL     1      24.417  10.170  34.827  1.00  0.00     0.157 HD
ATOM     25  H21 UNL     1      25.623  11.224  34.102  1.00  0.00     0.157 HD
ENDBRANCH   1  21
TORSDOF 3
ENDMDL
