MODEL 6
REMARK VINA RESULT: -7.244348483      3.534      6.786
REMARK  3 active torsions:
REMARK  status: ('A' for Active; 'I' for Inactive)
REMARK    1  A    between atoms: C1_2  and  C2_6 
REMARK    2  A    between atoms: C9_13  and  N3_14 
REMARK    3  A    between atoms: N3_14  and  C10_16 
ROOT
HETATM    1  C2  UNL     1      24.074  12.911  32.908  1.00  0.00     0.005 A 
HETATM    2  C3  UNL     1      25.123  12.960  32.018  1.00  0.00     0.015 A 
HETATM    3  C4  UNL     1      25.393  14.093  31.281  1.00  0.00     0.013 A 
HETATM    4  C5  UNL     1      24.573  15.187  31.463  1.00  0.00    -0.024 A 
HETATM    5  C6  UNL     1      24.852  16.312  30.723  1.00  0.00     0.012 A 
HETATM    6  C7  UNL     1      24.056  17.409  30.882  1.00  0.00     0.003 A 
HETATM    7  C8  UNL     1      22.982  17.403  31.773  1.00  0.00     0.031 A 
HETATM    8  C9  UNL     1      22.678  16.291  32.529  1.00  0.00     0.060 A 
HETATM    9  C14 UNL     1      23.499  15.167  32.359  1.00  0.00     0.002 A 
HETATM   10  C15 UNL     1      23.267  14.033  33.065  1.00  0.00     0.029 A 
ENDROOT
BRANCH   8  11
HETATM   11  N3  UNL     1      21.585  16.274  33.440  1.00  0.00    -0.191 N 
ATOM     12  H3  UNL     1      21.561  15.505  34.110  1.00  0.00     0.184 HD
BRANCH  11  13
HETATM   13  C10 UNL     1      20.537  17.203  33.515  1.00  0.00     0.682 A 
HETATM   14  N4  UNL     1      20.458  18.292  34.263  1.00  0.00    -0.202 N 
HETATM   15  C11 UNL     1      19.412  19.125  34.269  1.00  0.00     0.107 A 
ATOM     16  H4  UNL     1      21.245  18.510  34.874  1.00  0.00     0.183 HD
HETATM   17  C12 UNL     1      18.318  18.862  33.449  1.00  0.00     0.035 A 
HETATM   18  C13 UNL     1      18.371  17.735  32.660  1.00  0.00     0.107 A 
HETATM   19  N5  UNL     1      19.451  16.969  32.721  1.00  0.00    -0.202 N 
ATOM     20  H5  UNL     1      19.472  16.139  32.129  1.00  0.00     0.183 HD
ENDBRANCH  11  13
ENDBRANCH   8  11
BRANCH   1  21
HETATM   21  C1  UNL     1      23.749  11.739  33.707  1.00  0.00     0.120 C 
HETATM   22  N1  UNL     1      22.371  11.407  33.931  1.00  0.00    -0.082 NA
HETATM   23  N2  UNL     1      24.647  11.004  34.212  1.00  0.00    -0.387 N 
ATOM     24  H22 UNL     1      24.419  10.183  34.773  1.00  0.00     0.157 HD
ATOM     25  H21 UNL     1      25.627  11.240  34.053  1.00  0.00     0.157 HD
ENDBRANCH   1  21
TORSDOF 3
ENDMDL
