MODEL 2
REMARK VINA RESULT: -7.780432647      1.016      1.274
REMARK  3 active torsions:
REMARK  status: ('A' for Active; 'I' for Inactive)
REMARK    1  A    between atoms: C1_2  and  C2_6 
REMARK    2  A    between atoms: C9_13  and  N3_14 
REMARK    3  A    between atoms: N3_14  and  C10_16 
ROOT
HETATM    1  C2  UNL     1      19.710  18.004  33.973  1.00  0.00     0.005 A 
HETATM    2  C3  UNL     1      19.391  16.843  33.306  1.00  0.00     0.015 A 
HETATM    3  C4  UNL     1      20.332  15.866  33.065  1.00  0.00     0.013 A 
HETATM    4  C5  UNL     1      21.616  16.087  33.515  1.00  0.00    -0.024 A 
HETATM    5  C6  UNL     1      22.547  15.105  33.268  1.00  0.00     0.012 A 
HETATM    6  C7  UNL     1      23.827  15.298  33.702  1.00  0.00     0.003 A 
HETATM    7  C8  UNL     1      24.195  16.460  34.381  1.00  0.00     0.031 A 
HETATM    8  C9  UNL     1      23.284  17.463  34.643  1.00  0.00     0.060 A 
HETATM    9  C14 UNL     1      21.972  17.257  34.194  1.00  0.00     0.002 A 
HETATM   10  C15 UNL     1      21.016  18.194  34.412  1.00  0.00     0.029 A 
ENDROOT
BRANCH   8  11
HETATM   11  N3  UNL     1      23.650  18.651  35.335  1.00  0.00    -0.191 N 
ATOM     12  H3  UNL     1      23.632  19.517  34.796  1.00  0.00     0.184 HD
BRANCH  11  13
HETATM   13  C10 UNL     1      24.032  18.760  36.680  1.00  0.00     0.682 A 
HETATM   14  N4  UNL     1      24.113  17.801  37.589  1.00  0.00    -0.202 N 
HETATM   15  C11 UNL     1      24.491  17.999  38.856  1.00  0.00     0.107 A 
ATOM     16  H4  UNL     1      23.872  16.852  37.305  1.00  0.00     0.183 HD
HETATM   17  C12 UNL     1      24.828  19.279  39.282  1.00  0.00     0.035 A 
HETATM   18  C13 UNL     1      24.754  20.298  38.358  1.00  0.00     0.107 A 
HETATM   19  N5  UNL     1      24.369  20.005  37.124  1.00  0.00    -0.202 N 
ATOM     20  H5  UNL     1      24.320  20.772  36.453  1.00  0.00     0.183 HD
ENDBRANCH  11  13
ENDBRANCH   8  11
BRANCH   1  21
HETATM   21  C1  UNL     1      18.753  19.064  34.251  1.00  0.00     0.120 C 
HETATM   22  N1  UNL     1      17.522  19.103  33.515  1.00  0.00    -0.082 NA
HETATM   23  N2  UNL     1      18.976  19.955  35.123  1.00  0.00    -0.387 N 
ATOM     24  H22 UNL     1      18.304  20.697  35.318  1.00  0.00     0.157 HD
ATOM     25  H21 UNL     1      19.851  19.927  35.646  1.00  0.00     0.157 HD
ENDBRANCH   1  21
TORSDOF 3
ENDMDL
