MODEL 7
REMARK VINA RESULT: -7.234749034      3.083      5.937
REMARK  3 active torsions:
REMARK  status: ('A' for Active; 'I' for Inactive)
REMARK    1  A    between atoms: C1_2  and  C2_6 
REMARK    2  A    between atoms: C9_13  and  N3_14 
REMARK    3  A    between atoms: N3_14  and  C10_16 
ROOT
HETATM    1  C2  UNL     1      24.970  18.231  30.753  1.00  0.00     0.005 A 
HETATM    2  C3  UNL     1      25.613  17.108  30.283  1.00  0.00     0.015 A 
HETATM    3  C4  UNL     1      25.314  15.850  30.762  1.00  0.00     0.013 A 
HETATM    4  C5  UNL     1      24.343  15.749  31.736  1.00  0.00    -0.024 A 
HETATM    5  C6  UNL     1      24.053  14.490  32.207  1.00  0.00     0.012 A 
HETATM    6  C7  UNL     1      23.097  14.361  33.173  1.00  0.00     0.003 A 
HETATM    7  C8  UNL     1      22.422  15.472  33.678  1.00  0.00     0.031 A 
HETATM    8  C9  UNL     1      22.690  16.747  33.226  1.00  0.00     0.060 A 
HETATM    9  C14 UNL     1      23.674  16.872  32.235  1.00  0.00     0.002 A 
HETATM   10  C15 UNL     1      23.997  18.092  31.737  1.00  0.00     0.029 A 
ENDROOT
BRANCH   8  11
HETATM   11  N3  UNL     1      22.007  17.887  33.735  1.00  0.00    -0.191 N 
ATOM     12  H3  UNL     1      22.570  18.564  34.250  1.00  0.00     0.184 HD
BRANCH  11  13
HETATM   13  C10 UNL     1      20.642  18.179  33.604  1.00  0.00     0.682 A 
HETATM   14  N4  UNL     1      19.721  17.508  32.931  1.00  0.00    -0.202 N 
HETATM   15  C11 UNL     1      18.433  17.863  32.863  1.00  0.00     0.107 A 
ATOM     16  H4  UNL     1      20.011  16.667  32.432  1.00  0.00     0.183 HD
HETATM   17  C12 UNL     1      17.998  19.004  33.529  1.00  0.00     0.035 A 
HETATM   18  C13 UNL     1      18.933  19.723  34.239  1.00  0.00     0.107 A 
HETATM   19  N5  UNL     1      20.187  19.293  34.249  1.00  0.00    -0.202 N 
ATOM     20  H5  UNL     1      20.866  19.838  34.780  1.00  0.00     0.183 HD
ENDBRANCH  11  13
ENDBRANCH   8  11
BRANCH   1  21
HETATM   21  C1  UNL     1      25.251  19.578  30.279  1.00  0.00     0.120 C 
HETATM   22  N1  UNL     1      26.606  20.050  30.281  1.00  0.00    -0.082 NA
HETATM   23  N2  UNL     1      24.333  20.346  29.867  1.00  0.00    -0.387 N 
ATOM     24  H22 UNL     1      24.531  21.290  29.535  1.00  0.00     0.157 HD
ATOM     25  H21 UNL     1      23.370  20.011  29.866  1.00  0.00     0.157 HD
ENDBRANCH   1  21
TORSDOF 3
ENDMDL
