MODEL 1
REMARK VINA RESULT: -7.834801687      0.000      0.000
REMARK  3 active torsions:
REMARK  status: ('A' for Active; 'I' for Inactive)
REMARK    1  A    between atoms: C1_2  and  C2_6 
REMARK    2  A    between atoms: C9_13  and  N3_14 
REMARK    3  A    between atoms: N3_14  and  C10_16 
ROOT
HETATM    1  C2  UNL     1      18.968  18.741  33.600  1.00  0.00     0.005 A 
HETATM    2  C3  UNL     1      18.597  17.661  32.832  1.00  0.00     0.015 A 
HETATM    3  C4  UNL     1      19.479  16.640  32.545  1.00  0.00     0.013 A 
HETATM    4  C5  UNL     1      20.757  16.735  33.055  1.00  0.00    -0.024 A 
HETATM    5  C6  UNL     1      21.628  15.712  32.763  1.00  0.00     0.012 A 
HETATM    6  C7  UNL     1      22.900  15.780  33.254  1.00  0.00     0.003 A 
HETATM    7  C8  UNL     1      23.318  16.857  34.036  1.00  0.00     0.031 A 
HETATM    8  C9  UNL     1      22.468  17.898  34.346  1.00  0.00     0.060 A 
HETATM    9  C14 UNL     1      21.164  17.821  33.837  1.00  0.00     0.002 A 
HETATM   10  C15 UNL     1      20.265  18.804  34.097  1.00  0.00     0.029 A 
ENDROOT
BRANCH   8  11
HETATM   11  N3  UNL     1      22.885  19.000  35.143  1.00  0.00    -0.191 N 
ATOM     12  H3  UNL     1      22.456  19.902  34.934  1.00  0.00     0.184 HD
BRANCH  11  13
HETATM   13  C10 UNL     1      23.824  18.980  36.185  1.00  0.00     0.682 A 
HETATM   14  N4  UNL     1      23.987  18.061  37.123  1.00  0.00    -0.202 N 
HETATM   15  C11 UNL     1      24.915  18.125  38.083  1.00  0.00     0.107 A 
ATOM     16  H4  UNL     1      23.364  17.253  37.114  1.00  0.00     0.183 HD
HETATM   17  C12 UNL     1      25.784  19.211  38.130  1.00  0.00     0.035 A 
HETATM   18  C13 UNL     1      25.638  20.184  37.166  1.00  0.00     0.107 A 
HETATM   19  N5  UNL     1      24.689  20.033  36.254  1.00  0.00    -0.202 N 
ATOM     20  H5  UNL     1      24.596  20.763  35.547  1.00  0.00     0.183 HD
ENDBRANCH  11  13
ENDBRANCH   8  11
BRANCH   1  21
HETATM   21  C1  UNL     1      18.075  19.841  33.929  1.00  0.00     0.120 C 
HETATM   22  N1  UNL     1      18.598  21.177  33.972  1.00  0.00    -0.082 NA
HETATM   23  N2  UNL     1      16.848  19.655  34.179  1.00  0.00    -0.387 N 
ATOM     24  H22 UNL     1      16.222  20.426  34.409  1.00  0.00     0.157 HD
ATOM     25  H21 UNL     1      16.475  18.705  34.148  1.00  0.00     0.157 HD
ENDBRANCH   1  21
TORSDOF 3
ENDMDL
