MODEL 3
REMARK VINA RESULT: -7.768520534      0.198      1.049
REMARK  3 active torsions:
REMARK  status: ('A' for Active; 'I' for Inactive)
REMARK    1  A    between atoms: C1_2  and  C2_6 
REMARK    2  A    between atoms: C9_13  and  N3_14 
REMARK    3  A    between atoms: N3_14  and  C10_16 
ROOT
HETATM    1  C2  UNL     1      18.983  18.716  33.693  1.00  0.00     0.005 A 
HETATM    2  C3  UNL     1      18.616  17.580  33.007  1.00  0.00     0.015 A 
HETATM    3  C4  UNL     1      19.504  16.548  32.790  1.00  0.00     0.013 A 
HETATM    4  C5  UNL     1      20.784  16.689  33.284  1.00  0.00    -0.024 A 
HETATM    5  C6  UNL     1      21.661  15.653  33.062  1.00  0.00     0.012 A 
HETATM    6  C7  UNL     1      22.935  15.766  33.539  1.00  0.00     0.003 A 
HETATM    7  C8  UNL     1      23.349  16.900  34.239  1.00  0.00     0.031 A 
HETATM    8  C9  UNL     1      22.493  17.954  34.478  1.00  0.00     0.060 A 
HETATM    9  C14 UNL     1      21.187  17.831  33.984  1.00  0.00     0.002 A 
HETATM   10  C15 UNL     1      20.282  18.823  34.177  1.00  0.00     0.029 A 
ENDROOT
BRANCH   8  11
HETATM   11  N3  UNL     1      22.906  19.114  35.191  1.00  0.00    -0.191 N 
ATOM     12  H3  UNL     1      22.383  19.971  35.010  1.00  0.00     0.184 HD
BRANCH  11  13
HETATM   13  C10 UNL     1      23.956  19.206  36.115  1.00  0.00     0.682 A 
HETATM   14  N4  UNL     1      24.948  20.081  36.145  1.00  0.00    -0.202 N 
HETATM   15  C11 UNL     1      25.911  20.092  37.073  1.00  0.00     0.107 A 
ATOM     16  H4  UNL     1      24.980  20.792  35.415  1.00  0.00     0.183 HD
HETATM   17  C12 UNL     1      25.903  19.139  38.086  1.00  0.00     0.035 A 
HETATM   18  C13 UNL     1      24.882  18.213  38.081  1.00  0.00     0.107 A 
HETATM   19  N5  UNL     1      23.972  18.282  37.120  1.00  0.00    -0.202 N 
ATOM     20  H5  UNL     1      23.223  17.589  37.133  1.00  0.00     0.183 HD
ENDBRANCH  11  13
ENDBRANCH   8  11
BRANCH   1  21
HETATM   21  C1  UNL     1      18.083  19.830  33.947  1.00  0.00     0.120 C 
HETATM   22  N1  UNL     1      18.608  21.166  33.950  1.00  0.00    -0.082 NA
HETATM   23  N2  UNL     1      16.848  19.656  34.167  1.00  0.00    -0.387 N 
ATOM     24  H22 UNL     1      16.218  20.438  34.345  1.00  0.00     0.157 HD
ATOM     25  H21 UNL     1      16.474  18.707  34.165  1.00  0.00     0.157 HD
ENDBRANCH   1  21
TORSDOF 3
ENDMDL
