MODEL 5
REMARK VINA RESULT: -7.551121234      1.187      1.192
REMARK  4 active torsions:
REMARK  status: ('A' for Active; 'I' for Inactive)
REMARK    1  A    between atoms: O1_2  and  C2_3 
REMARK    2  A    between atoms: C8_9  and  C9_10 
REMARK    3  A    between atoms: C12_17  and  C13_18 
REMARK    4  A    between atoms: N4_21  and  S1_22 
ROOT
HETATM    1  C2  UNL     1      24.168  16.519  33.070  1.00  0.00     0.075 A 
HETATM    2  C3  UNL     1      23.733  15.554  32.216  1.00  0.00     0.038 A 
HETATM    3  C4  UNL     1      22.423  15.524  31.866  1.00  0.00     0.015 A 
HETATM    4  C5  UNL     1      21.569  16.475  32.386  1.00  0.00    -0.025 A 
HETATM    5  C6  UNL     1      20.222  16.380  32.046  1.00  0.00     0.013 A 
HETATM    6  C7  UNL     1      19.323  17.270  32.594  1.00  0.00     0.015 A 
HETATM    7  C8  UNL     1      19.694  18.250  33.456  1.00  0.00     0.005 A 
HETATM    8  C10 UNL     1      21.058  18.322  33.773  1.00  0.00     0.027 A 
HETATM    9  C11 UNL     1      22.017  17.472  33.270  1.00  0.00    -0.015 A 
HETATM   10  C12 UNL     1      23.340  17.525  33.637  1.00  0.00    -0.007 A 
ENDROOT
BRANCH  10  11
HETATM   11  C13 UNL     1      23.883  18.433  34.629  1.00  0.00     0.054 C 
HETATM   12  C14 UNL     1      24.349  19.794  34.320  1.00  0.00     0.140 C 
HETATM   13  N3  UNL     1      24.962  20.185  35.631  1.00  0.00    -0.150 NA
HETATM   14  N4  UNL     1      25.341  19.090  36.294  1.00  0.00    -0.125 NA
HETATM   15  C16 UNL     1      24.951  17.902  35.525  1.00  0.00     0.138 C 
BRANCH  14  16
HETATM   16  S1  UNL     1      24.926  19.031  37.938  1.00  0.00     0.222 S 
HETATM   17  C15 UNL     1      26.449  19.056  38.893  1.00  0.00     0.181 C 
HETATM   18  O2  UNL     1      24.140  20.254  38.337  1.00  0.00    -0.210 OA
HETATM   19  O3  UNL     1      24.094  17.843  38.276  1.00  0.00    -0.210 OA
ENDBRANCH  14  16
ENDBRANCH  10  11
BRANCH   1  20
HETATM   20  O1  UNL     1      25.502  16.533  33.407  1.00  0.00    -0.355 OA
HETATM   21  C1  UNL     1      26.610  16.330  32.629  1.00  0.00     0.210 C 
ENDBRANCH   1  20
BRANCH   7  22
HETATM   22  C9  UNL     1      18.746  19.156  34.079  1.00  0.00     0.120 C 
HETATM   23  N1  UNL     1      17.420  19.259  33.629  1.00  0.00    -0.082 NA
HETATM   24  N2  UNL     1      19.134  19.858  35.089  1.00  0.00    -0.387 N 
ATOM     25  H22 UNL     1      20.097  19.783  35.416  1.00  0.00     0.157 HD
ATOM     26  H21 UNL     1      18.469  20.495  35.527  1.00  0.00     0.157 HD
ENDBRANCH   7  22
TORSDOF 4
ENDMDL
