MODEL 18
REMARK VINA RESULT: -7.071814043      1.737      2.069
REMARK  4 active torsions:
REMARK  status: ('A' for Active; 'I' for Inactive)
REMARK    1  A    between atoms: O1_2  and  C2_3 
REMARK    2  A    between atoms: C8_9  and  C9_10 
REMARK    3  A    between atoms: C12_17  and  C13_18 
REMARK    4  A    between atoms: N4_21  and  S1_22 
ROOT
HETATM    1  C2  UNL     1      22.893  15.940  32.642  1.00  0.00     0.075 A 
HETATM    2  C3  UNL     1      22.032  15.148  31.949  1.00  0.00     0.038 A 
HETATM    3  C4  UNL     1      20.740  15.541  31.810  1.00  0.00     0.015 A 
HETATM    4  C5  UNL     1      20.338  16.733  32.374  1.00  0.00    -0.025 A 
HETATM    5  C6  UNL     1      18.994  17.077  32.256  1.00  0.00     0.013 A 
HETATM    6  C7  UNL     1      18.536  18.228  32.861  1.00  0.00     0.015 A 
HETATM    7  C8  UNL     1      19.343  19.055  33.570  1.00  0.00     0.005 A 
HETATM    8  C10 UNL     1      20.693  18.685  33.665  1.00  0.00     0.027 A 
HETATM    9  C11 UNL     1      21.227  17.553  33.092  1.00  0.00    -0.015 A 
HETATM   10  C12 UNL     1      22.540  17.178  33.245  1.00  0.00    -0.007 A 
ENDROOT
BRANCH  10  11
HETATM   11  C13 UNL     1      23.508  17.885  34.062  1.00  0.00     0.054 C 
HETATM   12  C14 UNL     1      24.578  18.731  33.509  1.00  0.00     0.140 C 
HETATM   13  N3  UNL     1      25.362  19.037  34.750  1.00  0.00    -0.150 NA
HETATM   14  N4  UNL     1      25.171  18.071  35.652  1.00  0.00    -0.125 NA
HETATM   15  C16 UNL     1      24.206  17.101  35.122  1.00  0.00     0.138 C 
BRANCH  14  16
HETATM   16  S1  UNL     1      24.856  18.582  37.238  1.00  0.00     0.222 S 
HETATM   17  C15 UNL     1      26.435  18.841  38.059  1.00  0.00     0.181 C 
HETATM   18  O2  UNL     1      24.139  19.908  37.243  1.00  0.00    -0.210 OA
HETATM   19  O3  UNL     1      24.005  17.619  37.991  1.00  0.00    -0.210 OA
ENDBRANCH  14  16
ENDBRANCH  10  11
BRANCH   1  20
HETATM   20  O1  UNL     1      24.198  15.525  32.766  1.00  0.00    -0.355 OA
HETATM   21  C1  UNL     1      25.119  15.210  31.803  1.00  0.00     0.210 C 
ENDBRANCH   1  20
BRANCH   7  22
HETATM   22  C9  UNL     1      18.857  20.240  34.255  1.00  0.00     0.120 C 
HETATM   23  N1  UNL     1      18.410  21.368  33.549  1.00  0.00    -0.082 NA
HETATM   24  N2  UNL     1      18.813  20.235  35.543  1.00  0.00    -0.387 N 
ATOM     25  H22 UNL     1      19.138  19.415  36.057  1.00  0.00     0.157 HD
ATOM     26  H21 UNL     1      18.472  21.066  36.025  1.00  0.00     0.157 HD
ENDBRANCH   7  22
TORSDOF 4
ENDMDL
