MODEL 1
REMARK VINA RESULT: -8.123263328      0.000      0.000
REMARK  4 active torsions:
REMARK  status: ('A' for Active; 'I' for Inactive)
REMARK    1  A    between atoms: O1_2  and  C2_3 
REMARK    2  A    between atoms: C8_9  and  C9_10 
REMARK    3  A    between atoms: C12_17  and  C13_18 
REMARK    4  A    between atoms: N4_21  and  S1_22 
ROOT
HETATM    1  C2  UNL     1      24.326  16.140  34.608  1.00  0.00     0.075 A 
HETATM    2  C3  UNL     1      23.971  15.004  33.949  1.00  0.00     0.038 A 
HETATM    3  C4  UNL     1      22.717  14.901  33.441  1.00  0.00     0.015 A 
HETATM    4  C5  UNL     1      21.838  15.951  33.607  1.00  0.00    -0.025 A 
HETATM    5  C6  UNL     1      20.544  15.787  33.119  1.00  0.00     0.013 A 
HETATM    6  C7  UNL     1      19.615  16.785  33.320  1.00  0.00     0.015 A 
HETATM    7  C8  UNL     1      19.906  17.936  33.975  1.00  0.00     0.005 A 
HETATM    8  C10 UNL     1      21.219  18.074  34.449  1.00  0.00     0.027 A 
HETATM    9  C11 UNL     1      22.203  17.125  34.289  1.00  0.00    -0.015 A 
HETATM   10  C12 UNL     1      23.468  17.254  34.810  1.00  0.00    -0.007 A 
ENDROOT
BRANCH  10  11
HETATM   11  C13 UNL     1      23.910  18.366  35.631  1.00  0.00     0.054 C 
HETATM   12  C14 UNL     1      24.332  19.666  35.085  1.00  0.00     0.140 C 
HETATM   13  N3  UNL     1      24.848  20.336  36.322  1.00  0.00    -0.150 NA
HETATM   14  N4  UNL     1      25.235  19.412  37.205  1.00  0.00    -0.125 NA
HETATM   15  C16 UNL     1      24.945  18.079  36.665  1.00  0.00     0.138 C 
BRANCH  14  16
HETATM   16  S1  UNL     1      24.727  19.649  38.806  1.00  0.00     0.222 S 
HETATM   17  C15 UNL     1      26.149  20.197  39.761  1.00  0.00     0.181 C 
HETATM   18  O2  UNL     1      23.698  20.749  38.885  1.00  0.00    -0.210 OA
HETATM   19  O3  UNL     1      24.113  18.428  39.398  1.00  0.00    -0.210 OA
ENDBRANCH  14  16
ENDBRANCH  10  11
BRANCH   1  20
HETATM   20  O1  UNL     1      25.603  16.225  35.110  1.00  0.00    -0.355 OA
HETATM   21  C1  UNL     1      26.795  15.832  34.561  1.00  0.00     0.210 C 
ENDBRANCH   1  20
BRANCH   7  22
HETATM   22  C9  UNL     1      18.918  18.968  34.239  1.00  0.00     0.120 C 
HETATM   23  N1  UNL     1      17.686  18.998  33.566  1.00  0.00    -0.082 NA
HETATM   24  N2  UNL     1      19.178  19.858  35.135  1.00  0.00    -0.387 N 
ATOM     25  H22 UNL     1      20.074  19.836  35.624  1.00  0.00     0.157 HD
ATOM     26  H21 UNL     1      18.485  20.583  35.320  1.00  0.00     0.157 HD
ENDBRANCH   7  22
TORSDOF 4
ENDMDL
