MODEL 2
REMARK VINA RESULT: -8.045681804      4.114      5.852
REMARK  4 active torsions:
REMARK  status: ('A' for Active; 'I' for Inactive)
REMARK    1  A    between atoms: O1_2  and  C2_3 
REMARK    2  A    between atoms: C8_9  and  C9_10 
REMARK    3  A    between atoms: C12_17  and  C13_18 
REMARK    4  A    between atoms: N4_21  and  S1_22 
ROOT
HETATM    1  C2  UNL     1      25.258  16.186  34.877  1.00  0.00     0.075 A 
HETATM    2  C3  UNL     1      25.259  17.410  35.471  1.00  0.00     0.038 A 
HETATM    3  C4  UNL     1      24.160  18.198  35.360  1.00  0.00     0.015 A 
HETATM    4  C5  UNL     1      23.073  17.735  34.648  1.00  0.00    -0.025 A 
HETATM    5  C6  UNL     1      21.984  18.593  34.511  1.00  0.00     0.013 A 
HETATM    6  C7  UNL     1      20.903  18.196  33.754  1.00  0.00     0.015 A 
HETATM    7  C8  UNL     1      20.846  16.991  33.132  1.00  0.00     0.005 A 
HETATM    8  C10 UNL     1      21.955  16.148  33.295  1.00  0.00     0.027 A 
HETATM    9  C11 UNL     1      23.071  16.471  34.033  1.00  0.00    -0.015 A 
HETATM   10  C12 UNL     1      24.171  15.654  34.134  1.00  0.00    -0.007 A 
ENDROOT
BRANCH  10  11
HETATM   11  C13 UNL     1      24.322  14.387  33.442  1.00  0.00     0.054 C 
HETATM   12  C14 UNL     1      24.708  14.271  32.027  1.00  0.00     0.140 C 
HETATM   13  N3  UNL     1      24.526  12.800  31.806  1.00  0.00    -0.150 NA
HETATM   14  N4  UNL     1      23.631  12.323  32.675  1.00  0.00    -0.125 NA
HETATM   15  C16 UNL     1      23.209  13.403  33.574  1.00  0.00     0.138 C 
BRANCH  14  16
HETATM   16  S1  UNL     1      24.048  10.877  33.458  1.00  0.00     0.222 S 
HETATM   17  C15 UNL     1      25.803  10.944  33.842  1.00  0.00     0.181 C 
HETATM   18  O2  UNL     1      23.319  10.749  34.772  1.00  0.00    -0.210 OA
HETATM   19  O3  UNL     1      23.715   9.672  32.650  1.00  0.00    -0.210 OA
ENDBRANCH  14  16
ENDBRANCH  10  11
BRANCH   1  20
HETATM   20  O1  UNL     1      26.381  15.402  35.008  1.00  0.00    -0.355 OA
HETATM   21  C1  UNL     1      27.694  15.692  34.751  1.00  0.00     0.210 C 
ENDBRANCH   1  20
BRANCH   7  22
HETATM   22  C9  UNL     1      19.734  16.589  32.289  1.00  0.00     0.120 C 
HETATM   23  N1  UNL     1      18.592  17.392  32.142  1.00  0.00    -0.082 NA
HETATM   24  N2  UNL     1      19.821  15.477  31.642  1.00  0.00    -0.387 N 
ATOM     25  H22 UNL     1      20.651  14.893  31.748  1.00  0.00     0.157 HD
ATOM     26  H21 UNL     1      19.041  15.193  31.049  1.00  0.00     0.157 HD
ENDBRANCH   7  22
TORSDOF 4
ENDMDL
