MODEL 10
REMARK VINA RESULT: -7.294827893      1.986      2.320
REMARK  4 active torsions:
REMARK  status: ('A' for Active; 'I' for Inactive)
REMARK    1  A    between atoms: O1_2  and  C2_3 
REMARK    2  A    between atoms: C8_9  and  C9_10 
REMARK    3  A    between atoms: C12_17  and  C13_18 
REMARK    4  A    between atoms: N4_21  and  S1_22 
ROOT
HETATM    1  C2  UNL     1      24.020  15.760  32.913  1.00  0.00     0.075 A 
HETATM    2  C3  UNL     1      23.501  14.932  31.967  1.00  0.00     0.038 A 
HETATM    3  C4  UNL     1      22.207  15.089  31.590  1.00  0.00     0.015 A 
HETATM    4  C5  UNL     1      21.455  16.086  32.176  1.00  0.00    -0.025 A 
HETATM    5  C6  UNL     1      20.117  16.183  31.802  1.00  0.00     0.013 A 
HETATM    6  C7  UNL     1      19.313  17.122  32.410  1.00  0.00     0.015 A 
HETATM    7  C8  UNL     1      19.769  17.972  33.363  1.00  0.00     0.005 A 
HETATM    8  C10 UNL     1      21.122  17.854  33.713  1.00  0.00     0.027 A 
HETATM    9  C11 UNL     1      21.990  16.943  33.154  1.00  0.00    -0.015 A 
HETATM   10  C12 UNL     1      23.298  16.805  33.551  1.00  0.00    -0.007 A 
ENDROOT
BRANCH  10  11
HETATM   11  C13 UNL     1      23.913  17.552  34.632  1.00  0.00     0.054 C 
HETATM   12  C14 UNL     1      23.249  17.826  35.916  1.00  0.00     0.140 C 
HETATM   13  N3  UNL     1      24.235  18.761  36.548  1.00  0.00    -0.150 NA
HETATM   14  N4  UNL     1      24.940  19.380  35.597  1.00  0.00    -0.125 NA
HETATM   15  C16 UNL     1      24.538  18.861  34.285  1.00  0.00     0.138 C 
BRANCH  14  16
HETATM   16  S1  UNL     1      26.617  19.455  35.841  1.00  0.00     0.222 S 
HETATM   17  C15 UNL     1      27.212  17.779  36.105  1.00  0.00     0.181 C 
HETATM   18  O2  UNL     1      27.315  19.977  34.610  1.00  0.00    -0.210 OA
HETATM   19  O3  UNL     1      26.991  20.349  36.972  1.00  0.00    -0.210 OA
ENDBRANCH  14  16
ENDBRANCH  10  11
BRANCH   1  20
HETATM   20  O1  UNL     1      25.335  15.586  33.276  1.00  0.00    -0.355 OA
HETATM   21  C1  UNL     1      25.977  14.479  33.761  1.00  0.00     0.210 C 
ENDBRANCH   1  20
BRANCH   7  22
HETATM   22  C9  UNL     1      18.915  18.928  34.047  1.00  0.00     0.120 C 
HETATM   23  N1  UNL     1      17.596  19.166  33.630  1.00  0.00    -0.082 NA
HETATM   24  N2  UNL     1      19.380  19.546  35.078  1.00  0.00    -0.387 N 
ATOM     25  H22 UNL     1      20.339  19.372  35.381  1.00  0.00     0.157 HD
ATOM     26  H21 UNL     1      18.781  20.217  35.558  1.00  0.00     0.157 HD
ENDBRANCH   7  22
TORSDOF 4
ENDMDL
