MODEL 3
REMARK VINA RESULT: -7.936569770      4.766      6.564
REMARK  4 active torsions:
REMARK  status: ('A' for Active; 'I' for Inactive)
REMARK    1  A    between atoms: O1_2  and  C2_3 
REMARK    2  A    between atoms: C8_9  and  C9_10 
REMARK    3  A    between atoms: C12_17  and  C13_18 
REMARK    4  A    between atoms: N4_21  and  S1_22 
ROOT
HETATM    1  C2  UNL     1      24.499  16.700  30.957  1.00  0.00     0.075 A 
HETATM    2  C3  UNL     1      25.540  16.318  30.170  1.00  0.00     0.038 A 
HETATM    3  C4  UNL     1      25.980  15.036  30.234  1.00  0.00     0.015 A 
HETATM    4  C5  UNL     1      25.358  14.156  31.095  1.00  0.00    -0.025 A 
HETATM    5  C6  UNL     1      25.871  12.864  31.172  1.00  0.00     0.013 A 
HETATM    6  C7  UNL     1      25.322  11.972  32.067  1.00  0.00     0.015 A 
HETATM    7  C8  UNL     1      24.287  12.294  32.883  1.00  0.00     0.005 A 
HETATM    8  C10 UNL     1      23.789  13.601  32.777  1.00  0.00     0.027 A 
HETATM    9  C11 UNL     1      24.282  14.550  31.910  1.00  0.00    -0.015 A 
HETATM   10  C12 UNL     1      23.817  15.842  31.862  1.00  0.00    -0.007 A 
ENDROOT
BRANCH  10  11
HETATM   11  C13 UNL     1      22.798  16.383  32.740  1.00  0.00     0.054 C 
HETATM   12  C14 UNL     1      23.063  16.838  34.115  1.00  0.00     0.140 C 
HETATM   13  N3  UNL     1      21.668  17.104  34.596  1.00  0.00    -0.150 NA
HETATM   14  N4  UNL     1      20.804  16.359  33.903  1.00  0.00    -0.125 NA
HETATM   15  C16 UNL     1      21.533  15.606  32.876  1.00  0.00     0.138 C 
BRANCH  14  16
HETATM   16  S1  UNL     1      19.415  17.154  33.340  1.00  0.00     0.222 S 
HETATM   17  C15 UNL     1      19.609  18.909  33.679  1.00  0.00     0.181 C 
HETATM   18  O2  UNL     1      19.283  17.010  31.845  1.00  0.00    -0.210 OA
HETATM   19  O3  UNL     1      18.164  16.619  33.947  1.00  0.00    -0.210 OA
ENDBRANCH  14  16
ENDBRANCH  10  11
BRANCH   1  20
HETATM   20  O1  UNL     1      24.066  18.003  30.872  1.00  0.00    -0.355 OA
HETATM   21  C1  UNL     1      24.539  19.042  30.117  1.00  0.00     0.210 C 
ENDBRANCH   1  20
BRANCH   7  22
HETATM   22  C9  UNL     1      23.739  11.377  33.866  1.00  0.00     0.120 C 
HETATM   23  N1  UNL     1      22.362  11.112  33.939  1.00  0.00    -0.082 NA
HETATM   24  N2  UNL     1      24.549  10.775  34.669  1.00  0.00    -0.387 N 
ATOM     25  H22 UNL     1      25.549  10.967  34.616  1.00  0.00     0.157 HD
ATOM     26  H21 UNL     1      24.164  10.130  35.359  1.00  0.00     0.157 HD
ENDBRANCH   7  22
TORSDOF 4
ENDMDL
