MODEL 4
REMARK VINA RESULT: -7.606370010      4.717      6.579
REMARK  4 active torsions:
REMARK  status: ('A' for Active; 'I' for Inactive)
REMARK    1  A    between atoms: O1_2  and  C2_3 
REMARK    2  A    between atoms: C8_9  and  C9_10 
REMARK    3  A    between atoms: C12_17  and  C13_18 
REMARK    4  A    between atoms: N4_21  and  S1_22 
ROOT
HETATM    1  C2  UNL     1      24.792  16.506  31.069  1.00  0.00     0.075 A 
HETATM    2  C3  UNL     1      25.816  16.064  30.290  1.00  0.00     0.038 A 
HETATM    3  C4  UNL     1      26.174  14.757  30.350  1.00  0.00     0.015 A 
HETATM    4  C5  UNL     1      25.488  13.912  31.198  1.00  0.00    -0.025 A 
HETATM    5  C6  UNL     1      25.918  12.590  31.271  1.00  0.00     0.013 A 
HETATM    6  C7  UNL     1      25.304  11.728  32.153  1.00  0.00     0.015 A 
HETATM    7  C8  UNL     1      24.282  12.110  32.960  1.00  0.00     0.005 A 
HETATM    8  C10 UNL     1      23.868  13.446  32.858  1.00  0.00     0.027 A 
HETATM    9  C11 UNL     1      24.430  14.368  32.004  1.00  0.00    -0.015 A 
HETATM   10  C12 UNL     1      24.048  15.687  31.959  1.00  0.00    -0.007 A 
ENDROOT
BRANCH  10  11
HETATM   11  C13 UNL     1      23.054  16.285  32.830  1.00  0.00     0.054 C 
HETATM   12  C14 UNL     1      23.313  16.652  34.232  1.00  0.00     0.140 C 
HETATM   13  N3  UNL     1      21.934  17.031  34.682  1.00  0.00    -0.150 NA
HETATM   14  N4  UNL     1      21.027  16.403  33.930  1.00  0.00    -0.125 NA
HETATM   15  C16 UNL     1      21.717  15.628  32.892  1.00  0.00     0.138 C 
BRANCH  14  16
HETATM   16  S1  UNL     1      19.741  17.351  33.362  1.00  0.00     0.222 S 
HETATM   17  C15 UNL     1      19.186  16.652  31.801  1.00  0.00     0.181 C 
HETATM   18  O2  UNL     1      18.569  17.289  34.309  1.00  0.00    -0.210 OA
HETATM   19  O3  UNL     1      20.111  18.786  33.212  1.00  0.00    -0.210 OA
ENDBRANCH  14  16
ENDBRANCH  10  11
BRANCH   1  20
HETATM   20  O1  UNL     1      24.443  17.834  30.988  1.00  0.00    -0.355 OA
HETATM   21  C1  UNL     1      24.661  18.744  29.989  1.00  0.00     0.210 C 
ENDBRANCH   1  20
BRANCH   7  22
HETATM   22  C9  UNL     1      23.666  11.222  33.930  1.00  0.00     0.120 C 
HETATM   23  N1  UNL     1      22.282  10.989  33.940  1.00  0.00    -0.082 NA
HETATM   24  N2  UNL     1      24.422  10.617  34.782  1.00  0.00    -0.387 N 
ATOM     25  H22 UNL     1      25.428  10.787  34.775  1.00  0.00     0.157 HD
ATOM     26  H21 UNL     1      23.989   9.994  35.463  1.00  0.00     0.157 HD
ENDBRANCH   7  22
TORSDOF 4
ENDMDL
