MODEL 2
REMARK VINA RESULT: -9.589429114      1.527      1.961
REMARK  6 active torsions:
REMARK  status: ('A' for Active; 'I' for Inactive)
REMARK    1  A    between atoms: C16_18  and  O2_19 
REMARK    2  A    between atoms: C20_24  and  O3_25 
REMARK    3  A    between atoms: C20_24  and  C26_33 
REMARK    4  A    between atoms: O3_25  and  C21_26 
REMARK    5  A    between atoms: C21_26  and  C22_28 
REMARK    6  A    between atoms: C26_33  and  C27_35 
ROOT
HETATM    1  C1  UNL     1      -0.046  -7.381  22.631  1.00  0.00     0.013 C 
HETATM    2  C2  UNL     1      -1.410  -6.764  22.611  1.00  0.00     0.026 C 
HETATM    3  C3  UNL     1      -1.708  -6.368  24.068  1.00  0.00     0.013 C 
HETATM    4  C4  UNL     1      -2.304  -7.611  24.545  1.00  0.00     0.004 C 
HETATM    5  C5  UNL     1      -2.992  -7.658  25.860  1.00  0.00     0.018 C 
HETATM    6  C6  UNL     1      -1.983  -7.187  26.906  1.00  0.00     0.011 C 
HETATM    7  C7  UNL     1      -2.763  -7.159  28.201  1.00  0.00     0.036 C 
HETATM    8  C8  UNL     1      -3.325  -8.514  28.470  1.00  0.00    -0.066 C 
HETATM    9  C9  UNL     1      -3.135  -9.003  29.675  1.00  0.00     0.053 C 
HETATM   10  C10 UNL     1      -3.637 -10.296  30.029  1.00  0.00     0.149 C 
HETATM   11  O1  UNL     1      -3.258 -10.916  31.038  1.00  0.00    -0.293 OA
HETATM   12  C11 UNL     1      -4.657 -10.919  29.150  1.00  0.00     0.084 C 
HETATM   13  C12 UNL     1      -4.194 -10.687  27.724  1.00  0.00     0.023 C 
HETATM   14  C13 UNL     1      -4.066  -9.230  27.370  1.00  0.00     0.004 C 
HETATM   15  C14 UNL     1      -5.414  -8.559  27.280  1.00  0.00     0.022 C 
HETATM   16  C15 UNL     1      -3.240  -9.127  26.138  1.00  0.00     0.078 C 
HETATM   17 CL1  UNL     1      -1.609  -9.765  26.614  1.00  0.00    -0.115 Cl
HETATM   18  C16 UNL     1      -3.710  -9.934  25.002  1.00  0.00     0.144 C 
HETATM   19  C17 UNL     1      -3.190  -9.577  23.634  1.00  0.00     0.046 C 
HETATM   20  C18 UNL     1      -3.217  -8.073  23.427  1.00  0.00     0.002 C 
HETATM   21  C19 UNL     1      -4.641  -7.663  23.553  1.00  0.00     0.019 C 
HETATM   22  C20 UNL     1      -2.555  -7.602  22.164  1.00  0.00     0.143 C 
ENDROOT
BRANCH  22  23
HETATM   23  O3  UNL     1      -2.470  -8.444  21.133  1.00  0.00    -0.295 OA
BRANCH  23  24
HETATM   24  C21 UNL     1      -2.012  -9.617  20.765  1.00  0.00     0.318 C 
HETATM   25  O4  UNL     1      -0.808  -9.619  20.518  1.00  0.00    -0.257 OA
BRANCH  24  26
HETATM   26  C22 UNL     1      -2.822 -10.802  20.654  1.00  0.00     0.149 A 
HETATM   27  C23 UNL     1      -3.853 -10.946  19.741  1.00  0.00     0.045 A 
HETATM   28  C24 UNL     1      -4.387 -12.202  19.936  1.00  0.00     0.027 A 
HETATM   29  C25 UNL     1      -3.665 -12.781  20.957  1.00  0.00     0.143 A 
HETATM   30  O5  UNL     1      -2.774 -11.925  21.333  1.00  0.00    -0.317 OA
ENDBRANCH  24  26
ENDBRANCH  23  24
ENDBRANCH  22  23
BRANCH  22  31
HETATM   31  C26 UNL     1      -3.483  -6.538  21.558  1.00  0.00     0.176 C 
HETATM   32  O6  UNL     1      -3.082  -5.357  21.648  1.00  0.00    -0.293 OA
BRANCH  31  33
HETATM   33  C27 UNL     1      -4.753  -6.767  20.914  1.00  0.00     0.196 C 
HETATM   34 CL2  UNL     1      -5.067  -5.383  19.776  1.00  0.00    -0.122 Cl
ENDBRANCH  31  33
ENDBRANCH  22  31
BRANCH  18  35
HETATM   35  O2  UNL     1      -5.054 -10.315  25.016  1.00  0.00    -0.394 OA
ATOM     36  H2  UNL     1      -5.240 -11.216  25.254  1.00  0.00     0.210 HD
ENDBRANCH  18  35
TORSDOF 6
ENDMDL
