MODEL 10
REMARK VINA RESULT: -6.745952672      2.009      7.185
REMARK  6 active torsions:
REMARK  status: ('A' for Active; 'I' for Inactive)
REMARK    1  A    between atoms: C16_18  and  O2_19 
REMARK    2  A    between atoms: C20_24  and  O3_25 
REMARK    3  A    between atoms: C20_24  and  C26_33 
REMARK    4  A    between atoms: O3_25  and  C21_26 
REMARK    5  A    between atoms: C21_26  and  C22_28 
REMARK    6  A    between atoms: C26_33  and  C27_35 
ROOT
HETATM    1  C1  UNL     1      -2.810  -5.690  25.636  1.00  0.00     0.013 C 
HETATM    2  C2  UNL     1      -1.933  -6.868  25.926  1.00  0.00     0.026 C 
HETATM    3  C3  UNL     1      -1.316  -7.269  24.575  1.00  0.00     0.013 C 
HETATM    4  C4  UNL     1      -2.347  -8.185  24.096  1.00  0.00     0.004 C 
HETATM    5  C5  UNL     1      -2.096  -9.041  22.909  1.00  0.00     0.018 C 
HETATM    6  C6  UNL     1      -1.724  -8.108  21.759  1.00  0.00     0.011 C 
HETATM    7  C7  UNL     1      -1.385  -9.034  20.612  1.00  0.00     0.036 C 
HETATM    8  C8  UNL     1      -2.554  -9.913  20.323  1.00  0.00    -0.066 C 
HETATM    9  C9  UNL     1      -2.927 -10.004  19.067  1.00  0.00     0.053 C 
HETATM   10  C10 UNL     1      -4.039 -10.823  18.689  1.00  0.00     0.149 C 
HETATM   11  O1  UNL     1      -4.601 -10.733  17.584  1.00  0.00    -0.293 OA
HETATM   12  C11 UNL     1      -4.538 -11.824  19.665  1.00  0.00     0.084 C 
HETATM   13  C12 UNL     1      -4.574 -11.128  21.011  1.00  0.00     0.023 C 
HETATM   14  C13 UNL     1      -3.227 -10.635  21.463  1.00  0.00     0.004 C 
HETATM   15  C14 UNL     1      -2.309 -11.775  21.824  1.00  0.00     0.022 C 
HETATM   16  C15 UNL     1      -3.440  -9.644  22.551  1.00  0.00     0.078 C 
HETATM   17 CL1  UNL     1      -4.339  -8.275  21.768  1.00  0.00    -0.115 Cl
HETATM   18  C16 UNL     1      -4.261 -10.119  23.675  1.00  0.00     0.144 C 
HETATM   19  C17 UNL     1      -4.181  -9.349  24.967  1.00  0.00     0.046 C 
HETATM   20  C18 UNL     1      -2.739  -9.014  25.303  1.00  0.00     0.002 C 
HETATM   21  C19 UNL     1      -2.033 -10.316  25.441  1.00  0.00     0.019 C 
HETATM   22  C20 UNL     1      -2.565  -8.096  26.478  1.00  0.00     0.143 C 
ENDROOT
BRANCH  22  23
HETATM   23  O3  UNL     1      -3.522  -8.057  27.407  1.00  0.00    -0.295 OA
BRANCH  23  24
HETATM   24  C21 UNL     1      -4.556  -8.707  27.883  1.00  0.00     0.318 C 
HETATM   25  O4  UNL     1      -5.627  -8.353  27.394  1.00  0.00    -0.257 OA
BRANCH  24  26
HETATM   26  C22 UNL     1      -4.472  -9.740  28.882  1.00  0.00     0.149 A 
HETATM   27  C23 UNL     1      -5.493 -10.637  29.151  1.00  0.00     0.045 A 
HETATM   28  C24 UNL     1      -5.045 -11.464  30.158  1.00  0.00     0.027 A 
HETATM   29  C25 UNL     1      -3.768 -11.046  30.469  1.00  0.00     0.143 A 
HETATM   30  O5  UNL     1      -3.491 -10.047  29.700  1.00  0.00    -0.317 OA
ENDBRANCH  24  26
ENDBRANCH  23  24
ENDBRANCH  22  23
BRANCH  22  31
HETATM   31  C26 UNL     1      -1.412  -8.673  27.313  1.00  0.00     0.176 C 
HETATM   32  O6  UNL     1      -1.134  -8.044  28.358  1.00  0.00    -0.293 OA
BRANCH  31  33
HETATM   33  C27 UNL     1      -0.627  -9.845  27.007  1.00  0.00     0.196 C 
HETATM   34 CL2  UNL     1      -1.286 -11.235  27.979  1.00  0.00    -0.122 Cl
ENDBRANCH  31  33
ENDBRANCH  22  31
BRANCH  18  35
HETATM   35  O2  UNL     1      -4.354 -11.502  23.845  1.00  0.00    -0.394 OA
ATOM     36  H2  UNL     1      -5.229 -11.866  23.922  1.00  0.00     0.210 HD
ENDBRANCH  18  35
TORSDOF 6
ENDMDL
