MODEL 1
REMARK VINA RESULT: -11.156626954      0.000      0.000
REMARK  6 active torsions:
REMARK  status: ('A' for Active; 'I' for Inactive)
REMARK    1  A    between atoms: C16_18  and  O2_19 
REMARK    2  A    between atoms: C20_24  and  O3_25 
REMARK    3  A    between atoms: C20_24  and  C26_33 
REMARK    4  A    between atoms: O3_25  and  C21_26 
REMARK    5  A    between atoms: C21_26  and  C22_28 
REMARK    6  A    between atoms: C26_33  and  C27_35 
ROOT
HETATM    1  C1  UNL     1      -1.002 -10.789  21.701  1.00  0.00     0.013 C 
HETATM    2  C2  UNL     1      -0.946  -9.325  22.009  1.00  0.00     0.026 C 
HETATM    3  C3  UNL     1      -0.519  -9.227  23.483  1.00  0.00     0.013 C 
HETATM    4  C4  UNL     1      -1.828  -9.287  24.124  1.00  0.00     0.004 C 
HETATM    5  C5  UNL     1      -1.970  -8.982  25.570  1.00  0.00     0.018 C 
HETATM    6  C6  UNL     1      -1.035  -9.932  26.319  1.00  0.00     0.011 C 
HETATM    7  C7  UNL     1      -1.146  -9.511  27.767  1.00  0.00     0.036 C 
HETATM    8  C8  UNL     1      -2.571  -9.598  28.201  1.00  0.00    -0.066 C 
HETATM    9  C9  UNL     1      -2.805 -10.226  29.330  1.00  0.00     0.053 C 
HETATM   10  C10 UNL     1      -4.140 -10.362  29.830  1.00  0.00     0.149 C 
HETATM   11  O1  UNL     1      -4.448 -11.167  30.726  1.00  0.00    -0.293 OA
HETATM   12  C11 UNL     1      -5.199  -9.500  29.250  1.00  0.00     0.084 C 
HETATM   13  C12 UNL     1      -4.983  -9.507  27.749  1.00  0.00     0.023 C 
HETATM   14  C13 UNL     1      -3.638  -8.973  27.340  1.00  0.00     0.004 C 
HETATM   15  C14 UNL     1      -3.534  -7.487  27.574  1.00  0.00     0.022 C 
HETATM   16  C15 UNL     1      -3.381  -9.397  25.938  1.00  0.00     0.078 C 
HETATM   17 CL1  UNL     1      -3.302 -11.209  26.004  1.00  0.00    -0.115 Cl
HETATM   18  C16 UNL     1      -4.435  -9.041  24.975  1.00  0.00     0.144 C 
HETATM   19  C17 UNL     1      -4.076  -9.062  23.512  1.00  0.00     0.046 C 
HETATM   20  C18 UNL     1      -2.728  -8.404  23.282  1.00  0.00     0.002 C 
HETATM   21  C19 UNL     1      -2.866  -7.000  23.752  1.00  0.00     0.019 C 
HETATM   22  C20 UNL     1      -2.198  -8.532  21.883  1.00  0.00     0.143 C 
ENDROOT
BRANCH  22  23
HETATM   23  O3  UNL     1      -3.064  -8.709  20.884  1.00  0.00    -0.295 OA
BRANCH  23  24
HETATM   24  C21 UNL     1      -3.532  -9.596  20.039  1.00  0.00     0.318 C 
HETATM   25  O4  UNL     1      -3.594  -9.188  18.882  1.00  0.00    -0.257 OA
BRANCH  24  26
HETATM   26  C22 UNL     1      -3.939 -10.927  20.408  1.00  0.00     0.149 A 
HETATM   27  C23 UNL     1      -3.973 -11.994  19.525  1.00  0.00     0.045 A 
HETATM   28  C24 UNL     1      -4.410 -13.089  20.238  1.00  0.00     0.027 A 
HETATM   29  C25 UNL     1      -4.625 -12.657  21.529  1.00  0.00     0.143 A 
HETATM   30  O5  UNL     1      -4.336 -11.398  21.567  1.00  0.00    -0.317 OA
ENDBRANCH  24  26
ENDBRANCH  23  24
ENDBRANCH  22  23
BRANCH  22  31
HETATM   31  C26 UNL     1      -1.637  -7.153  21.503  1.00  0.00     0.176 C 
HETATM   32  O6  UNL     1      -0.420  -7.123  21.220  1.00  0.00    -0.293 OA
BRANCH  31  33
HETATM   33  C27 UNL     1      -2.367  -5.909  21.453  1.00  0.00     0.196 C 
HETATM   34 CL2  UNL     1      -2.754  -5.552  19.711  1.00  0.00    -0.122 Cl
ENDBRANCH  31  33
ENDBRANCH  22  31
BRANCH  18  35
HETATM   35  O2  UNL     1      -5.286  -7.993  25.334  1.00  0.00    -0.394 OA
ATOM     36  H2  UNL     1      -5.336  -7.258  24.734  1.00  0.00     0.210 HD
ENDBRANCH  18  35
TORSDOF 6
ENDMDL
