MODEL 12
REMARK VINA RESULT: -6.598094439      0.889      1.493
REMARK  6 active torsions:
REMARK  status: ('A' for Active; 'I' for Inactive)
REMARK    1  A    between atoms: C16_18  and  O2_19 
REMARK    2  A    between atoms: C20_24  and  O3_25 
REMARK    3  A    between atoms: C20_24  and  C26_33 
REMARK    4  A    between atoms: O3_25  and  C21_26 
REMARK    5  A    between atoms: C21_26  and  C22_28 
REMARK    6  A    between atoms: C26_33  and  C27_35 
ROOT
HETATM    1  C1  UNL     1      -0.520 -10.958  21.946  1.00  0.00     0.013 C 
HETATM    2  C2  UNL     1      -0.648  -9.478  22.132  1.00  0.00     0.026 C 
HETATM    3  C3  UNL     1      -0.315  -9.215  23.611  1.00  0.00     0.013 C 
HETATM    4  C4  UNL     1      -1.642  -9.380  24.196  1.00  0.00     0.004 C 
HETATM    5  C5  UNL     1      -1.895  -8.982  25.603  1.00  0.00     0.018 C 
HETATM    6  C6  UNL     1      -0.900  -9.753  26.469  1.00  0.00     0.011 C 
HETATM    7  C7  UNL     1      -1.135  -9.237  27.871  1.00  0.00     0.036 C 
HETATM    8  C8  UNL     1      -2.562  -9.458  28.247  1.00  0.00    -0.066 C 
HETATM    9  C9  UNL     1      -2.784 -10.019  29.414  1.00  0.00     0.053 C 
HETATM   10  C10 UNL     1      -4.119 -10.273  29.864  1.00  0.00     0.149 C 
HETATM   11  O1  UNL     1      -4.381 -11.036  30.810  1.00  0.00    -0.293 OA
HETATM   12  C11 UNL     1      -5.237  -9.590  29.167  1.00  0.00     0.084 C 
HETATM   13  C12 UNL     1      -4.941  -9.688  27.683  1.00  0.00     0.023 C 
HETATM   14  C13 UNL     1      -3.645  -9.032  27.290  1.00  0.00     0.004 C 
HETATM   15  C14 UNL     1      -3.725  -7.530  27.404  1.00  0.00     0.022 C 
HETATM   16  C15 UNL     1      -3.267  -9.531  25.941  1.00  0.00     0.078 C 
HETATM   17 CL1  UNL     1      -2.986 -11.310  26.162  1.00  0.00    -0.115 Cl
HETATM   18  C16 UNL     1      -4.302  -9.378  24.907  1.00  0.00     0.144 C 
HETATM   19  C17 UNL     1      -3.864  -9.471  23.468  1.00  0.00     0.046 C 
HETATM   20  C18 UNL     1      -2.590  -8.678  23.244  1.00  0.00     0.002 C 
HETATM   21  C19 UNL     1      -2.913  -7.267  23.588  1.00  0.00     0.019 C 
HETATM   22  C20 UNL     1      -1.974  -8.850  21.885  1.00  0.00     0.143 C 
ENDROOT
BRANCH  22  23
HETATM   23  O3  UNL     1      -2.760  -9.206  20.867  1.00  0.00    -0.295 OA
BRANCH  23  24
HETATM   24  C21 UNL     1      -3.365 -10.227  20.310  1.00  0.00     0.318 C 
HETATM   25  O4  UNL     1      -3.485 -11.195  21.057  1.00  0.00    -0.257 OA
BRANCH  24  26
HETATM   26  C22 UNL     1      -3.851 -10.237  18.955  1.00  0.00     0.149 A 
HETATM   27  C23 UNL     1      -4.003 -11.388  18.200  1.00  0.00     0.045 A 
HETATM   28  C24 UNL     1      -4.485 -10.999  16.969  1.00  0.00     0.027 A 
HETATM   29  C25 UNL     1      -4.613  -9.627  17.014  1.00  0.00     0.143 A 
HETATM   30  O5  UNL     1      -4.232  -9.243  18.186  1.00  0.00    -0.317 OA
ENDBRANCH  24  26
ENDBRANCH  23  24
ENDBRANCH  22  23
BRANCH  22  31
HETATM   31  C26 UNL     1      -1.556  -7.449  21.417  1.00  0.00     0.176 C 
HETATM   32  O6  UNL     1      -0.379  -7.344  21.008  1.00  0.00    -0.293 OA
BRANCH  31  33
HETATM   33  C27 UNL     1      -2.374  -6.260  21.411  1.00  0.00     0.196 C 
HETATM   34 CL2  UNL     1      -3.229  -6.171  19.808  1.00  0.00    -0.122 Cl
ENDBRANCH  31  33
ENDBRANCH  22  31
BRANCH  18  35
HETATM   35  O2  UNL     1      -5.285  -8.414  25.139  1.00  0.00    -0.394 OA
ATOM     36  H2  UNL     1      -5.780  -8.117  24.384  1.00  0.00     0.210 HD
ENDBRANCH  18  35
TORSDOF 6
ENDMDL
