MODEL 5
REMARK VINA RESULT: -8.465362073      1.326      1.482
REMARK  6 active torsions:
REMARK  status: ('A' for Active; 'I' for Inactive)
REMARK    1  A    between atoms: C16_18  and  O2_19 
REMARK    2  A    between atoms: C20_24  and  O3_25 
REMARK    3  A    between atoms: C20_24  and  C26_33 
REMARK    4  A    between atoms: O3_25  and  C21_26 
REMARK    5  A    between atoms: C21_26  and  C22_28 
REMARK    6  A    between atoms: C26_33  and  C27_35 
ROOT
HETATM    1  C1  UNL     1      -0.653  -9.442  20.938  1.00  0.00     0.013 C 
HETATM    2  C2  UNL     1      -1.315  -8.106  21.075  1.00  0.00     0.026 C 
HETATM    3  C3  UNL     1      -0.974  -7.617  22.493  1.00  0.00     0.013 C 
HETATM    4  C4  UNL     1      -2.080  -8.215  23.234  1.00  0.00     0.004 C 
HETATM    5  C5  UNL     1      -2.337  -7.825  24.643  1.00  0.00     0.018 C 
HETATM    6  C6  UNL     1      -1.050  -8.095  25.421  1.00  0.00     0.011 C 
HETATM    7  C7  UNL     1      -1.336  -7.590  26.817  1.00  0.00     0.036 C 
HETATM    8  C8  UNL     1      -2.531  -8.294  27.364  1.00  0.00    -0.066 C 
HETATM    9  C9  UNL     1      -2.417  -8.799  28.571  1.00  0.00     0.053 C 
HETATM   10  C10 UNL     1      -3.510  -9.494  29.182  1.00  0.00     0.149 C 
HETATM   11  O1  UNL     1      -3.376 -10.219  30.183  1.00  0.00    -0.293 OA
HETATM   12  C11 UNL     1      -4.862  -9.336  28.590  1.00  0.00     0.084 C 
HETATM   13  C12 UNL     1      -4.686  -9.440  27.087  1.00  0.00     0.023 C 
HETATM   14  C13 UNL     1      -3.777  -8.383  26.520  1.00  0.00     0.004 C 
HETATM   15  C14 UNL     1      -4.410  -7.016  26.579  1.00  0.00     0.022 C 
HETATM   16  C15 UNL     1      -3.362  -8.815  25.160  1.00  0.00     0.078 C 
HETATM   17 CL1  UNL     1      -2.408 -10.337  25.422  1.00  0.00    -0.115 Cl
HETATM   18  C16 UNL     1      -4.466  -9.145  24.246  1.00  0.00     0.144 C 
HETATM   19  C17 UNL     1      -4.158  -9.187  22.771  1.00  0.00     0.046 C 
HETATM   20  C18 UNL     1      -3.306  -7.997  22.368  1.00  0.00     0.002 C 
HETATM   21  C19 UNL     1      -4.107  -6.786  22.687  1.00  0.00     0.019 C 
HETATM   22  C20 UNL     1      -2.797  -8.040  20.956  1.00  0.00     0.143 C 
ENDROOT
BRANCH  22  23
HETATM   23  O3  UNL     1      -3.477  -8.746  20.051  1.00  0.00    -0.295 OA
BRANCH  23  24
HETATM   24  C21 UNL     1      -3.598  -9.938  19.518  1.00  0.00     0.318 C 
HETATM   25  O4  UNL     1      -3.587  -9.929  18.289  1.00  0.00    -0.257 OA
BRANCH  24  26
HETATM   26  C22 UNL     1      -3.733 -11.153  20.277  1.00  0.00     0.149 A 
HETATM   27  C23 UNL     1      -4.910 -11.876  20.370  1.00  0.00     0.045 A 
HETATM   28  C24 UNL     1      -4.649 -12.964  21.174  1.00  0.00     0.027 A 
HETATM   29  C25 UNL     1      -3.324 -12.871  21.543  1.00  0.00     0.143 A 
HETATM   30  O5  UNL     1      -2.846 -11.804  20.994  1.00  0.00    -0.317 OA
ENDBRANCH  24  26
ENDBRANCH  23  24
ENDBRANCH  22  23
BRANCH  22  31
HETATM   31  C26 UNL     1      -2.985  -6.627  20.384  1.00  0.00     0.176 C 
HETATM   32  O6  UNL     1      -2.265  -5.739  20.889  1.00  0.00    -0.293 OA
BRANCH  31  33
HETATM   33  C27 UNL     1      -3.904  -6.234  19.343  1.00  0.00     0.196 C 
HETATM   34 CL2  UNL     1      -5.170  -5.158  20.085  1.00  0.00    -0.122 Cl
ENDBRANCH  31  33
ENDBRANCH  22  31
BRANCH  18  35
HETATM   35  O2  UNL     1      -5.716  -8.600  24.548  1.00  0.00    -0.394 OA
ATOM     36  H2  UNL     1      -5.964  -7.811  24.079  1.00  0.00     0.210 HD
ENDBRANCH  18  35
TORSDOF 6
ENDMDL
