MODEL 11
REMARK VINA RESULT: -6.687957704      2.429      7.196
REMARK  6 active torsions:
REMARK  status: ('A' for Active; 'I' for Inactive)
REMARK    1  A    between atoms: C16_18  and  O2_19 
REMARK    2  A    between atoms: C20_24  and  O3_25 
REMARK    3  A    between atoms: C20_24  and  C26_33 
REMARK    4  A    between atoms: O3_25  and  C21_26 
REMARK    5  A    between atoms: C21_26  and  C22_28 
REMARK    6  A    between atoms: C26_33  and  C27_35 
ROOT
HETATM    1  C1  UNL     1      -3.150  -7.439  28.024  1.00  0.00     0.013 C 
HETATM    2  C2  UNL     1      -1.840  -7.872  27.441  1.00  0.00     0.026 C 
HETATM    3  C3  UNL     1      -1.562  -6.902  26.279  1.00  0.00     0.013 C 
HETATM    4  C4  UNL     1      -2.248  -7.606  25.201  1.00  0.00     0.004 C 
HETATM    5  C5  UNL     1      -2.061  -7.182  23.790  1.00  0.00     0.018 C 
HETATM    6  C6  UNL     1      -2.453  -5.707  23.714  1.00  0.00     0.011 C 
HETATM    7  C7  UNL     1      -2.150  -5.307  22.288  1.00  0.00     0.036 C 
HETATM    8  C8  UNL     1      -2.912  -6.184  21.353  1.00  0.00    -0.066 C 
HETATM    9  C9  UNL     1      -3.586  -5.584  20.398  1.00  0.00     0.053 C 
HETATM   10  C10 UNL     1      -4.349  -6.341  19.452  1.00  0.00     0.149 C 
HETATM   11  O1  UNL     1      -5.211  -5.831  18.715  1.00  0.00    -0.293 OA
HETATM   12  C11 UNL     1      -4.094  -7.799  19.349  1.00  0.00     0.084 C 
HETATM   13  C12 UNL     1      -3.983  -8.316  20.771  1.00  0.00     0.023 C 
HETATM   14  C13 UNL     1      -2.866  -7.678  21.550  1.00  0.00     0.004 C 
HETATM   15  C14 UNL     1      -1.514  -8.116  21.047  1.00  0.00     0.022 C 
HETATM   16  C15 UNL     1      -3.104  -7.942  22.994  1.00  0.00     0.078 C 
HETATM   17 CL1  UNL     1      -4.657  -7.086  23.378  1.00  0.00    -0.115 Cl
HETATM   18  C16 UNL     1      -3.287  -9.358  23.348  1.00  0.00     0.144 C 
HETATM   19  C17 UNL     1      -3.121  -9.739  24.796  1.00  0.00     0.046 C 
HETATM   20  C18 UNL     1      -1.896  -9.069  25.389  1.00  0.00     0.002 C 
HETATM   21  C19 UNL     1      -0.733  -9.554  24.598  1.00  0.00     0.019 C 
HETATM   22  C20 UNL     1      -1.742  -9.243  26.872  1.00  0.00     0.143 C 
ENDROOT
BRANCH  22  23
HETATM   23  O3  UNL     1      -2.303 -10.304  27.454  1.00  0.00    -0.295 OA
BRANCH  23  24
HETATM   24  C21 UNL     1      -3.179 -10.670  28.360  1.00  0.00     0.318 C 
HETATM   25  O4  UNL     1      -2.788 -11.586  29.079  1.00  0.00    -0.257 OA
BRANCH  24  26
HETATM   26  C22 UNL     1      -4.479 -10.071  28.515  1.00  0.00     0.149 A 
HETATM   27  C23 UNL     1      -5.378  -9.902  27.474  1.00  0.00     0.045 A 
HETATM   28  C24 UNL     1      -6.498  -9.301  28.007  1.00  0.00     0.027 A 
HETATM   29  C25 UNL     1      -6.247  -9.125  29.351  1.00  0.00     0.143 A 
HETATM   30  O5  UNL     1      -5.065  -9.589  29.586  1.00  0.00    -0.317 OA
ENDBRANCH  24  26
ENDBRANCH  23  24
ENDBRANCH  22  23
BRANCH  22  31
HETATM   31  C26 UNL     1      -0.259  -9.561  27.121  1.00  0.00     0.176 C 
HETATM   32  O6  UNL     1       0.191  -9.204  28.231  1.00  0.00    -0.293 OA
BRANCH  31  33
HETATM   33  C27 UNL     1       0.648 -10.212  26.208  1.00  0.00     0.196 C 
HETATM   34 CL2  UNL     1       2.347  -9.798  26.709  1.00  0.00    -0.122 Cl
ENDBRANCH  31  33
ENDBRANCH  22  31
BRANCH  18  35
HETATM   35  O2  UNL     1      -2.778 -10.300  22.452  1.00  0.00    -0.394 OA
ATOM     36  H2  UNL     1      -2.718 -11.197  22.761  1.00  0.00     0.210 HD
ENDBRANCH  18  35
TORSDOF 6
ENDMDL
