MODEL 6
REMARK VINA RESULT: -8.300171732      2.093      7.300
REMARK  6 active torsions:
REMARK  status: ('A' for Active; 'I' for Inactive)
REMARK    1  A    between atoms: C16_18  and  O2_19 
REMARK    2  A    between atoms: C20_24  and  O3_25 
REMARK    3  A    between atoms: C20_24  and  C26_33 
REMARK    4  A    between atoms: O3_25  and  C21_26 
REMARK    5  A    between atoms: C21_26  and  C22_28 
REMARK    6  A    between atoms: C26_33  and  C27_35 
ROOT
HETATM    1  C1  UNL     1      -4.052  -5.797  25.868  1.00  0.00     0.013 C 
HETATM    2  C2  UNL     1      -2.883  -6.708  26.082  1.00  0.00     0.026 C 
HETATM    3  C3  UNL     1      -2.219  -6.863  24.703  1.00  0.00     0.013 C 
HETATM    4  C4  UNL     1      -2.978  -7.998  24.190  1.00  0.00     0.004 C 
HETATM    5  C5  UNL     1      -2.540  -8.697  22.955  1.00  0.00     0.018 C 
HETATM    6  C6  UNL     1      -2.464  -7.643  21.851  1.00  0.00     0.011 C 
HETATM    7  C7  UNL     1      -1.921  -8.387  20.652  1.00  0.00     0.036 C 
HETATM    8  C8  UNL     1      -2.819  -9.534  20.332  1.00  0.00    -0.066 C 
HETATM    9  C9  UNL     1      -3.189  -9.661  19.078  1.00  0.00     0.053 C 
HETATM   10  C10 UNL     1      -4.050 -10.730  18.672  1.00  0.00     0.149 C 
HETATM   11  O1  UNL     1      -4.646 -10.742  17.581  1.00  0.00    -0.293 OA
HETATM   12  C11 UNL     1      -4.235 -11.875  19.599  1.00  0.00     0.084 C 
HETATM   13  C12 UNL     1      -4.419 -11.280  20.981  1.00  0.00     0.023 C 
HETATM   14  C13 UNL     1      -3.241 -10.464  21.440  1.00  0.00     0.004 C 
HETATM   15  C14 UNL     1      -2.041 -11.331  21.727  1.00  0.00     0.022 C 
HETATM   16  C15 UNL     1      -3.683  -9.621  22.583  1.00  0.00     0.078 C 
HETATM   17 CL1  UNL     1      -4.937  -8.510  21.888  1.00  0.00    -0.115 Cl
HETATM   18  C16 UNL     1      -4.314 -10.353  23.691  1.00  0.00     0.144 C 
HETATM   19  C17 UNL     1      -4.408  -9.654  25.022  1.00  0.00     0.046 C 
HETATM   20  C18 UNL     1      -3.100  -8.960  25.355  1.00  0.00     0.002 C 
HETATM   21  C19 UNL     1      -2.067 -10.028  25.414  1.00  0.00     0.019 C 
HETATM   22  C20 UNL     1      -3.146  -8.087  26.576  1.00  0.00     0.143 C 
ENDROOT
BRANCH  22  23
HETATM   23  O3  UNL     1      -4.052  -8.351  27.519  1.00  0.00    -0.295 OA
BRANCH  23  24
HETATM   24  C21 UNL     1      -4.202  -8.590  28.799  1.00  0.00     0.318 C 
HETATM   25  O4  UNL     1      -4.099  -7.586  29.501  1.00  0.00    -0.257 OA
BRANCH  24  26
HETATM   26  C22 UNL     1      -4.463  -9.892  29.354  1.00  0.00     0.149 A 
HETATM   27  C23 UNL     1      -3.535 -10.921  29.374  1.00  0.00     0.045 A 
HETATM   28  C24 UNL     1      -4.145 -11.998  29.978  1.00  0.00     0.027 A 
HETATM   29  C25 UNL     1      -5.420 -11.593  30.307  1.00  0.00     0.143 A 
HETATM   30  O5  UNL     1      -5.547 -10.367  29.922  1.00  0.00    -0.317 OA
ENDBRANCH  24  26
ENDBRANCH  23  24
ENDBRANCH  22  23
BRANCH  22  31
HETATM   31  C26 UNL     1      -1.858  -8.371  27.362  1.00  0.00     0.176 C 
HETATM   32  O6  UNL     1      -1.266  -7.365  27.812  1.00  0.00    -0.293 OA
BRANCH  31  33
HETATM   33  C27 UNL     1      -1.271  -9.664  27.619  1.00  0.00     0.196 C 
HETATM   34 CL2  UNL     1       0.483  -9.593  27.141  1.00  0.00    -0.122 Cl
ENDBRANCH  31  33
ENDBRANCH  22  31
BRANCH  18  35
HETATM   35  O2  UNL     1      -4.028 -11.717  23.787  1.00  0.00    -0.394 OA
ATOM     36  H2  UNL     1      -3.476 -11.989  24.512  1.00  0.00     0.210 HD
ENDBRANCH  18  35
TORSDOF 6
ENDMDL
