MODEL 3
REMARK VINA RESULT: -9.276924786      0.934      1.001
REMARK  6 active torsions:
REMARK  status: ('A' for Active; 'I' for Inactive)
REMARK    1  A    between atoms: C16_18  and  O2_19 
REMARK    2  A    between atoms: C20_24  and  O3_25 
REMARK    3  A    between atoms: C20_24  and  C26_33 
REMARK    4  A    between atoms: O3_25  and  C21_26 
REMARK    5  A    between atoms: C21_26  and  C22_28 
REMARK    6  A    between atoms: C26_33  and  C27_35 
ROOT
HETATM    1  C1  UNL     1      -1.176 -11.165  21.844  1.00  0.00     0.013 C 
HETATM    2  C2  UNL     1      -0.945  -9.720  22.163  1.00  0.00     0.026 C 
HETATM    3  C3  UNL     1      -0.578  -9.678  23.656  1.00  0.00     0.013 C 
HETATM    4  C4  UNL     1      -1.912  -9.568  24.236  1.00  0.00     0.004 C 
HETATM    5  C5  UNL     1      -2.080  -9.247  25.675  1.00  0.00     0.018 C 
HETATM    6  C6  UNL     1      -1.312 -10.309  26.461  1.00  0.00     0.011 C 
HETATM    7  C7  UNL     1      -1.434  -9.878  27.905  1.00  0.00     0.036 C 
HETATM    8  C8  UNL     1      -2.877  -9.780  28.272  1.00  0.00    -0.066 C 
HETATM    9  C9  UNL     1      -3.243 -10.372  29.386  1.00  0.00     0.053 C 
HETATM   10  C10 UNL     1      -4.606 -10.334  29.823  1.00  0.00     0.149 C 
HETATM   11  O1  UNL     1      -5.057 -11.092  30.699  1.00  0.00    -0.293 OA
HETATM   12  C11 UNL     1      -5.516  -9.341  29.200  1.00  0.00     0.084 C 
HETATM   13  C12 UNL     1      -5.233  -9.377  27.710  1.00  0.00     0.023 C 
HETATM   14  C13 UNL     1      -3.813  -9.021  27.366  1.00  0.00     0.004 C 
HETATM   15  C14 UNL     1      -3.529  -7.561  27.614  1.00  0.00     0.022 C 
HETATM   16  C15 UNL     1      -3.549  -9.475  25.975  1.00  0.00     0.078 C 
HETATM   17 CL1  UNL     1      -3.708 -11.282  26.034  1.00  0.00    -0.115 Cl
HETATM   18  C16 UNL     1      -4.502  -8.986  24.968  1.00  0.00     0.144 C 
HETATM   19  C17 UNL     1      -4.081  -9.054  23.523  1.00  0.00     0.046 C 
HETATM   20  C18 UNL     1      -2.650  -8.576  23.359  1.00  0.00     0.002 C 
HETATM   21  C19 UNL     1      -2.627  -7.165  23.830  1.00  0.00     0.019 C 
HETATM   22  C20 UNL     1      -2.077  -8.771  21.985  1.00  0.00     0.143 C 
ENDROOT
BRANCH  22  23
HETATM   23  O3  UNL     1      -2.911  -8.834  20.946  1.00  0.00    -0.295 OA
BRANCH  23  24
HETATM   24  C21 UNL     1      -3.477  -9.659  20.097  1.00  0.00     0.318 C 
HETATM   25  O4  UNL     1      -3.586  -9.197  18.963  1.00  0.00    -0.257 OA
BRANCH  24  26
HETATM   26  C22 UNL     1      -3.933 -10.981  20.436  1.00  0.00     0.149 A 
HETATM   27  C23 UNL     1      -3.955 -12.040  19.544  1.00  0.00     0.045 A 
HETATM   28  C24 UNL     1      -4.451 -13.129  20.228  1.00  0.00     0.027 A 
HETATM   29  C25 UNL     1      -4.714 -12.699  21.512  1.00  0.00     0.143 A 
HETATM   30  O5  UNL     1      -4.395 -11.450  21.573  1.00  0.00    -0.317 OA
ENDBRANCH  24  26
ENDBRANCH  23  24
ENDBRANCH  22  23
BRANCH  22  31
HETATM   31  C26 UNL     1      -1.325  -7.476  21.639  1.00  0.00     0.176 C 
HETATM   32  O6  UNL     1      -2.033  -6.450  21.542  1.00  0.00    -0.293 OA
BRANCH  31  33
HETATM   33  C27 UNL     1       0.093  -7.336  21.412  1.00  0.00     0.196 C 
HETATM   34 CL2  UNL     1       0.592  -8.577  20.180  1.00  0.00    -0.122 Cl
ENDBRANCH  31  33
ENDBRANCH  22  31
BRANCH  18  35
HETATM   35  O2  UNL     1      -5.226  -7.836  25.293  1.00  0.00    -0.394 OA
ATOM     36  H2  UNL     1      -5.273  -7.607  26.214  1.00  0.00     0.210 HD
ENDBRANCH  18  35
TORSDOF 6
ENDMDL
