MODEL 5
REMARK VINA RESULT: -8.810043639      1.662      6.778
REMARK  4 active torsions:
REMARK  status: ('A' for Active; 'I' for Inactive)
REMARK    1  A    between atoms: C4_4  and  N1_5 
REMARK    2  A    between atoms: N2_7  and  C5_9 
REMARK    3  A    between atoms: C10_14  and  C11_15 
REMARK    4  A    between atoms: C14_20  and  O3_21 
ROOT
HETATM    1  N1  UNL     1      31.949  12.872  -7.167  1.00  0.00    -0.300 N 
ATOM      2  H1  UNL     1      31.582  11.931  -7.308  1.00  0.00     0.187 HD
HETATM    3  N2  UNL     1      32.820  13.040  -6.287  1.00  0.00    -0.299 N 
ATOM      4  H2  UNL     1      33.184  13.983  -6.150  1.00  0.00     0.187 HD
ENDROOT
BRANCH   1   5
HETATM    5  C4  UNL     1      31.435  13.930  -7.993  1.00  0.00     0.048 A 
HETATM    6  C3  UNL     1      30.318  13.743  -8.778  1.00  0.00     0.040 A 
HETATM    7  C2  UNL     1      29.810  14.750  -9.577  1.00  0.00    -0.027 A 
HETATM    8  C1  UNL     1      28.602  14.559 -10.429  1.00  0.00     0.051 C 
HETATM    9  C14 UNL     1      30.442  15.988  -9.595  1.00  0.00     0.071 A 
HETATM   10  C13 UNL     1      31.561  16.177  -8.810  1.00  0.00     0.039 A 
HETATM   11  C12 UNL     1      32.040  15.168  -8.030  1.00  0.00     0.034 A 
BRANCH   9  12
HETATM   12  O3  UNL     1      29.913  16.986 -10.408  1.00  0.00    -0.360 OA
ATOM     13  H3  UNL     1      29.210  16.756 -11.005  1.00  0.00     0.217 HD
ENDBRANCH   9  12
ENDBRANCH   1   5
BRANCH   3  14
HETATM   14  C5  UNL     1      33.337  12.003  -5.463  1.00  0.00     0.065 A 
HETATM   15  C6  UNL     1      32.585  10.868  -5.195  1.00  0.00     0.032 A 
HETATM   16  C7  UNL     1      33.107   9.873  -4.394  1.00  0.00     0.002 A 
HETATM   17  C8  UNL     1      34.377  10.025  -3.867  1.00  0.00     0.001 A 
HETATM   18  C9  UNL     1      35.147  11.146  -4.120  1.00  0.00     0.021 A 
HETATM   19  C10 UNL     1      34.602  12.136  -4.929  1.00  0.00     0.068 A 
BRANCH  19  20
HETATM   20  C11 UNL     1      35.348  13.347  -5.243  1.00  0.00     0.211 C 
HETATM   21  O1  UNL     1      34.957  14.476  -4.905  1.00  0.00    -0.644 OA
HETATM   22  O2  UNL     1      36.544  13.262  -5.945  1.00  0.00    -0.644 OA
ENDBRANCH  19  20
ENDBRANCH   3  14
TORSDOF 4
ENDMDL
