MODEL 2
REMARK VINA RESULT: -9.161292643      0.933      1.671
REMARK  4 active torsions:
REMARK  status: ('A' for Active; 'I' for Inactive)
REMARK    1  A    between atoms: C4_4  and  N1_5 
REMARK    2  A    between atoms: N2_7  and  C5_9 
REMARK    3  A    between atoms: C10_14  and  C11_15 
REMARK    4  A    between atoms: C14_20  and  O3_21 
ROOT
HETATM    1  N1  UNL     1      31.592  12.776  -7.160  1.00  0.00    -0.300 N 
ATOM      2  H1  UNL     1      30.652  12.464  -6.917  1.00  0.00     0.187 HD
HETATM    3  N2  UNL     1      31.758  13.345  -8.260  1.00  0.00    -0.299 N 
ATOM      4  H2  UNL     1      32.700  13.656  -8.498  1.00  0.00     0.187 HD
ENDROOT
BRANCH   1   5
HETATM    5  C4  UNL     1      32.650  12.537  -6.217  1.00  0.00     0.048 A 
HETATM    6  C3  UNL     1      32.528  11.575  -5.238  1.00  0.00     0.040 A 
HETATM    7  C2  UNL     1      33.536  11.331  -4.324  1.00  0.00    -0.027 A 
HETATM    8  C1  UNL     1      33.415  10.292  -3.262  1.00  0.00     0.051 C 
HETATM    9  C14 UNL     1      34.707  12.077  -4.388  1.00  0.00     0.071 A 
HETATM   10  C13 UNL     1      34.831  13.042  -5.367  1.00  0.00     0.039 A 
HETATM   11  C12 UNL     1      33.822  13.261  -6.257  1.00  0.00     0.034 A 
BRANCH   9  12
HETATM   12  O3  UNL     1      35.707  11.815  -3.457  1.00  0.00    -0.360 OA
ATOM     13  H3  UNL     1      35.999  12.526  -2.897  1.00  0.00     0.217 HD
ENDBRANCH   9  12
ENDBRANCH   1   5
BRANCH   3  14
HETATM   14  C5  UNL     1      30.721  13.588  -9.201  1.00  0.00     0.065 A 
HETATM   15  C6  UNL     1      30.022  12.535  -9.775  1.00  0.00     0.032 A 
HETATM   16  C7  UNL     1      29.019  12.795 -10.686  1.00  0.00     0.002 A 
HETATM   17  C8  UNL     1      28.726  14.105 -11.015  1.00  0.00     0.001 A 
HETATM   18  C9  UNL     1      29.407  15.172 -10.458  1.00  0.00     0.021 A 
HETATM   19  C10 UNL     1      30.414  14.889  -9.543  1.00  0.00     0.068 A 
BRANCH  19  20
HETATM   20  C11 UNL     1      31.179  15.956  -8.910  1.00  0.00     0.211 C 
HETATM   21  O1  UNL     1      32.101  15.729  -8.111  1.00  0.00    -0.644 OA
HETATM   22  O2  UNL     1      30.885  17.283  -9.198  1.00  0.00    -0.644 OA
ENDBRANCH  19  20
ENDBRANCH   3  14
TORSDOF 4
ENDMDL
