MODEL 3
REMARK VINA RESULT: -8.884623028      1.686      6.521
REMARK  4 active torsions:
REMARK  status: ('A' for Active; 'I' for Inactive)
REMARK    1  A    between atoms: C4_4  and  N1_5 
REMARK    2  A    between atoms: N2_7  and  C5_9 
REMARK    3  A    between atoms: C10_14  and  C11_15 
REMARK    4  A    between atoms: C14_20  and  O3_21 
ROOT
HETATM    1  N1  UNL     1      31.787  12.400  -7.377  1.00  0.00    -0.300 N 
ATOM      2  H1  UNL     1      32.059  11.461  -7.665  1.00  0.00     0.187 HD
HETATM    3  N2  UNL     1      32.055  12.761  -6.211  1.00  0.00    -0.299 N 
ATOM      4  H2  UNL     1      31.781  13.701  -5.928  1.00  0.00     0.187 HD
ENDROOT
BRANCH   1   5
HETATM    5  C4  UNL     1      31.117  13.236  -8.336  1.00  0.00     0.048 A 
HETATM    6  C3  UNL     1      31.296  14.603  -8.338  1.00  0.00     0.040 A 
HETATM    7  C2  UNL     1      30.660  15.421  -9.252  1.00  0.00    -0.027 A 
HETATM    8  C1  UNL     1      30.846  16.900  -9.264  1.00  0.00     0.051 C 
HETATM    9  C14 UNL     1      29.814  14.854 -10.198  1.00  0.00     0.071 A 
HETATM   10  C13 UNL     1      29.633  13.486 -10.198  1.00  0.00     0.039 A 
HETATM   11  C12 UNL     1      30.273  12.702  -9.286  1.00  0.00     0.034 A 
BRANCH   9  12
HETATM   12  O3  UNL     1      29.183  15.698 -11.108  1.00  0.00    -0.360 OA
ATOM     13  H3  UNL     1      29.687  16.410 -11.485  1.00  0.00     0.217 HD
ENDBRANCH   9  12
ENDBRANCH   1   5
BRANCH   3  14
HETATM   14  C5  UNL     1      32.718  11.945  -5.253  1.00  0.00     0.065 A 
HETATM   15  C6  UNL     1      32.060  10.883  -4.649  1.00  0.00     0.032 A 
HETATM   16  C7  UNL     1      32.722  10.104  -3.722  1.00  0.00     0.002 A 
HETATM   17  C8  UNL     1      34.036  10.397  -3.408  1.00  0.00     0.001 A 
HETATM   18  C9  UNL     1      34.714  11.450  -3.995  1.00  0.00     0.021 A 
HETATM   19  C10 UNL     1      34.029  12.222  -4.926  1.00  0.00     0.068 A 
BRANCH  19  20
HETATM   20  C11 UNL     1      34.671  13.349  -5.590  1.00  0.00     0.211 C 
HETATM   21  O1  UNL     1      34.169  13.915  -6.573  1.00  0.00    -0.644 OA
HETATM   22  O2  UNL     1      35.889  13.825  -5.122  1.00  0.00    -0.644 OA
ENDBRANCH  19  20
ENDBRANCH   3  14
TORSDOF 4
ENDMDL
