MODEL 4
REMARK VINA RESULT: -8.851513031      1.643      2.435
REMARK  4 active torsions:
REMARK  status: ('A' for Active; 'I' for Inactive)
REMARK    1  A    between atoms: C4_4  and  N1_5 
REMARK    2  A    between atoms: N2_7  and  C5_9 
REMARK    3  A    between atoms: C10_14  and  C11_15 
REMARK    4  A    between atoms: C14_20  and  O3_21 
ROOT
HETATM    1  N1  UNL     1      32.031  13.539  -6.658  1.00  0.00    -0.300 N 
ATOM      2  H1  UNL     1      31.109  13.803  -6.310  1.00  0.00     0.187 HD
HETATM    3  N2  UNL     1      32.482  14.147  -7.653  1.00  0.00    -0.299 N 
ATOM      4  H2  UNL     1      33.404  13.879  -7.997  1.00  0.00     0.187 HD
ENDROOT
BRANCH   1   5
HETATM    5  C4  UNL     1      32.738  12.490  -5.976  1.00  0.00     0.048 A 
HETATM    6  C3  UNL     1      34.022  12.680  -5.512  1.00  0.00     0.040 A 
HETATM    7  C2  UNL     1      34.715  11.683  -4.854  1.00  0.00    -0.027 A 
HETATM    8  C1  UNL     1      36.103  11.878  -4.347  1.00  0.00     0.051 C 
HETATM    9  C14 UNL     1      34.107  10.449  -4.654  1.00  0.00     0.071 A 
HETATM   10  C13 UNL     1      32.821  10.256  -5.118  1.00  0.00     0.039 A 
HETATM   11  C12 UNL     1      32.159  11.257  -5.763  1.00  0.00     0.034 A 
BRANCH   9  12
HETATM   12  O3  UNL     1      34.825   9.459  -3.990  1.00  0.00    -0.360 OA
ATOM     13  H3  UNL     1      34.473   9.116  -3.177  1.00  0.00     0.217 HD
ENDBRANCH   9  12
ENDBRANCH   1   5
BRANCH   3  14
HETATM   14  C5  UNL     1      31.794  15.186  -8.337  1.00  0.00     0.065 A 
HETATM   15  C6  UNL     1      32.272  16.489  -8.312  1.00  0.00     0.032 A 
HETATM   16  C7  UNL     1      31.588  17.482  -8.983  1.00  0.00     0.002 A 
HETATM   17  C8  UNL     1      30.433  17.162  -9.672  1.00  0.00     0.001 A 
HETATM   18  C9  UNL     1      29.936  15.872  -9.711  1.00  0.00     0.021 A 
HETATM   19  C10 UNL     1      30.640  14.886  -9.029  1.00  0.00     0.068 A 
BRANCH  19  20
HETATM   20  C11 UNL     1      30.183  13.503  -9.022  1.00  0.00     0.211 C 
HETATM   21  O1  UNL     1      29.030  13.185  -8.692  1.00  0.00    -0.644 OA
HETATM   22  O2  UNL     1      31.052  12.485  -9.395  1.00  0.00    -0.644 OA
ENDBRANCH  19  20
ENDBRANCH   3  14
TORSDOF 4
ENDMDL
