MODEL 1
REMARK VINA RESULT: -9.270246791      0.000      0.000
REMARK  4 active torsions:
REMARK  status: ('A' for Active; 'I' for Inactive)
REMARK    1  A    between atoms: C4_4  and  N1_5 
REMARK    2  A    between atoms: N2_7  and  C5_9 
REMARK    3  A    between atoms: C10_14  and  C11_15 
REMARK    4  A    between atoms: C14_20  and  O3_21 
ROOT
HETATM    1  N1  UNL     1      31.254  12.697  -6.885  1.00  0.00    -0.300 N 
ATOM      2  H1  UNL     1      30.300  12.827  -6.548  1.00  0.00     0.187 HD
HETATM    3  N2  UNL     1      31.540  13.120  -8.025  1.00  0.00    -0.299 N 
ATOM      4  H2  UNL     1      32.495  12.988  -8.358  1.00  0.00     0.187 HD
ENDROOT
BRANCH   1   5
HETATM    5  C4  UNL     1      32.194  12.036  -6.021  1.00  0.00     0.048 A 
HETATM    6  C3  UNL     1      33.453  12.556  -5.807  1.00  0.00     0.040 A 
HETATM    7  C2  UNL     1      34.368  11.935  -4.979  1.00  0.00    -0.027 A 
HETATM    8  C1  UNL     1      35.731  12.488  -4.740  1.00  0.00     0.051 C 
HETATM    9  C14 UNL     1      34.016  10.750  -4.344  1.00  0.00     0.071 A 
HETATM   10  C13 UNL     1      32.756  10.227  -4.557  1.00  0.00     0.039 A 
HETATM   11  C12 UNL     1      31.872  10.861  -5.377  1.00  0.00     0.034 A 
BRANCH   9  12
HETATM   12  O3  UNL     1      34.955  10.141  -3.516  1.00  0.00    -0.360 OA
ATOM     13  H3  UNL     1      34.852   9.216  -3.322  1.00  0.00     0.217 HD
ENDBRANCH   9  12
ENDBRANCH   1   5
BRANCH   3  14
HETATM   14  C5  UNL     1      30.621  13.775  -8.890  1.00  0.00     0.065 A 
HETATM   15  C6  UNL     1      29.585  13.072  -9.488  1.00  0.00     0.032 A 
HETATM   16  C7  UNL     1      28.704  13.729 -10.324  1.00  0.00     0.002 A 
HETATM   17  C8  UNL     1      28.870  15.082 -10.553  1.00  0.00     0.001 A 
HETATM   18  C9  UNL     1      29.894  15.805  -9.969  1.00  0.00     0.021 A 
HETATM   19  C10 UNL     1      30.770  15.125  -9.132  1.00  0.00     0.068 A 
BRANCH  19  20
HETATM   20  C11 UNL     1      31.875  15.814  -8.478  1.00  0.00     0.211 C 
HETATM   21  O1  UNL     1      32.612  15.254  -7.651  1.00  0.00    -0.644 OA
HETATM   22  O2  UNL     1      32.134  17.146  -8.776  1.00  0.00    -0.644 OA
ENDBRANCH  19  20
ENDBRANCH   3  14
TORSDOF 4
ENDMDL
