MODEL 5
REMARK VINA RESULT: -5.612599944      1.090      4.952
REMARK  2 active torsions:
REMARK  status: ('A' for Active; 'I' for Inactive)
REMARK    1  A    between atoms: O1_2  and  C2_3 
REMARK    2  A    between atoms: C5_6  and  C6_7 
ROOT
HETATM    1  C2  UNL     1      50.905  32.524   3.375  1.00  0.00     0.068 A 
HETATM    2  C3  UNL     1      50.288  31.662   2.519  1.00  0.00     0.038 A 
HETATM    3  C4  UNL     1      48.951  31.306   2.646  1.00  0.00     0.021 A 
HETATM    4  C5  UNL     1      48.201  31.837   3.671  1.00  0.00     0.041 A 
HETATM    5  C7  UNL     1      48.833  32.708   4.532  1.00  0.00     0.021 A 
HETATM    6  C8  UNL     1      50.163  33.060   4.406  1.00  0.00     0.038 A 
ENDROOT
BRANCH   4   7
HETATM    7  C6  UNL     1      46.799  31.474   3.818  1.00  0.00     0.209 C 
HETATM    8  O2  UNL     1      45.944  31.983   3.050  1.00  0.00    -0.644 OA
HETATM    9  O3  UNL     1      46.355  30.581   4.781  1.00  0.00    -0.644 OA
ENDBRANCH   4   7
BRANCH   1  10
HETATM   10  O1  UNL     1      52.241  32.874   3.242  1.00  0.00    -0.356 OA
HETATM   11  C1  UNL     1      52.678  34.155   3.701  1.00  0.00     0.210 C 
ENDBRANCH   1  10
TORSDOF 2
ENDMDL
