MODEL 7
REMARK VINA RESULT: -5.478800822      0.902      4.696
REMARK  2 active torsions:
REMARK  status: ('A' for Active; 'I' for Inactive)
REMARK    1  A    between atoms: O1_2  and  C2_3 
REMARK    2  A    between atoms: C5_6  and  C6_7 
ROOT
HETATM    1  C2  UNL     1      51.183  33.205   2.969  1.00  0.00     0.068 A 
HETATM    2  C3  UNL     1      50.474  33.426   4.113  1.00  0.00     0.038 A 
HETATM    3  C4  UNL     1      49.360  32.675   4.463  1.00  0.00     0.021 A 
HETATM    4  C5  UNL     1      48.938  31.659   3.635  1.00  0.00     0.041 A 
HETATM    5  C7  UNL     1      49.660  31.442   2.481  1.00  0.00     0.021 A 
HETATM    6  C8  UNL     1      50.767  32.191   2.134  1.00  0.00     0.038 A 
ENDROOT
BRANCH   4   7
HETATM    7  C6  UNL     1      47.772  30.862   3.988  1.00  0.00     0.209 C 
HETATM    8  O2  UNL     1      46.622  31.347   3.842  1.00  0.00    -0.644 OA
HETATM    9  O3  UNL     1      47.871  29.571   4.486  1.00  0.00    -0.644 OA
ENDBRANCH   4   7
BRANCH   1  10
HETATM   10  O1  UNL     1      52.294  33.960   2.627  1.00  0.00    -0.356 OA
HETATM   11  C1  UNL     1      53.194  34.386   3.652  1.00  0.00     0.210 C 
ENDBRANCH   1  10
TORSDOF 2
ENDMDL
