MODEL 4
REMARK VINA RESULT: -5.632549347      1.033      4.639
REMARK  2 active torsions:
REMARK  status: ('A' for Active; 'I' for Inactive)
REMARK    1  A    between atoms: O1_2  and  C2_3 
REMARK    2  A    between atoms: C5_6  and  C6_7 
ROOT
HETATM    1  C2  UNL     1      50.998  32.604   3.348  1.00  0.00     0.068 A 
HETATM    2  C3  UNL     1      50.223  33.088   4.360  1.00  0.00     0.038 A 
HETATM    3  C4  UNL     1      48.895  32.720   4.531  1.00  0.00     0.021 A 
HETATM    4  C5  UNL     1      48.318  31.830   3.652  1.00  0.00     0.041 A 
HETATM    5  C7  UNL     1      49.108  31.346   2.632  1.00  0.00     0.021 A 
HETATM    6  C8  UNL     1      50.429  31.713   2.464  1.00  0.00     0.038 A 
ENDROOT
BRANCH   4   7
HETATM    7  C6  UNL     1      46.927  31.435   3.817  1.00  0.00     0.209 C 
HETATM    8  O2  UNL     1      46.631  30.541   4.650  1.00  0.00    -0.644 OA
HETATM    9  O3  UNL     1      45.896  32.006   3.086  1.00  0.00    -0.644 OA
ENDBRANCH   4   7
BRANCH   1  10
HETATM   10  O1  UNL     1      52.324  32.976   3.185  1.00  0.00    -0.356 OA
HETATM   11  C1  UNL     1      52.785  34.198   3.765  1.00  0.00     0.210 C 
ENDBRANCH   1  10
TORSDOF 2
ENDMDL
