MODEL 4
REMARK VINA RESULT: -5.454064014      0.951      2.456
REMARK  1 active torsions:
REMARK  status: ('A' for Active; 'I' for Inactive)
REMARK    1  A    between atoms: C6_7  and  C7_8 
ROOT
HETATM    1  C1  UNL     1      13.063   1.943  13.381  1.00  0.00     0.273 C 
HETATM    2  N1  UNL     1      13.585   2.077  14.751  1.00  0.00    -0.061 N 
HETATM    3  C2  UNL     1      14.582   1.079  14.936  1.00  0.00     0.273 C 
HETATM    4  C3  UNL     1      12.476   1.794  15.643  1.00  0.00     0.237 C 
HETATM    5  C4  UNL     1      12.124   3.094  16.329  1.00  0.00     0.030 C 
HETATM    6  C5  UNL     1      13.506   3.760  16.393  1.00  0.00     0.046 C 
HETATM    7  C6  UNL     1      13.975   3.424  14.965  1.00  0.00     0.289 C 
ENDROOT
BRANCH   7   8
HETATM    8  C7  UNL     1      15.383   3.752  14.771  1.00  0.00     0.205 C 
HETATM    9  O1  UNL     1      16.122   4.087  15.722  1.00  0.00    -0.646 OA
HETATM   10  O2  UNL     1      15.945   3.698  13.506  1.00  0.00    -0.646 OA
ENDBRANCH   7   8
TORSDOF 1
ENDMDL
