MODEL 6
REMARK VINA RESULT: -5.257658288      1.220      2.521
REMARK  1 active torsions:
REMARK  status: ('A' for Active; 'I' for Inactive)
REMARK    1  A    between atoms: C6_7  and  C7_8 
ROOT
HETATM    1  C1  UNL     1      12.029   1.833  15.546  1.00  0.00     0.273 C 
HETATM    2  N1  UNL     1      13.413   2.261  15.810  1.00  0.00    -0.061 N 
HETATM    3  C2  UNL     1      14.238   1.102  15.789  1.00  0.00     0.273 C 
HETATM    4  C3  UNL     1      13.424   2.813  17.152  1.00  0.00     0.237 C 
HETATM    5  C4  UNL     1      13.663   4.299  17.012  1.00  0.00     0.030 C 
HETATM    6  C5  UNL     1      14.544   4.323  15.756  1.00  0.00     0.046 C 
HETATM    7  C6  UNL     1      13.750   3.308  14.913  1.00  0.00     0.289 C 
ENDROOT
BRANCH   7   8
HETATM    8  C7  UNL     1      14.466   2.941  13.697  1.00  0.00     0.205 C 
HETATM    9  O1  UNL     1      13.906   2.338  12.756  1.00  0.00    -0.646 OA
HETATM   10  O2  UNL     1      15.807   3.257  13.552  1.00  0.00    -0.646 OA
ENDBRANCH   7   8
TORSDOF 1
ENDMDL
