MODEL 7
REMARK VINA RESULT: -5.236158630      1.625      2.874
REMARK  1 active torsions:
REMARK  status: ('A' for Active; 'I' for Inactive)
REMARK    1  A    between atoms: C6_7  and  C7_8 
ROOT
HETATM    1  C1  UNL     1      13.718   2.507  13.603  1.00  0.00     0.273 C 
HETATM    2  N1  UNL     1      14.365   2.848  14.880  1.00  0.00    -0.061 N 
HETATM    3  C2  UNL     1      15.747   3.066  14.623  1.00  0.00     0.273 C 
HETATM    4  C3  UNL     1      14.231   1.682  15.734  1.00  0.00     0.237 C 
HETATM    5  C4  UNL     1      13.277   2.060  16.844  1.00  0.00     0.030 C 
HETATM    6  C5  UNL     1      13.594   3.555  16.988  1.00  0.00     0.046 C 
HETATM    7  C6  UNL     1      13.648   3.911  15.491  1.00  0.00     0.289 C 
ENDROOT
BRANCH   7   8
HETATM    8  C7  UNL     1      14.149   5.264  15.277  1.00  0.00     0.205 C 
HETATM    9  O1  UNL     1      14.302   6.070  16.221  1.00  0.00    -0.646 OA
HETATM   10  O2  UNL     1      14.471   5.697  14.001  1.00  0.00    -0.646 OA
ENDBRANCH   7   8
TORSDOF 1
ENDMDL
