MODEL 2
REMARK VINA RESULT: -6.535246483      0.061      1.010
REMARK  1 active torsions:
REMARK  status: ('A' for Active; 'I' for Inactive)
REMARK    1  A    between atoms: C6_7  and  C7_8 
ROOT
HETATM    1  C1  UNL     1      13.796   2.492  17.359  1.00  0.00     0.273 C 
HETATM    2  N1  UNL     1      13.456   2.941  15.999  1.00  0.00    -0.061 N 
HETATM    3  C2  UNL     1      13.256   4.349  16.043  1.00  0.00     0.273 C 
HETATM    4  C3  UNL     1      12.197   2.305  15.659  1.00  0.00     0.237 C 
HETATM    5  C4  UNL     1      12.494   1.300  14.570  1.00  0.00     0.030 C 
HETATM    6  C5  UNL     1      13.654   2.003  13.851  1.00  0.00     0.046 C 
HETATM    7  C6  UNL     1      14.438   2.458  15.096  1.00  0.00     0.289 C 
ENDROOT
BRANCH   7   8
HETATM    8  C7  UNL     1      15.527   3.362  14.745  1.00  0.00     0.205 C 
HETATM    9  O1  UNL     1      16.185   3.975  15.615  1.00  0.00    -0.646 OA
HETATM   10  O2  UNL     1      15.865   3.569  13.418  1.00  0.00    -0.646 OA
ENDBRANCH   7   8
TORSDOF 1
ENDMDL
