MODEL 1
REMARK VINA RESULT: -6.600075313      0.000      0.000
REMARK  1 active torsions:
REMARK  status: ('A' for Active; 'I' for Inactive)
REMARK    1  A    between atoms: C6_7  and  C7_8 
ROOT
HETATM    1  C1  UNL     1      13.821   2.473  17.324  1.00  0.00     0.273 C 
HETATM    2  N1  UNL     1      13.451   2.920  15.971  1.00  0.00    -0.061 N 
HETATM    3  C2  UNL     1      13.245   4.327  16.019  1.00  0.00     0.273 C 
HETATM    4  C3  UNL     1      12.189   2.278  15.656  1.00  0.00     0.237 C 
HETATM    5  C4  UNL     1      12.469   1.275  14.561  1.00  0.00     0.030 C 
HETATM    6  C5  UNL     1      13.611   1.984  13.819  1.00  0.00     0.046 C 
HETATM    7  C6  UNL     1      14.418   2.442  15.048  1.00  0.00     0.289 C 
ENDROOT
BRANCH   7   8
HETATM    8  C7  UNL     1      15.495   3.353  14.676  1.00  0.00     0.205 C 
HETATM    9  O1  UNL     1      15.776   3.592  13.481  1.00  0.00    -0.646 OA
HETATM   10  O2  UNL     1      16.245   3.985  15.654  1.00  0.00    -0.646 OA
ENDBRANCH   7   8
TORSDOF 1
ENDMDL
