MODEL 4
REMARK VINA RESULT: -5.077849048      0.090      1.420
REMARK  2 active torsions:
REMARK  status: ('A' for Active; 'I' for Inactive)
REMARK    1  A    between atoms: N1_2  and  C4_5 
REMARK    2  A    between atoms: C4_5  and  C5_6 
ROOT
HETATM    1  C1  UNL     1      15.414  19.027  13.878  1.00  0.00     0.272 C 
HETATM    2  N1  UNL     1      14.647  19.219  12.644  1.00  0.00    -0.069 N 
HETATM    3  C2  UNL     1      13.494  18.368  12.682  1.00  0.00     0.272 C 
HETATM    4  C3  UNL     1      14.251  20.604  12.517  1.00  0.00     0.272 C 
ENDROOT
BRANCH   2   5
HETATM    5  C4  UNL     1      15.553  18.918  11.556  1.00  0.00     0.348 C 
BRANCH   5   6
HETATM    6  C5  UNL     1      15.694  17.445  11.375  1.00  0.00     0.199 C 
HETATM    7  O1  UNL     1      16.544  16.786  12.029  1.00  0.00    -0.647 OA
HETATM    8  O2  UNL     1      14.904  16.733  10.484  1.00  0.00    -0.647 OA
ENDBRANCH   5   6
ENDBRANCH   2   5
TORSDOF 2
ENDMDL
