MODEL 2
REMARK VINA RESULT: -5.143684215      0.622      1.894
REMARK  2 active torsions:
REMARK  status: ('A' for Active; 'I' for Inactive)
REMARK    1  A    between atoms: N1_2  and  C4_5 
REMARK    2  A    between atoms: C4_5  and  C5_6 
ROOT
HETATM    1  C1  UNL     1      15.106  18.833  13.881  1.00  0.00     0.272 C 
HETATM    2  N1  UNL     1      14.662  19.328  12.576  1.00  0.00    -0.069 N 
HETATM    3  C2  UNL     1      13.563  18.524  12.127  1.00  0.00     0.272 C 
HETATM    4  C3  UNL     1      14.264  20.715  12.681  1.00  0.00     0.272 C 
ENDROOT
BRANCH   2   5
HETATM    5  C4  UNL     1      15.817  19.266  11.706  1.00  0.00     0.348 C 
BRANCH   5   6
HETATM    6  C5  UNL     1      15.973  17.902  11.127  1.00  0.00     0.199 C 
HETATM    7  O1  UNL     1      15.778  17.688   9.902  1.00  0.00    -0.647 OA
HETATM    8  O2  UNL     1      16.336  16.809  11.901  1.00  0.00    -0.647 OA
ENDBRANCH   5   6
ENDBRANCH   2   5
TORSDOF 2
ENDMDL
