MODEL 3
REMARK VINA RESULT: -5.079247999      0.611      1.173
REMARK  2 active torsions:
REMARK  status: ('A' for Active; 'I' for Inactive)
REMARK    1  A    between atoms: N1_2  and  C4_5 
REMARK    2  A    between atoms: C4_5  and  C5_6 
ROOT
HETATM    1  C1  UNL     1      14.324  20.705  12.743  1.00  0.00     0.272 C 
HETATM    2  N1  UNL     1      14.725  19.301  12.622  1.00  0.00    -0.069 N 
HETATM    3  C2  UNL     1      15.124  18.823  13.913  1.00  0.00     0.272 C 
HETATM    4  C3  UNL     1      13.625  18.515  12.108  1.00  0.00     0.272 C 
ENDROOT
BRANCH   2   5
HETATM    5  C4  UNL     1      15.787  19.269  11.639  1.00  0.00     0.348 C 
BRANCH   5   6
HETATM    6  C5  UNL     1      15.987  17.887  11.119  1.00  0.00     0.199 C 
HETATM    7  O1  UNL     1      15.810  17.617   9.901  1.00  0.00    -0.647 OA
HETATM    8  O2  UNL     1      16.372  16.838  11.940  1.00  0.00    -0.647 OA
ENDBRANCH   5   6
ENDBRANCH   2   5
TORSDOF 2
ENDMDL
