MODEL 1
REMARK VINA RESULT: -5.153034172      0.000      0.000
REMARK  2 active torsions:
REMARK  status: ('A' for Active; 'I' for Inactive)
REMARK    1  A    between atoms: N1_2  and  C4_5 
REMARK    2  A    between atoms: C4_5  and  C5_6 
ROOT
HETATM    1  C1  UNL     1      14.304  20.603  12.572  1.00  0.00     0.272 C 
HETATM    2  N1  UNL     1      14.645  19.181  12.663  1.00  0.00    -0.069 N 
HETATM    3  C2  UNL     1      15.292  18.942  13.920  1.00  0.00     0.272 C 
HETATM    4  C3  UNL     1      13.449  18.376  12.549  1.00  0.00     0.272 C 
ENDROOT
BRANCH   2   5
HETATM    5  C4  UNL     1      15.481  18.893  11.518  1.00  0.00     0.348 C 
BRANCH   5   6
HETATM    6  C5  UNL     1      15.677  17.424  11.359  1.00  0.00     0.199 C 
HETATM    7  O1  UNL     1      16.537  16.804  12.037  1.00  0.00    -0.647 OA
HETATM    8  O2  UNL     1      14.928  16.674  10.463  1.00  0.00    -0.647 OA
ENDBRANCH   5   6
ENDBRANCH   2   5
TORSDOF 2
ENDMDL
