MODEL 5
REMARK VINA RESULT: -4.995857820      1.070      1.950
REMARK  2 active torsions:
REMARK  status: ('A' for Active; 'I' for Inactive)
REMARK    1  A    between atoms: N1_2  and  C4_5 
REMARK    2  A    between atoms: C4_5  and  C5_6 
ROOT
HETATM    1  C1  UNL     1      13.659  17.964  12.598  1.00  0.00     0.272 C 
HETATM    2  N1  UNL     1      14.976  18.587  12.745  1.00  0.00    -0.069 N 
HETATM    3  C2  UNL     1      14.980  19.831  12.031  1.00  0.00     0.272 C 
HETATM    4  C3  UNL     1      15.268  18.806  14.144  1.00  0.00     0.272 C 
ENDROOT
BRANCH   2   5
HETATM    5  C4  UNL     1      15.934  17.628  12.239  1.00  0.00     0.348 C 
BRANCH   5   6
HETATM    6  C5  UNL     1      15.679  17.330  10.801  1.00  0.00     0.199 C 
HETATM    7  O1  UNL     1      14.937  16.373  10.455  1.00  0.00    -0.647 OA
HETATM    8  O2  UNL     1      16.242  18.084   9.781  1.00  0.00    -0.647 OA
ENDBRANCH   5   6
ENDBRANCH   2   5
TORSDOF 2
ENDMDL
