MODEL 4
REMARK VINA RESULT: -6.715128333      2.070      2.397
REMARK  5 active torsions:
REMARK  status: ('A' for Active; 'I' for Inactive)
REMARK    1  A    between atoms: C1_2  and  C2_4 
REMARK    2  A    between atoms: C2_4  and  C3_5 
REMARK    3  A    between atoms: C3_5  and  C4_6 
REMARK    4  A    between atoms: C4_6  and  C5_7 
REMARK    5  A    between atoms: C5_7  and  C6_8 
ROOT
HETATM    1  C6  UNL     1      11.489  19.960  18.240  1.00  0.00     0.072 C 
HETATM    2  S1  UNL     1      11.529  19.986  20.076  1.00  0.00    -0.160 SA
HETATM    3  C7  UNL     1      11.107  21.757  20.310  1.00  0.00     0.101 C 
HETATM    4  C8  UNL     1      11.210  22.279  18.921  1.00  0.00     0.119 C 
HETATM    5  N1  UNL     1      10.145  23.280  18.761  1.00  0.00    -0.336 N 
ATOM      6  H1  UNL     1      10.234  24.295  18.790  1.00  0.00     0.164 HD
HETATM    7  C9  UNL     1       8.965  22.514  18.556  1.00  0.00     0.316 C 
HETATM    8  O3  UNL     1       7.794  22.978  18.675  1.00  0.00    -0.247 OA
HETATM    9  N2  UNL     1       9.342  21.169  18.203  1.00  0.00    -0.335 N 
ATOM     10  H2  UNL     1       8.734  20.352  18.138  1.00  0.00     0.164 HD
HETATM   11  C10 UNL     1      10.751  21.224  17.962  1.00  0.00     0.123 C 
ENDROOT
BRANCH   1  12
HETATM   12  C5  UNL     1      10.819  18.731  17.737  1.00  0.00     0.017 C 
BRANCH  12  13
HETATM   13  C4  UNL     1      11.513  18.291  16.472  1.00  0.00     0.002 C 
BRANCH  13  14
HETATM   14  C3  UNL     1      12.281  17.014  16.641  1.00  0.00     0.010 C 
BRANCH  14  15
HETATM   15  C2  UNL     1      11.725  16.168  17.757  1.00  0.00     0.113 C 
BRANCH  15  16
HETATM   16  C1  UNL     1      12.714  15.911  18.818  1.00  0.00     0.172 C 
HETATM   17  O1  UNL     1      13.014  16.780  19.661  1.00  0.00    -0.648 OA
HETATM   18  O2  UNL     1      13.326  14.683  18.889  1.00  0.00    -0.648 OA
ENDBRANCH  15  16
ENDBRANCH  14  15
ENDBRANCH  13  14
ENDBRANCH  12  13
ENDBRANCH   1  12
TORSDOF 5
ENDMDL
