MODEL 8
REMARK VINA RESULT: -6.512119914      3.005      6.617
REMARK  5 active torsions:
REMARK  status: ('A' for Active; 'I' for Inactive)
REMARK    1  A    between atoms: C1_2  and  C2_4 
REMARK    2  A    between atoms: C2_4  and  C3_5 
REMARK    3  A    between atoms: C3_5  and  C4_6 
REMARK    4  A    between atoms: C4_6  and  C5_7 
REMARK    5  A    between atoms: C5_7  and  C6_8 
ROOT
HETATM    1  C6  UNL     1      12.284  17.091  17.793  1.00  0.00     0.072 C 
HETATM    2  S1  UNL     1      13.212  16.486  16.328  1.00  0.00    -0.160 SA
HETATM    3  C7  UNL     1      12.864  14.696  16.532  1.00  0.00     0.101 C 
HETATM    4  C8  UNL     1      12.249  14.659  17.886  1.00  0.00     0.119 C 
HETATM    5  N1  UNL     1      11.189  13.641  17.846  1.00  0.00    -0.336 N 
ATOM      6  H1  UNL     1      11.226  12.687  18.206  1.00  0.00     0.164 HD
HETATM    7  C9  UNL     1      10.101  14.284  17.195  1.00  0.00     0.316 C 
HETATM    8  O3  UNL     1       9.114  13.669  16.697  1.00  0.00    -0.247 OA
HETATM    9  N2  UNL     1      10.330  15.707  17.209  1.00  0.00    -0.335 N 
ATOM     10  H2  UNL     1       9.812  16.422  16.698  1.00  0.00     0.164 HD
HETATM   11  C10 UNL     1      11.438  15.901  18.093  1.00  0.00     0.123 C 
ENDROOT
BRANCH   1  12
HETATM   12  C5  UNL     1      11.521  18.325  17.471  1.00  0.00     0.017 C 
BRANCH  12  13
HETATM   13  C4  UNL     1      11.347  19.125  18.738  1.00  0.00     0.002 C 
BRANCH  13  14
HETATM   14  C3  UNL     1      10.917  20.539  18.482  1.00  0.00     0.010 C 
BRANCH  14  15
HETATM   15  C2  UNL     1       9.576  20.839  19.101  1.00  0.00     0.113 C 
BRANCH  15  16
HETATM   16  C1  UNL     1       8.767  21.757  18.281  1.00  0.00     0.172 C 
HETATM   17  O1  UNL     1       8.728  21.665  17.037  1.00  0.00    -0.648 OA
HETATM   18  O2  UNL     1       8.033  22.743  18.893  1.00  0.00    -0.648 OA
ENDBRANCH  15  16
ENDBRANCH  14  15
ENDBRANCH  13  14
ENDBRANCH  12  13
ENDBRANCH   1  12
TORSDOF 5
ENDMDL
