MODEL 3
REMARK VINA RESULT: -6.868453846      2.446      2.837
REMARK  5 active torsions:
REMARK  status: ('A' for Active; 'I' for Inactive)
REMARK    1  A    between atoms: C1_2  and  C2_4 
REMARK    2  A    between atoms: C2_4  and  C3_5 
REMARK    3  A    between atoms: C3_5  and  C4_6 
REMARK    4  A    between atoms: C4_6  and  C5_7 
REMARK    5  A    between atoms: C5_7  and  C6_8 
ROOT
HETATM    1  C6  UNL     1      11.704  20.230  18.513  1.00  0.00     0.072 C 
HETATM    2  S1  UNL     1      11.666  20.364  20.344  1.00  0.00    -0.160 SA
HETATM    3  C7  UNL     1      11.088  22.102  20.456  1.00  0.00     0.101 C 
HETATM    4  C8  UNL     1      11.204  22.552  19.043  1.00  0.00     0.119 C 
HETATM    5  N1  UNL     1      10.068  23.447  18.785  1.00  0.00    -0.336 N 
ATOM      6  H1  UNL     1      10.070  24.466  18.756  1.00  0.00     0.164 HD
HETATM    7  C9  UNL     1       8.964  22.573  18.583  1.00  0.00     0.316 C 
HETATM    8  O3  UNL     1       7.755  22.941  18.632  1.00  0.00    -0.247 OA
HETATM    9  N2  UNL     1       9.466  21.247  18.325  1.00  0.00    -0.335 N 
ATOM     10  H2  UNL     1       8.932  20.379  18.288  1.00  0.00     0.164 HD
HETATM   11  C10 UNL     1      10.875  21.408  18.133  1.00  0.00     0.123 C 
ENDROOT
BRANCH   1  12
HETATM   12  C5  UNL     1      11.160  18.922  18.060  1.00  0.00     0.017 C 
BRANCH  12  13
HETATM   13  C4  UNL     1      11.853  17.823  18.827  1.00  0.00     0.002 C 
BRANCH  13  14
HETATM   14  C3  UNL     1      11.938  16.538  18.059  1.00  0.00     0.010 C 
BRANCH  14  15
HETATM   15  C2  UNL     1      12.849  15.542  18.729  1.00  0.00     0.113 C 
BRANCH  15  16
HETATM   16  C1  UNL     1      14.268  15.766  18.406  1.00  0.00     0.172 C 
HETATM   17  O1  UNL     1      15.183  15.366  19.153  1.00  0.00    -0.648 OA
HETATM   18  O2  UNL     1      14.602  16.433  17.252  1.00  0.00    -0.648 OA
ENDBRANCH  15  16
ENDBRANCH  14  15
ENDBRANCH  13  14
ENDBRANCH  12  13
ENDBRANCH   1  12
TORSDOF 5
ENDMDL
