MODEL 7
REMARK VINA RESULT: -6.541735748      2.592      6.010
REMARK  5 active torsions:
REMARK  status: ('A' for Active; 'I' for Inactive)
REMARK    1  A    between atoms: C1_2  and  C2_4 
REMARK    2  A    between atoms: C2_4  and  C3_5 
REMARK    3  A    between atoms: C3_5  and  C4_6 
REMARK    4  A    between atoms: C4_6  and  C5_7 
REMARK    5  A    between atoms: C5_7  and  C6_8 
ROOT
HETATM    1  C6  UNL     1      11.656  17.630  18.441  1.00  0.00     0.072 C 
HETATM    2  S1  UNL     1      13.153  16.900  17.664  1.00  0.00    -0.160 SA
HETATM    3  C7  UNL     1      12.345  15.452  16.878  1.00  0.00     0.101 C 
HETATM    4  C8  UNL     1      10.989  15.493  17.487  1.00  0.00     0.119 C 
HETATM    5  N1  UNL     1      10.040  15.081  16.443  1.00  0.00    -0.336 N 
ATOM      6  H1  UNL     1       9.593  14.171  16.330  1.00  0.00     0.164 HD
HETATM    7  C9  UNL     1       9.883  16.236  15.629  1.00  0.00     0.316 C 
HETATM    8  O3  UNL     1       9.392  16.215  14.463  1.00  0.00    -0.247 OA
HETATM    9  N2  UNL     1      10.371  17.382  16.353  1.00  0.00    -0.335 N 
ATOM     10  H2  UNL     1      10.531  18.322  15.989  1.00  0.00     0.164 HD
HETATM   11  C10 UNL     1      10.583  16.920  17.690  1.00  0.00     0.123 C 
ENDROOT
BRANCH   1  12
HETATM   12  C5  UNL     1      11.641  19.109  18.288  1.00  0.00     0.017 C 
BRANCH  12  13
HETATM   13  C4  UNL     1      11.534  19.731  19.658  1.00  0.00     0.002 C 
BRANCH  13  14
HETATM   14  C3  UNL     1      10.697  20.976  19.671  1.00  0.00     0.010 C 
BRANCH  14  15
HETATM   15  C2  UNL     1       9.268  20.696  19.284  1.00  0.00     0.113 C 
BRANCH  15  16
HETATM   16  C1  UNL     1       8.721  21.709  18.366  1.00  0.00     0.172 C 
HETATM   17  O1  UNL     1       8.858  21.618  17.129  1.00  0.00    -0.648 OA
HETATM   18  O2  UNL     1       8.040  22.787  18.876  1.00  0.00    -0.648 OA
ENDBRANCH  15  16
ENDBRANCH  14  15
ENDBRANCH  13  14
ENDBRANCH  12  13
ENDBRANCH   1  12
TORSDOF 5
ENDMDL
