MODEL 6
REMARK VINA RESULT: -6.585511838      3.166      4.021
REMARK  5 active torsions:
REMARK  status: ('A' for Active; 'I' for Inactive)
REMARK    1  A    between atoms: C1_2  and  C2_4 
REMARK    2  A    between atoms: C2_4  and  C3_5 
REMARK    3  A    between atoms: C3_5  and  C4_6 
REMARK    4  A    between atoms: C4_6  and  C5_7 
REMARK    5  A    between atoms: C5_7  and  C6_8 
ROOT
HETATM    1  C6  UNL     1      11.493  20.119  17.617  1.00  0.00     0.072 C 
HETATM    2  S1  UNL     1      11.367  19.556  19.361  1.00  0.00    -0.160 SA
HETATM    3  C7  UNL     1      10.945  21.174  20.117  1.00  0.00     0.101 C 
HETATM    4  C8  UNL     1      11.179  22.109  18.983  1.00  0.00     0.119 C 
HETATM    5  N1  UNL     1      10.144  23.149  19.067  1.00  0.00    -0.336 N 
ATOM      6  H1  UNL     1      10.240  24.098  19.428  1.00  0.00     0.164 HD
HETATM    7  C9  UNL     1       8.978  22.536  18.530  1.00  0.00     0.316 C 
HETATM    8  O3  UNL     1       7.807  22.983  18.696  1.00  0.00    -0.247 OA
HETATM    9  N2  UNL     1       9.371  21.361  17.796  1.00  0.00    -0.335 N 
ATOM     10  H2  UNL     1       8.762  20.632  17.422  1.00  0.00     0.164 HD
HETATM   11  C10 UNL     1      10.797  21.434  17.702  1.00  0.00     0.123 C 
ENDROOT
BRANCH   1  12
HETATM   12  C5  UNL     1      10.858  19.144  16.692  1.00  0.00     0.017 C 
BRANCH  12  13
HETATM   13  C4  UNL     1      11.488  19.295  15.330  1.00  0.00     0.002 C 
BRANCH  13  14
HETATM   14  C3  UNL     1      10.523  19.783  14.291  1.00  0.00     0.010 C 
BRANCH  14  15
HETATM   15  C2  UNL     1      10.448  21.288  14.258  1.00  0.00     0.113 C 
BRANCH  15  16
HETATM   16  C1  UNL     1       9.090  21.781  13.970  1.00  0.00     0.172 C 
HETATM   17  O1  UNL     1       8.176  21.721  14.817  1.00  0.00    -0.648 OA
HETATM   18  O2  UNL     1       8.814  22.322  12.738  1.00  0.00    -0.648 OA
ENDBRANCH  15  16
ENDBRANCH  14  15
ENDBRANCH  13  14
ENDBRANCH  12  13
ENDBRANCH   1  12
TORSDOF 5
ENDMDL
