MODEL 1
REMARK VINA RESULT: -8.003022197      0.000      0.000
REMARK  5 active torsions:
REMARK  status: ('A' for Active; 'I' for Inactive)
REMARK    1  A    between atoms: C1_2  and  C2_4 
REMARK    2  A    between atoms: C2_4  and  C3_5 
REMARK    3  A    between atoms: C3_5  and  C4_6 
REMARK    4  A    between atoms: C4_6  and  C5_7 
REMARK    5  A    between atoms: C5_7  and  C6_8 
ROOT
HETATM    1  C6  UNL     1      11.272 -12.665  22.999  1.00  0.00     0.072 C 
HETATM    2  S1  UNL     1      12.124 -14.150  22.333  1.00  0.00    -0.160 SA
HETATM    3  C7  UNL     1      13.713 -13.348  21.887  1.00  0.00     0.101 C 
HETATM    4  C8  UNL     1      13.383 -11.908  22.055  1.00  0.00     0.119 C 
HETATM    5  N1  UNL     1      14.582 -11.256  22.601  1.00  0.00    -0.336 N 
ATOM      6  H1  UNL     1      15.269 -10.693  22.101  1.00  0.00     0.164 HD
HETATM    7  C9  UNL     1      14.567 -11.585  23.985  1.00  0.00     0.316 C 
HETATM    8  O3  UNL     1      15.571 -11.475  24.746  1.00  0.00    -0.247 OA
HETATM    9  N2  UNL     1      13.248 -12.048  24.335  1.00  0.00    -0.335 N 
ATOM     10  H2  UNL     1      12.960 -12.494  25.207  1.00  0.00     0.164 HD
HETATM   11  C10 UNL     1      12.430 -11.751  23.200  1.00  0.00     0.123 C 
ENDROOT
BRANCH   1  12
HETATM   12  C5  UNL     1      10.520 -12.991  24.239  1.00  0.00     0.017 C 
BRANCH  12  13
HETATM   13  C4  UNL     1      10.605 -14.478  24.476  1.00  0.00     0.002 C 
BRANCH  13  14
HETATM   14  C3  UNL     1       9.856 -14.919  25.698  1.00  0.00     0.010 C 
BRANCH  14  15
HETATM   15  C2  UNL     1       9.094 -16.197  25.458  1.00  0.00     0.113 C 
BRANCH  15  16
HETATM   16  C1  UNL     1       8.071 -16.057  24.408  1.00  0.00     0.172 C 
HETATM   17  O1  UNL     1       7.091 -15.296  24.542  1.00  0.00    -0.648 OA
HETATM   18  O2  UNL     1       8.192 -16.777  23.245  1.00  0.00    -0.648 OA
ENDBRANCH  15  16
ENDBRANCH  14  15
ENDBRANCH  13  14
ENDBRANCH  12  13
ENDBRANCH   1  12
TORSDOF 5
ENDMDL
