MODEL 15
REMARK VINA RESULT: -4.933783754      1.627      1.938
REMARK  5 active torsions:
REMARK  status: ('A' for Active; 'I' for Inactive)
REMARK    1  A    between atoms: C1_2  and  C2_4 
REMARK    2  A    between atoms: C2_4  and  C3_5 
REMARK    3  A    between atoms: C3_5  and  C4_6 
REMARK    4  A    between atoms: C4_6  and  C5_7 
REMARK    5  A    between atoms: C5_7  and  C6_8 
ROOT
HETATM    1  C6  UNL     1      11.308 -13.629  23.122  1.00  0.00     0.072 C 
HETATM    2  S1  UNL     1      12.363 -13.717  24.623  1.00  0.00    -0.160 SA
HETATM    3  C7  UNL     1      13.962 -13.291  23.831  1.00  0.00     0.101 C 
HETATM    4  C8  UNL     1      13.611 -13.353  22.387  1.00  0.00     0.119 C 
HETATM    5  N1  UNL     1      14.359 -12.278  21.719  1.00  0.00    -0.336 N 
ATOM      6  H1  UNL     1      15.214 -12.361  21.169  1.00  0.00     0.164 HD
HETATM    7  C9  UNL     1      13.622 -11.098  22.010  1.00  0.00     0.316 C 
HETATM    8  O3  UNL     1      14.084  -9.928  21.878  1.00  0.00    -0.247 OA
HETATM    9  N2  UNL     1      12.308 -11.474  22.466  1.00  0.00    -0.335 N 
ATOM     10  H2  UNL     1      11.602 -10.869  22.889  1.00  0.00     0.164 HD
HETATM   11  C10 UNL     1      12.204 -12.876  22.201  1.00  0.00     0.123 C 
ENDROOT
BRANCH   1  12
HETATM   12  C5  UNL     1      10.016 -12.954  23.415  1.00  0.00     0.017 C 
BRANCH  12  13
HETATM   13  C4  UNL     1       9.154 -13.895  24.220  1.00  0.00     0.002 C 
BRANCH  13  14
HETATM   14  C3  UNL     1       9.534 -15.334  24.039  1.00  0.00     0.010 C 
BRANCH  14  15
HETATM   15  C2  UNL     1       8.504 -16.264  24.628  1.00  0.00     0.113 C 
BRANCH  15  16
HETATM   16  C1  UNL     1       7.272 -16.326  23.824  1.00  0.00     0.172 C 
HETATM   17  O1  UNL     1       7.267 -16.780  22.662  1.00  0.00    -0.648 OA
HETATM   18  O2  UNL     1       6.091 -15.872  24.359  1.00  0.00    -0.648 OA
ENDBRANCH  15  16
ENDBRANCH  14  15
ENDBRANCH  13  14
ENDBRANCH  12  13
ENDBRANCH   1  12
TORSDOF 5
ENDMDL
