MODEL 7
REMARK VINA RESULT: -5.692562486      1.282      1.591
REMARK  5 active torsions:
REMARK  status: ('A' for Active; 'I' for Inactive)
REMARK    1  A    between atoms: C1_2  and  C2_4 
REMARK    2  A    between atoms: C2_4  and  C3_5 
REMARK    3  A    between atoms: C3_5  and  C4_6 
REMARK    4  A    between atoms: C4_6  and  C5_7 
REMARK    5  A    between atoms: C5_7  and  C6_8 
ROOT
HETATM    1  C6  UNL     1      10.669 -13.060  23.742  1.00  0.00     0.072 C 
HETATM    2  S1  UNL     1      10.746 -12.477  22.002  1.00  0.00    -0.160 SA
HETATM    3  C7  UNL     1      12.095 -11.249  22.208  1.00  0.00     0.101 C 
HETATM    4  C8  UNL     1      12.228 -11.192  23.688  1.00  0.00     0.119 C 
HETATM    5  N1  UNL     1      13.660 -11.034  23.982  1.00  0.00    -0.336 N 
ATOM      6  H1  UNL     1      14.154 -10.181  24.242  1.00  0.00     0.164 HD
HETATM    7  C9  UNL     1      14.201 -12.340  23.824  1.00  0.00     0.316 C 
HETATM    8  O3  UNL     1      15.436 -12.580  23.692  1.00  0.00    -0.247 OA
HETATM    9  N2  UNL     1      13.121 -13.293  23.841  1.00  0.00    -0.335 N 
ATOM     10  H2  UNL     1      13.166 -14.285  23.606  1.00  0.00     0.164 HD
HETATM   11  C10 UNL     1      11.971 -12.552  24.259  1.00  0.00     0.123 C 
ENDROOT
BRANCH   1  12
HETATM   12  C5  UNL     1      10.514 -14.537  23.805  1.00  0.00     0.017 C 
BRANCH  12  13
HETATM   13  C4  UNL     1      10.117 -14.918  25.210  1.00  0.00     0.002 C 
BRANCH  13  14
HETATM   14  C3  UNL     1       9.007 -15.925  25.251  1.00  0.00     0.010 C 
BRANCH  14  15
HETATM   15  C2  UNL     1       8.638 -16.411  23.873  1.00  0.00     0.113 C 
BRANCH  15  16
HETATM   16  C1  UNL     1       7.201 -16.263  23.587  1.00  0.00     0.172 C 
HETATM   17  O1  UNL     1       6.422 -15.725  24.399  1.00  0.00    -0.648 OA
HETATM   18  O2  UNL     1       6.697 -16.727  22.397  1.00  0.00    -0.648 OA
ENDBRANCH  15  16
ENDBRANCH  14  15
ENDBRANCH  13  14
ENDBRANCH  12  13
ENDBRANCH   1  12
TORSDOF 5
ENDMDL
