MODEL 2
REMARK VINA RESULT: -7.280582784      0.895      1.328
REMARK  5 active torsions:
REMARK  status: ('A' for Active; 'I' for Inactive)
REMARK    1  A    between atoms: C1_2  and  C2_4 
REMARK    2  A    between atoms: C2_4  and  C3_5 
REMARK    3  A    between atoms: C3_5  and  C4_6 
REMARK    4  A    between atoms: C4_6  and  C5_7 
REMARK    5  A    between atoms: C5_7  and  C6_8 
ROOT
HETATM    1  C6  UNL     1      11.441 -11.560  22.233  1.00  0.00     0.072 C 
HETATM    2  S1  UNL     1      12.052 -13.131  21.503  1.00  0.00    -0.160 SA
HETATM    3  C7  UNL     1      13.848 -12.824  21.717  1.00  0.00     0.101 C 
HETATM    4  C8  UNL     1      13.866 -11.393  22.120  1.00  0.00     0.119 C 
HETATM    5  N1  UNL     1      14.937 -11.241  23.115  1.00  0.00    -0.336 N 
ATOM      6  H1  UNL     1      15.873 -10.864  22.972  1.00  0.00     0.164 HD
HETATM    7  C9  UNL     1      14.373 -11.739  24.322  1.00  0.00     0.316 C 
HETATM    8  O3  UNL     1      15.055 -12.063  25.337  1.00  0.00    -0.247 OA
HETATM    9  N2  UNL     1      12.942 -11.801  24.173  1.00  0.00    -0.335 N 
ATOM     10  H2  UNL     1      12.272 -12.248  24.800  1.00  0.00     0.164 HD
HETATM   11  C10 UNL     1      12.659 -11.101  22.957  1.00  0.00     0.123 C 
ENDROOT
BRANCH   1  12
HETATM   12  C5  UNL     1      10.259 -11.798  23.103  1.00  0.00     0.017 C 
BRANCH  12  13
HETATM   13  C4  UNL     1      10.017 -13.285  23.188  1.00  0.00     0.002 C 
BRANCH  13  14
HETATM   14  C3  UNL     1       9.821 -13.766  24.594  1.00  0.00     0.010 C 
BRANCH  14  15
HETATM   15  C2  UNL     1       9.835 -15.271  24.680  1.00  0.00     0.113 C 
BRANCH  15  16
HETATM   16  C1  UNL     1       8.591 -15.877  24.175  1.00  0.00     0.172 C 
HETATM   17  O1  UNL     1       8.604 -16.802  23.338  1.00  0.00    -0.648 OA
HETATM   18  O2  UNL     1       7.380 -15.418  24.632  1.00  0.00    -0.648 OA
ENDBRANCH  15  16
ENDBRANCH  14  15
ENDBRANCH  13  14
ENDBRANCH  12  13
ENDBRANCH   1  12
TORSDOF 5
ENDMDL
