MODEL 6
REMARK VINA RESULT: -6.015035146      2.511      5.645
REMARK  5 active torsions:
REMARK  status: ('A' for Active; 'I' for Inactive)
REMARK    1  A    between atoms: C1_2  and  C2_4 
REMARK    2  A    between atoms: C2_4  and  C3_5 
REMARK    3  A    between atoms: C3_5  and  C4_6 
REMARK    4  A    between atoms: C4_6  and  C5_7 
REMARK    5  A    between atoms: C5_7  and  C6_8 
ROOT
HETATM    1  C6  UNL     1      10.602 -12.266  22.195  1.00  0.00     0.072 C 
HETATM    2  S1  UNL     1       9.551 -11.130  23.185  1.00  0.00    -0.160 SA
HETATM    3  C7  UNL     1       8.677 -12.399  24.180  1.00  0.00     0.101 C 
HETATM    4  C8  UNL     1       9.082 -13.655  23.493  1.00  0.00     0.119 C 
HETATM    5  N1  UNL     1       9.254 -14.676  24.535  1.00  0.00    -0.336 N 
ATOM      6  H1  UNL     1       8.607 -15.422  24.791  1.00  0.00     0.164 HD
HETATM    7  C9  UNL     1      10.524 -14.391  25.107  1.00  0.00     0.316 C 
HETATM    8  O3  UNL     1      10.912 -14.841  26.223  1.00  0.00    -0.247 OA
HETATM    9  N2  UNL     1      11.251 -13.528  24.211  1.00  0.00    -0.335 N 
ATOM     10  H2  UNL     1      12.122 -13.031  24.400  1.00  0.00     0.164 HD
HETATM   11  C10 UNL     1      10.489 -13.515  23.000  1.00  0.00     0.123 C 
ENDROOT
BRANCH   1  12
HETATM   12  C5  UNL     1      11.986 -11.739  22.065  1.00  0.00     0.017 C 
BRANCH  12  13
HETATM   13  C4  UNL     1      12.829 -12.774  21.363  1.00  0.00     0.002 C 
BRANCH  13  14
HETATM   14  C3  UNL     1      14.275 -12.717  21.759  1.00  0.00     0.010 C 
BRANCH  14  15
HETATM   15  C2  UNL     1      14.545 -11.604  22.740  1.00  0.00     0.113 C 
BRANCH  15  16
HETATM   16  C1  UNL     1      14.768 -12.100  24.109  1.00  0.00     0.172 C 
HETATM   17  O1  UNL     1      15.471 -11.474  24.927  1.00  0.00    -0.648 OA
HETATM   18  O2  UNL     1      14.189 -13.281  24.503  1.00  0.00    -0.648 OA
ENDBRANCH  15  16
ENDBRANCH  14  15
ENDBRANCH  13  14
ENDBRANCH  12  13
ENDBRANCH   1  12
TORSDOF 5
ENDMDL
