MODEL 14
REMARK VINA RESULT: -4.979107971      2.446      6.264
REMARK  5 active torsions:
REMARK  status: ('A' for Active; 'I' for Inactive)
REMARK    1  A    between atoms: C1_2  and  C2_4 
REMARK    2  A    between atoms: C2_4  and  C3_5 
REMARK    3  A    between atoms: C3_5  and  C4_6 
REMARK    4  A    between atoms: C4_6  and  C5_7 
REMARK    5  A    between atoms: C5_7  and  C6_8 
ROOT
HETATM    1  C6  UNL     1      10.028 -12.732  23.916  1.00  0.00     0.072 C 
HETATM    2  S1  UNL     1      11.436 -13.747  24.517  1.00  0.00    -0.160 SA
HETATM    3  C7  UNL     1      10.460 -15.076  25.323  1.00  0.00     0.101 C 
HETATM    4  C8  UNL     1       9.086 -14.506  25.289  1.00  0.00     0.119 C 
HETATM    5  N1  UNL     1       8.165 -15.625  25.039  1.00  0.00    -0.336 N 
ATOM      6  H1  UNL     1       7.582 -16.116  25.716  1.00  0.00     0.164 HD
HETATM    7  C9  UNL     1       8.271 -15.867  23.642  1.00  0.00     0.316 C 
HETATM    8  O3  UNL     1       7.876 -16.929  23.080  1.00  0.00    -0.247 OA
HETATM    9  N2  UNL     1       8.887 -14.724  23.019  1.00  0.00    -0.335 N 
ATOM     10  H2  UNL     1       9.232 -14.651  22.062  1.00  0.00     0.164 HD
HETATM   11  C10 UNL     1       8.913 -13.712  24.031  1.00  0.00     0.123 C 
ENDROOT
BRANCH   1  12
HETATM   12  C5  UNL     1      10.276 -12.237  22.536  1.00  0.00     0.017 C 
BRANCH  12  13
HETATM   13  C4  UNL     1      11.746 -12.383  22.230  1.00  0.00     0.002 C 
BRANCH  13  14
HETATM   14  C3  UNL     1      12.569 -11.248  22.762  1.00  0.00     0.010 C 
BRANCH  14  15
HETATM   15  C2  UNL     1      14.046 -11.517  22.634  1.00  0.00     0.113 C 
BRANCH  15  16
HETATM   16  C1  UNL     1      14.660 -11.920  23.910  1.00  0.00     0.172 C 
HETATM   17  O1  UNL     1      15.393 -11.147  24.560  1.00  0.00    -0.648 OA
HETATM   18  O2  UNL     1      14.424 -13.178  24.407  1.00  0.00    -0.648 OA
ENDBRANCH  15  16
ENDBRANCH  14  15
ENDBRANCH  13  14
ENDBRANCH  12  13
ENDBRANCH   1  12
TORSDOF 5
ENDMDL
