MODEL 13
REMARK VINA RESULT: -5.098135030      2.492      6.190
REMARK  5 active torsions:
REMARK  status: ('A' for Active; 'I' for Inactive)
REMARK    1  A    between atoms: C1_2  and  C2_4 
REMARK    2  A    between atoms: C2_4  and  C3_5 
REMARK    3  A    between atoms: C3_5  and  C4_6 
REMARK    4  A    between atoms: C4_6  and  C5_7 
REMARK    5  A    between atoms: C5_7  and  C6_8 
ROOT
HETATM    1  C6  UNL     1       9.873 -12.726  24.048  1.00  0.00     0.072 C 
HETATM    2  S1  UNL     1      11.431 -13.524  24.603  1.00  0.00    -0.160 SA
HETATM    3  C7  UNL     1      10.685 -14.975  25.444  1.00  0.00     0.101 C 
HETATM    4  C8  UNL     1       9.243 -14.609  25.455  1.00  0.00     0.119 C 
HETATM    5  N1  UNL     1       8.486 -15.851  25.238  1.00  0.00    -0.336 N 
ATOM      6  H1  UNL     1       8.002 -16.416  25.935  1.00  0.00     0.164 HD
HETATM    7  C9  UNL     1       8.579 -16.085  23.839  1.00  0.00     0.316 C 
HETATM    8  O3  UNL     1       8.324 -17.197  23.292  1.00  0.00    -0.247 OA
HETATM    9  N2  UNL     1       9.003 -14.868  23.194  1.00  0.00    -0.335 N 
ATOM     10  H2  UNL     1       9.302 -14.753  22.225  1.00  0.00     0.164 HD
HETATM   11  C10 UNL     1       8.915 -13.857  24.202  1.00  0.00     0.123 C 
ENDROOT
BRANCH   1  12
HETATM   12  C5  UNL     1      10.000 -12.211  22.660  1.00  0.00     0.017 C 
BRANCH  12  13
HETATM   13  C4  UNL     1      11.448 -11.871  22.405  1.00  0.00     0.002 C 
BRANCH  13  14
HETATM   14  C3  UNL     1      12.056 -12.690  21.306  1.00  0.00     0.010 C 
BRANCH  14  15
HETATM   15  C2  UNL     1      13.509 -12.992  21.568  1.00  0.00     0.113 C 
BRANCH  15  16
HETATM   16  C1  UNL     1      14.174 -11.935  22.348  1.00  0.00     0.172 C 
HETATM   17  O1  UNL     1      14.268 -10.766  21.923  1.00  0.00    -0.648 OA
HETATM   18  O2  UNL     1      14.708 -12.235  23.578  1.00  0.00    -0.648 OA
ENDBRANCH  15  16
ENDBRANCH  14  15
ENDBRANCH  13  14
ENDBRANCH  12  13
ENDBRANCH   1  12
TORSDOF 5
ENDMDL
