MODEL 1
REMARK VINA RESULT: -8.910558197      0.000      0.000
REMARK  4 active torsions:
REMARK  status: ('A' for Active; 'I' for Inactive)
REMARK    1  A    between atoms: N1_1  and  C1_5 
REMARK    2  A    between atoms: C1_5  and  C2_6 
REMARK    3  A    between atoms: C1_5  and  C10_19 
REMARK    4  A    between atoms: C2_6  and  N2_7 
ROOT
HETATM    1  N2  UNL     1      21.923  14.327  23.243  1.00  0.00    -0.300 N 
HETATM    2  C3  UNL     1      20.955  13.617  22.633  1.00  0.00     0.028 A 
HETATM    3  C4  UNL     1      20.802  13.604  21.252  1.00  0.00     0.033 A 
HETATM    4  C5  UNL     1      21.687  14.353  20.499  1.00  0.00     0.257 A 
HETATM    5  O1  UNL     1      21.613  14.391  19.249  1.00  0.00    -0.267 OA
HETATM    6  N3  UNL     1      22.652  15.058  21.128  1.00  0.00    -0.275 N 
ATOM      7  H3  UNL     1      23.308  15.612  20.578  1.00  0.00     0.173 HD
HETATM    8  C6  UNL     1      22.762  15.041  22.483  1.00  0.00     0.329 A 
HETATM    9  O2  UNL     1      23.661  15.699  23.050  1.00  0.00    -0.246 OA
HETATM   10  C7  UNL     1      19.650  12.729  20.904  1.00  0.00     0.046 C 
HETATM   11  C8  UNL     1      18.811  12.824  22.176  1.00  0.00     0.011 C 
HETATM   12  C9  UNL     1      19.900  12.746  23.241  1.00  0.00     0.058 C 
ENDROOT
BRANCH   1  13
HETATM   13  C2  UNL     1      22.048  14.311  24.659  1.00  0.00     0.177 C 
BRANCH  13  14
HETATM   14  C1  UNL     1      23.100  13.433  25.237  1.00  0.00     0.301 C 
BRANCH  14  15
HETATM   15  N1  UNL     1      22.759  12.034  25.124  1.00  0.00    -0.064 N 
ATOM     16  H13 UNL     1      22.253  11.709  25.948  1.00  0.00     0.275 HD
ATOM     17  H12 UNL     1      22.034  11.885  24.421  1.00  0.00     0.275 HD
ATOM     18  H11 UNL     1      23.578  11.455  24.940  1.00  0.00     0.275 HD
ENDBRANCH  14  15
BRANCH  14  19
HETATM   19  C10 UNL     1      23.225  13.769  26.674  1.00  0.00     0.206 C 
HETATM   20  O3  UNL     1      23.519  14.943  26.996  1.00  0.00    -0.646 OA
HETATM   21  O4  UNL     1      23.037  12.855  27.693  1.00  0.00    -0.646 OA
ENDBRANCH  14  19
ENDBRANCH  13  14
ENDBRANCH   1  13
TORSDOF 4
ENDMDL
