MODEL 5
REMARK VINA RESULT: -5.718133378      2.083      5.632
REMARK  4 active torsions:
REMARK  status: ('A' for Active; 'I' for Inactive)
REMARK    1  A    between atoms: N1_1  and  C1_5 
REMARK    2  A    between atoms: C1_5  and  C2_6 
REMARK    3  A    between atoms: C1_5  and  C10_19 
REMARK    4  A    between atoms: C2_6  and  N2_7 
ROOT
HETATM    1  N2  UNL     1      20.602  14.065  22.440  1.00  0.00    -0.300 N 
HETATM    2  C3  UNL     1      21.776  14.655  22.736  1.00  0.00     0.028 A 
HETATM    3  C4  UNL     1      22.493  14.348  23.885  1.00  0.00     0.033 A 
HETATM    4  C5  UNL     1      21.962  13.399  24.740  1.00  0.00     0.257 A 
HETATM    5  O1  UNL     1      22.550  13.069  25.796  1.00  0.00    -0.267 OA
HETATM    6  N3  UNL     1      20.784  12.818  24.428  1.00  0.00    -0.275 N 
ATOM      7  H3  UNL     1      20.388  12.117  25.054  1.00  0.00     0.173 HD
HETATM    8  C6  UNL     1      20.118  13.152  23.291  1.00  0.00     0.329 A 
HETATM    9  O2  UNL     1      19.029  12.604  23.015  1.00  0.00    -0.246 OA
HETATM   10  C7  UNL     1      23.734  15.167  23.912  1.00  0.00     0.046 C 
HETATM   11  C8  UNL     1      23.308  16.376  23.084  1.00  0.00     0.011 C 
HETATM   12  C9  UNL     1      22.528  15.694  21.965  1.00  0.00     0.058 C 
ENDROOT
BRANCH   1  13
HETATM   13  C2  UNL     1      19.901  14.405  21.251  1.00  0.00     0.177 C 
BRANCH  13  14
HETATM   14  C1  UNL     1      20.686  14.446  19.989  1.00  0.00     0.301 C 
BRANCH  14  15
HETATM   15  N1  UNL     1      20.081  15.310  19.003  1.00  0.00    -0.064 N 
ATOM     16  H13 UNL     1      20.332  16.286  19.162  1.00  0.00     0.275 HD
ATOM     17  H12 UNL     1      20.509  15.182  18.086  1.00  0.00     0.275 HD
ATOM     18  H11 UNL     1      19.069  15.191  18.961  1.00  0.00     0.275 HD
ENDBRANCH  14  15
BRANCH  14  19
HETATM   19  C10 UNL     1      20.728  13.070  19.442  1.00  0.00     0.206 C 
HETATM   20  O3  UNL     1      21.169  12.894  18.283  1.00  0.00    -0.646 OA
HETATM   21  O4  UNL     1      20.303  11.956  20.139  1.00  0.00    -0.646 OA
ENDBRANCH  14  19
ENDBRANCH  13  14
ENDBRANCH   1  13
TORSDOF 4
ENDMDL
