MODEL 2
REMARK VINA RESULT: -6.500165383      2.009      5.586
REMARK  4 active torsions:
REMARK  status: ('A' for Active; 'I' for Inactive)
REMARK    1  A    between atoms: N1_1  and  C1_5 
REMARK    2  A    between atoms: C1_5  and  C2_6 
REMARK    3  A    between atoms: C1_5  and  C10_19 
REMARK    4  A    between atoms: C2_6  and  N2_7 
ROOT
HETATM    1  N2  UNL     1      20.576  13.957  22.601  1.00  0.00    -0.300 N 
HETATM    2  C3  UNL     1      21.751  14.580  22.815  1.00  0.00     0.028 A 
HETATM    3  C4  UNL     1      22.573  14.267  23.890  1.00  0.00     0.033 A 
HETATM    4  C5  UNL     1      22.148  13.278  24.758  1.00  0.00     0.257 A 
HETATM    5  O1  UNL     1      22.835  12.940  25.750  1.00  0.00    -0.267 OA
HETATM    6  N3  UNL     1      20.968  12.664  24.528  1.00  0.00    -0.275 N 
ATOM      7  H3  UNL     1      20.651  11.932  25.165  1.00  0.00     0.173 HD
HETATM    8  C6  UNL     1      20.197  13.005  23.462  1.00  0.00     0.329 A 
HETATM    9  O2  UNL     1      19.107  12.426  23.263  1.00  0.00    -0.246 OA
HETATM   10  C7  UNL     1      23.784  15.130  23.837  1.00  0.00     0.046 C 
HETATM   11  C8  UNL     1      23.248  16.345  23.084  1.00  0.00     0.011 C 
HETATM   12  C9  UNL     1      22.399  15.666  22.015  1.00  0.00     0.058 C 
ENDROOT
BRANCH   1  13
HETATM   13  C2  UNL     1      19.765  14.304  21.487  1.00  0.00     0.177 C 
BRANCH  13  14
HETATM   14  C1  UNL     1      19.822  13.407  20.302  1.00  0.00     0.301 C 
BRANCH  14  15
HETATM   15  N1  UNL     1      20.531  12.182  20.585  1.00  0.00    -0.064 N 
ATOM     16  H13 UNL     1      21.488  12.369  20.885  1.00  0.00     0.275 HD
ATOM     17  H12 UNL     1      20.180  11.738  21.434  1.00  0.00     0.275 HD
ATOM     18  H11 UNL     1      20.511  11.538  19.794  1.00  0.00     0.275 HD
ENDBRANCH  14  15
BRANCH  14  19
HETATM   19  C10 UNL     1      20.543  14.128  19.227  1.00  0.00     0.206 C 
HETATM   20  O3  UNL     1      21.774  13.940  19.095  1.00  0.00    -0.646 OA
HETATM   21  O4  UNL     1      19.934  15.007  18.353  1.00  0.00    -0.646 OA
ENDBRANCH  14  19
ENDBRANCH  13  14
ENDBRANCH   1  13
TORSDOF 4
ENDMDL
