MODEL 3
REMARK VINA RESULT: -6.473158755      1.260      1.453
REMARK  4 active torsions:
REMARK  status: ('A' for Active; 'I' for Inactive)
REMARK    1  A    between atoms: N1_1  and  C1_5 
REMARK    2  A    between atoms: C1_5  and  C2_6 
REMARK    3  A    between atoms: C1_5  and  C10_19 
REMARK    4  A    between atoms: C2_6  and  N2_7 
ROOT
HETATM    1  N2  UNL     1      21.585  14.622  22.503  1.00  0.00    -0.300 N 
HETATM    2  C3  UNL     1      20.751  13.589  22.275  1.00  0.00     0.028 A 
HETATM    3  C4  UNL     1      20.552  13.061  21.006  1.00  0.00     0.033 A 
HETATM    4  C5  UNL     1      21.246  13.632  19.955  1.00  0.00     0.257 A 
HETATM    5  O1  UNL     1      21.119  13.211  18.782  1.00  0.00    -0.267 OA
HETATM    6  N3  UNL     1      22.078  14.667  20.201  1.00  0.00    -0.275 N 
ATOM      7  H3  UNL     1      22.593  15.092  19.430  1.00  0.00     0.173 HD
HETATM    8  C6  UNL     1      22.240  15.150  21.462  1.00  0.00     0.329 A 
HETATM    9  O2  UNL     1      23.014  16.109  21.673  1.00  0.00    -0.246 OA
HETATM   10  C7  UNL     1      19.580  11.939  21.098  1.00  0.00     0.046 C 
HETATM   11  C8  UNL     1      18.787  12.336  22.341  1.00  0.00     0.011 C 
HETATM   12  C9  UNL     1      19.910  12.826  23.250  1.00  0.00     0.058 C 
ENDROOT
BRANCH   1  13
HETATM   13  C2  UNL     1      21.764  15.131  23.818  1.00  0.00     0.177 C 
BRANCH  13  14
HETATM   14  C1  UNL     1      23.115  14.987  24.423  1.00  0.00     0.301 C 
BRANCH  14  15
HETATM   15  N1  UNL     1      24.031  14.301  23.543  1.00  0.00    -0.064 N 
ATOM     16  H13 UNL     1      23.533  13.799  22.808  1.00  0.00     0.275 HD
ATOM     17  H12 UNL     1      24.551  14.960  22.963  1.00  0.00     0.275 HD
ATOM     18  H11 UNL     1      24.659  13.681  24.054  1.00  0.00     0.275 HD
ENDBRANCH  14  15
BRANCH  14  19
HETATM   19  C10 UNL     1      22.969  14.188  25.662  1.00  0.00     0.206 C 
HETATM   20  O3  UNL     1      22.388  13.081  25.600  1.00  0.00    -0.646 OA
HETATM   21  O4  UNL     1      23.439  14.596  26.895  1.00  0.00    -0.646 OA
ENDBRANCH  14  19
ENDBRANCH  13  14
ENDBRANCH   1  13
TORSDOF 4
ENDMDL
