MODEL 6
REMARK VINA RESULT: -5.713606191      2.380      4.597
REMARK  4 active torsions:
REMARK  status: ('A' for Active; 'I' for Inactive)
REMARK    1  A    between atoms: N1_1  and  C1_5 
REMARK    2  A    between atoms: C1_5  and  C2_6 
REMARK    3  A    between atoms: C1_5  and  C10_19 
REMARK    4  A    between atoms: C2_6  and  N2_7 
ROOT
HETATM    1  N2  UNL     1      21.738  14.181  21.634  1.00  0.00    -0.300 N 
HETATM    2  C3  UNL     1      21.827  14.302  22.973  1.00  0.00     0.028 A 
HETATM    3  C4  UNL     1      22.547  15.323  23.579  1.00  0.00     0.033 A 
HETATM    4  C5  UNL     1      23.185  16.236  22.759  1.00  0.00     0.257 A 
HETATM    5  O1  UNL     1      23.853  17.184  23.232  1.00  0.00    -0.267 OA
HETATM    6  N3  UNL     1      23.085  16.099  21.420  1.00  0.00    -0.275 N 
ATOM      7  H3  UNL     1      23.552  16.769  20.810  1.00  0.00     0.173 HD
HETATM    8  C6  UNL     1      22.368  15.081  20.872  1.00  0.00     0.329 A 
HETATM    9  O2  UNL     1      22.285  14.969  19.629  1.00  0.00    -0.246 OA
HETATM   10  C7  UNL     1      22.445  15.173  25.056  1.00  0.00     0.046 C 
HETATM   11  C8  UNL     1      22.205  13.671  25.184  1.00  0.00     0.011 C 
HETATM   12  C9  UNL     1      21.225  13.441  24.038  1.00  0.00     0.058 C 
ENDROOT
BRANCH   1  13
HETATM   13  C2  UNL     1      20.988  13.122  21.053  1.00  0.00     0.177 C 
BRANCH  13  14
HETATM   14  C1  UNL     1      19.509  13.280  21.015  1.00  0.00     0.301 C 
BRANCH  14  15
HETATM   15  N1  UNL     1      19.087  14.553  21.551  1.00  0.00    -0.064 N 
ATOM     16  H13 UNL     1      18.148  14.496  21.944  1.00  0.00     0.275 HD
ATOM     17  H12 UNL     1      19.603  14.787  22.400  1.00  0.00     0.275 HD
ATOM     18  H11 UNL     1      19.155  15.299  20.859  1.00  0.00     0.275 HD
ENDBRANCH  14  15
BRANCH  14  19
HETATM   19  C10 UNL     1      18.922  12.204  21.848  1.00  0.00     0.206 C 
HETATM   20  O3  UNL     1      18.173  12.519  22.800  1.00  0.00    -0.646 OA
HETATM   21  O4  UNL     1      19.156  10.860  21.637  1.00  0.00    -0.646 OA
ENDBRANCH  14  19
ENDBRANCH  13  14
ENDBRANCH   1  13
TORSDOF 4
ENDMDL
