MODEL 4
REMARK VINA RESULT: -6.644248044      0.873      1.067
REMARK  4 active torsions:
REMARK  status: ('A' for Active; 'I' for Inactive)
REMARK    1  A    between atoms: N1_1  and  C1_5 
REMARK    2  A    between atoms: C1_5  and  C2_6 
REMARK    3  A    between atoms: C1_5  and  C10_19 
REMARK    4  A    between atoms: C2_6  and  N2_7 
ROOT
HETATM    1  N2  UNL     1      20.935  12.843  58.030  1.00  0.00    -0.300 N 
HETATM    2  C3  UNL     1      19.851  12.100  57.737  1.00  0.00     0.028 A 
HETATM    3  C4  UNL     1      19.949  10.832  57.178  1.00  0.00     0.033 A 
HETATM    4  C5  UNL     1      21.215  10.337  56.923  1.00  0.00     0.257 A 
HETATM    5  O1  UNL     1      21.384   9.202  56.420  1.00  0.00    -0.267 OA
HETATM    6  N3  UNL     1      22.290  11.095  57.223  1.00  0.00    -0.275 N 
ATOM      7  H3  UNL     1      23.227  10.735  57.038  1.00  0.00     0.173 HD
HETATM    8  C6  UNL     1      22.145  12.332  57.769  1.00  0.00     0.329 A 
HETATM    9  O2  UNL     1      23.151  13.022  58.042  1.00  0.00    -0.246 OA
HETATM   10  C7  UNL     1      18.579  10.286  56.980  1.00  0.00     0.046 C 
HETATM   11  C8  UNL     1      17.767  11.570  56.840  1.00  0.00     0.011 C 
HETATM   12  C9  UNL     1      18.404  12.431  57.925  1.00  0.00     0.058 C 
ENDROOT
BRANCH   1  13
HETATM   13  C2  UNL     1      20.793  14.136  58.605  1.00  0.00     0.177 C 
BRANCH  13  14
HETATM   14  C1  UNL     1      20.941  15.303  57.695  1.00  0.00     0.301 C 
BRANCH  14  15
HETATM   15  N1  UNL     1      21.820  15.015  56.586  1.00  0.00    -0.064 N 
ATOM     16  H13 UNL     1      21.343  15.140  55.693  1.00  0.00     0.275 HD
ATOM     17  H12 UNL     1      22.538  15.733  56.486  1.00  0.00     0.275 HD
ATOM     18  H11 UNL     1      22.233  14.086  56.658  1.00  0.00     0.275 HD
ENDBRANCH  14  15
BRANCH  14  19
HETATM   19  C10 UNL     1      21.529  16.412  58.481  1.00  0.00     0.206 C 
HETATM   20  O3  UNL     1      22.617  16.907  58.108  1.00  0.00    -0.646 OA
HETATM   21  O4  UNL     1      20.943  16.939  59.616  1.00  0.00    -0.646 OA
ENDBRANCH  14  19
ENDBRANCH  13  14
ENDBRANCH   1  13
TORSDOF 4
ENDMDL
