MODEL 8
REMARK VINA RESULT: -6.251248794      1.495      4.916
REMARK  4 active torsions:
REMARK  status: ('A' for Active; 'I' for Inactive)
REMARK    1  A    between atoms: N1_1  and  C1_5 
REMARK    2  A    between atoms: C1_5  and  C2_6 
REMARK    3  A    between atoms: C1_5  and  C10_19 
REMARK    4  A    between atoms: C2_6  and  N2_7 
ROOT
HETATM    1  N2  UNL     1      21.391  12.548  57.322  1.00  0.00    -0.300 N 
HETATM    2  C3  UNL     1      20.110  12.846  57.612  1.00  0.00     0.028 A 
HETATM    3  C4  UNL     1      19.760  13.942  58.390  1.00  0.00     0.033 A 
HETATM    4  C5  UNL     1      20.780  14.741  58.872  1.00  0.00     0.257 A 
HETATM    5  O1  UNL     1      20.544  15.747  59.580  1.00  0.00    -0.267 OA
HETATM    6  N3  UNL     1      22.059  14.428  58.571  1.00  0.00    -0.275 N 
ATOM      7  H3  UNL     1      22.816  15.014  58.923  1.00  0.00     0.173 HD
HETATM    8  C6  UNL     1      22.352  13.343  57.806  1.00  0.00     0.329 A 
HETATM    9  O2  UNL     1      23.542  13.067  57.536  1.00  0.00    -0.246 OA
HETATM   10  C7  UNL     1      18.278  13.988  58.519  1.00  0.00     0.046 C 
HETATM   11  C8  UNL     1      17.920  12.515  58.340  1.00  0.00     0.011 C 
HETATM   12  C9  UNL     1      18.861  12.130  57.203  1.00  0.00     0.058 C 
ENDROOT
BRANCH   1  13
HETATM   13  C2  UNL     1      21.707  11.418  56.519  1.00  0.00     0.177 C 
BRANCH  13  14
HETATM   14  C1  UNL     1      21.858  10.113  57.215  1.00  0.00     0.301 C 
BRANCH  14  15
HETATM   15  N1  UNL     1      22.961   9.344  56.688  1.00  0.00    -0.064 N 
ATOM     16  H13 UNL     1      22.897   9.253  55.674  1.00  0.00     0.275 HD
ATOM     17  H12 UNL     1      23.837   9.864  56.748  1.00  0.00     0.275 HD
ATOM     18  H11 UNL     1      23.039   8.432  57.137  1.00  0.00     0.275 HD
ENDBRANCH  14  15
BRANCH  14  19
HETATM   19  C10 UNL     1      20.609   9.345  57.005  1.00  0.00     0.206 C 
HETATM   20  O3  UNL     1      19.976   8.937  58.005  1.00  0.00    -0.646 OA
HETATM   21  O4  UNL     1      20.096   9.046  55.758  1.00  0.00    -0.646 OA
ENDBRANCH  14  19
ENDBRANCH  13  14
ENDBRANCH   1  13
TORSDOF 4
ENDMDL
