MODEL 9
REMARK VINA RESULT: -6.228148671      0.775      1.062
REMARK  4 active torsions:
REMARK  status: ('A' for Active; 'I' for Inactive)
REMARK    1  A    between atoms: N1_1  and  C1_5 
REMARK    2  A    between atoms: C1_5  and  C2_6 
REMARK    3  A    between atoms: C1_5  and  C10_19 
REMARK    4  A    between atoms: C2_6  and  N2_7 
ROOT
HETATM    1  N2  UNL     1      20.796  12.585  57.301  1.00  0.00    -0.300 N 
HETATM    2  C3  UNL     1      19.857  11.624  57.208  1.00  0.00     0.028 A 
HETATM    3  C4  UNL     1      20.176  10.295  56.962  1.00  0.00     0.033 A 
HETATM    4  C5  UNL     1      21.512   9.971  56.812  1.00  0.00     0.257 A 
HETATM    5  O1  UNL     1      21.878   8.794  56.589  1.00  0.00    -0.267 OA
HETATM    6  N3  UNL     1      22.440  10.947  56.909  1.00  0.00    -0.275 N 
ATOM      7  H3  UNL     1      23.427  10.714  56.800  1.00  0.00     0.173 HD
HETATM    8  C6  UNL     1      22.079  12.235  57.150  1.00  0.00     0.329 A 
HETATM    9  O2  UNL     1      22.951  13.127  57.237  1.00  0.00    -0.246 OA
HETATM   10  C7  UNL     1      18.921   9.498  56.920  1.00  0.00     0.046 C 
HETATM   11  C8  UNL     1      17.911  10.560  56.492  1.00  0.00     0.011 C 
HETATM   12  C9  UNL     1      18.371  11.745  57.335  1.00  0.00     0.058 C 
ENDROOT
BRANCH   1  13
HETATM   13  C2  UNL     1      20.428  13.934  57.557  1.00  0.00     0.177 C 
BRANCH  13  14
HETATM   14  C1  UNL     1      21.189  14.656  58.610  1.00  0.00     0.301 C 
BRANCH  14  15
HETATM   15  N1  UNL     1      20.397  14.873  59.798  1.00  0.00    -0.064 N 
ATOM     16  H13 UNL     1      20.964  14.791  60.641  1.00  0.00     0.275 HD
ATOM     17  H12 UNL     1      20.120  15.851  59.884  1.00  0.00     0.275 HD
ATOM     18  H11 UNL     1      19.588  14.254  59.834  1.00  0.00     0.275 HD
ENDBRANCH  14  15
BRANCH  14  19
HETATM   19  C10 UNL     1      21.576  15.976  58.059  1.00  0.00     0.206 C 
HETATM   20  O3  UNL     1      21.393  16.999  58.757  1.00  0.00    -0.646 OA
HETATM   21  O4  UNL     1      22.132  16.148  56.806  1.00  0.00    -0.646 OA
ENDBRANCH  14  19
ENDBRANCH  13  14
ENDBRANCH   1  13
TORSDOF 4
ENDMDL
