MODEL 5
REMARK VINA RESULT: -6.404966887      1.611      1.975
REMARK  4 active torsions:
REMARK  status: ('A' for Active; 'I' for Inactive)
REMARK    1  A    between atoms: N1_1  and  C1_5 
REMARK    2  A    between atoms: C1_5  and  C2_6 
REMARK    3  A    between atoms: C1_5  and  C10_19 
REMARK    4  A    between atoms: C2_6  and  N2_7 
ROOT
HETATM    1  N2  UNL     1      21.069  11.746  57.418  1.00  0.00    -0.300 N 
HETATM    2  C3  UNL     1      19.740  11.673  57.622  1.00  0.00     0.028 A 
HETATM    3  C4  UNL     1      19.004  10.535  57.321  1.00  0.00     0.033 A 
HETATM    4  C5  UNL     1      19.681   9.451  56.794  1.00  0.00     0.257 A 
HETATM    5  O1  UNL     1      19.085   8.389  56.497  1.00  0.00    -0.267 OA
HETATM    6  N3  UNL     1      21.013   9.541  56.596  1.00  0.00    -0.275 N 
ATOM      7  H3  UNL     1      21.519   8.744  56.208  1.00  0.00     0.173 HD
HETATM    8  C6  UNL     1      21.692  10.678  56.905  1.00  0.00     0.329 A 
HETATM    9  O2  UNL     1      22.926  10.745  56.716  1.00  0.00    -0.246 OA
HETATM   10  C7  UNL     1      17.577  10.781  57.663  1.00  0.00     0.046 C 
HETATM   11  C8  UNL     1      17.497  12.299  57.528  1.00  0.00     0.011 C 
HETATM   12  C9  UNL     1      18.815  12.711  58.175  1.00  0.00     0.058 C 
ENDROOT
BRANCH   1  13
HETATM   13  C2  UNL     1      21.788  12.929  57.743  1.00  0.00     0.177 C 
BRANCH  13  14
HETATM   14  C1  UNL     1      21.270  14.210  57.193  1.00  0.00     0.301 C 
BRANCH  14  15
HETATM   15  N1  UNL     1      21.891  14.548  55.934  1.00  0.00    -0.064 N 
ATOM     16  H13 UNL     1      22.800  14.989  56.077  1.00  0.00     0.275 HD
ATOM     17  H12 UNL     1      22.195  13.712  55.434  1.00  0.00     0.275 HD
ATOM     18  H11 UNL     1      21.286  15.128  55.354  1.00  0.00     0.275 HD
ENDBRANCH  14  15
BRANCH  14  19
HETATM   19  C10 UNL     1      21.583  15.277  58.171  1.00  0.00     0.206 C 
HETATM   20  O3  UNL     1      21.274  15.105  59.372  1.00  0.00    -0.646 OA
HETATM   21  O4  UNL     1      22.200  16.466  57.835  1.00  0.00    -0.646 OA
ENDBRANCH  14  19
ENDBRANCH  13  14
ENDBRANCH   1  13
TORSDOF 4
ENDMDL
