MODEL 7
REMARK VINA RESULT: -6.286724420      2.338      4.593
REMARK  4 active torsions:
REMARK  status: ('A' for Active; 'I' for Inactive)
REMARK    1  A    between atoms: N1_1  and  C1_5 
REMARK    2  A    between atoms: C1_5  and  C2_6 
REMARK    3  A    between atoms: C1_5  and  C10_19 
REMARK    4  A    between atoms: C2_6  and  N2_7 
ROOT
HETATM    1  N2  UNL     1      20.613  11.386  57.648  1.00  0.00    -0.300 N 
HETATM    2  C3  UNL     1      20.725  12.728  57.633  1.00  0.00     0.028 A 
HETATM    3  C4  UNL     1      21.852  13.374  57.143  1.00  0.00     0.033 A 
HETATM    4  C5  UNL     1      22.883  12.591  56.657  1.00  0.00     0.257 A 
HETATM    5  O1  UNL     1      23.931  13.101  56.198  1.00  0.00    -0.267 OA
HETATM    6  N3  UNL     1      22.754  11.247  56.679  1.00  0.00    -0.275 N 
ATOM      7  H3  UNL     1      23.511  10.664  56.322  1.00  0.00     0.173 HD
HETATM    8  C6  UNL     1      21.631  10.659  57.171  1.00  0.00     0.329 A 
HETATM    9  O2  UNL     1      21.527   9.413  57.184  1.00  0.00    -0.246 OA
HETATM   10  C7  UNL     1      21.657  14.844  57.269  1.00  0.00     0.046 C 
HETATM   11  C8  UNL     1      20.683  14.914  58.441  1.00  0.00     0.011 C 
HETATM   12  C9  UNL     1      19.746  13.759  58.102  1.00  0.00     0.058 C 
ENDROOT
BRANCH   1  13
HETATM   13  C2  UNL     1      19.441  10.763  58.156  1.00  0.00     0.177 C 
BRANCH  13  14
HETATM   14  C1  UNL     1      18.251  10.727  57.264  1.00  0.00     0.301 C 
BRANCH  14  15
HETATM   15  N1  UNL     1      18.480  11.441  56.030  1.00  0.00    -0.064 N 
ATOM     16  H13 UNL     1      19.282  12.066  56.107  1.00  0.00     0.275 HD
ATOM     17  H12 UNL     1      18.830  10.818  55.301  1.00  0.00     0.275 HD
ATOM     18  H11 UNL     1      17.648  11.943  55.720  1.00  0.00     0.275 HD
ENDBRANCH  14  15
BRANCH  14  19
HETATM   19  C10 UNL     1      17.133  11.381  57.982  1.00  0.00     0.206 C 
HETATM   20  O3  UNL     1      16.583  12.378  57.463  1.00  0.00    -0.646 OA
HETATM   21  O4  UNL     1      16.655  10.953  59.205  1.00  0.00    -0.646 OA
ENDBRANCH  14  19
ENDBRANCH  13  14
ENDBRANCH   1  13
TORSDOF 4
ENDMDL
