MODEL 1
REMARK VINA RESULT: -9.210353863      0.000      0.000
REMARK  4 active torsions:
REMARK  status: ('A' for Active; 'I' for Inactive)
REMARK    1  A    between atoms: N1_1  and  C1_5 
REMARK    2  A    between atoms: C1_5  and  C2_6 
REMARK    3  A    between atoms: C1_5  and  C10_19 
REMARK    4  A    between atoms: C2_6  and  N2_7 
ROOT
HETATM    1  N2  UNL     1      20.970  13.004  57.512  1.00  0.00    -0.300 N 
HETATM    2  C3  UNL     1      19.861  12.241  57.550  1.00  0.00     0.028 A 
HETATM    3  C4  UNL     1      19.908  10.857  57.438  1.00  0.00     0.033 A 
HETATM    4  C5  UNL     1      21.148  10.265  57.284  1.00  0.00     0.257 A 
HETATM    5  O1  UNL     1      21.271   9.023  57.177  1.00  0.00    -0.267 OA
HETATM    6  N3  UNL     1      22.249  11.045  57.250  1.00  0.00    -0.275 N 
ATOM      7  H3  UNL     1      23.167  10.615  57.137  1.00  0.00     0.173 HD
HETATM    8  C6  UNL     1      22.154  12.397  57.362  1.00  0.00     0.329 A 
HETATM    9  O2  UNL     1      23.183  13.106  57.328  1.00  0.00    -0.246 OA
HETATM   10  C7  UNL     1      18.522  10.321  57.518  1.00  0.00     0.046 C 
HETATM   11  C8  UNL     1      17.715  11.512  57.009  1.00  0.00     0.011 C 
HETATM   12  C9  UNL     1      18.434  12.662  57.707  1.00  0.00     0.058 C 
ENDROOT
BRANCH   1  13
HETATM   13  C2  UNL     1      20.881  14.418  57.634  1.00  0.00     0.177 C 
BRANCH  13  14
HETATM   14  C1  UNL     1      21.264  15.012  58.942  1.00  0.00     0.301 C 
BRANCH  14  15
HETATM   15  N1  UNL     1      20.218  14.871  59.927  1.00  0.00    -0.064 N 
ATOM     16  H13 UNL     1      20.366  14.047  60.509  1.00  0.00     0.275 HD
ATOM     17  H12 UNL     1      20.288  15.591  60.647  1.00  0.00     0.275 HD
ATOM     18  H11 UNL     1      19.292  14.862  59.501  1.00  0.00     0.275 HD
ENDBRANCH  14  15
BRANCH  14  19
HETATM   19  C10 UNL     1      21.510  16.456  58.724  1.00  0.00     0.206 C 
HETATM   20  O3  UNL     1      22.481  16.803  58.014  1.00  0.00    -0.646 OA
HETATM   21  O4  UNL     1      20.725  17.456  59.264  1.00  0.00    -0.646 OA
ENDBRANCH  14  19
ENDBRANCH  13  14
ENDBRANCH   1  13
TORSDOF 4
ENDMDL
