MODEL 2
REMARK VINA RESULT: -6.929988669      1.431      1.664
REMARK  4 active torsions:
REMARK  status: ('A' for Active; 'I' for Inactive)
REMARK    1  A    between atoms: N1_1  and  C1_5 
REMARK    2  A    between atoms: C1_5  and  C2_6 
REMARK    3  A    between atoms: C1_5  and  C10_19 
REMARK    4  A    between atoms: C2_6  and  N2_7 
ROOT
HETATM    1  N2  UNL     1      20.664  12.167  57.234  1.00  0.00    -0.300 N 
HETATM    2  C3  UNL     1      19.431  11.900  57.706  1.00  0.00     0.028 A 
HETATM    3  C4  UNL     1      19.022  10.613  58.029  1.00  0.00     0.033 A 
HETATM    4  C5  UNL     1      19.930   9.585  57.851  1.00  0.00     0.257 A 
HETATM    5  O1  UNL     1      19.635   8.398  58.120  1.00  0.00    -0.267 OA
HETATM    6  N3  UNL     1      21.162   9.871  57.378  1.00  0.00    -0.275 N 
ATOM      7  H3  UNL     1      21.837   9.117  57.246  1.00  0.00     0.173 HD
HETATM    8  C6  UNL     1      21.517  11.148  57.075  1.00  0.00     0.329 A 
HETATM    9  O2  UNL     1      22.662  11.396  56.638  1.00  0.00    -0.246 OA
HETATM   10  C7  UNL     1      17.617  10.662  58.517  1.00  0.00     0.046 C 
HETATM   11  C8  UNL     1      17.103  11.914  57.811  1.00  0.00     0.011 C 
HETATM   12  C9  UNL     1      18.300  12.844  57.973  1.00  0.00     0.058 C 
ENDROOT
BRANCH   1  13
HETATM   13  C2  UNL     1      21.045  13.500  56.919  1.00  0.00     0.177 C 
BRANCH  13  14
HETATM   14  C1  UNL     1      22.142  14.100  57.725  1.00  0.00     0.301 C 
BRANCH  14  15
HETATM   15  N1  UNL     1      22.612  13.201  58.753  1.00  0.00    -0.064 N 
ATOM     16  H13 UNL     1      21.875  12.992  59.426  1.00  0.00     0.275 HD
ATOM     17  H12 UNL     1      22.763  12.262  58.383  1.00  0.00     0.275 HD
ATOM     18  H11 UNL     1      23.447  13.556  59.217  1.00  0.00     0.275 HD
ENDBRANCH  14  15
BRANCH  14  19
HETATM   19  C10 UNL     1      21.605  15.317  58.377  1.00  0.00     0.206 C 
HETATM   20  O3  UNL     1      20.700  15.193  59.233  1.00  0.00    -0.646 OA
HETATM   21  O4  UNL     1      22.046  16.594  58.093  1.00  0.00    -0.646 OA
ENDBRANCH  14  19
ENDBRANCH  13  14
ENDBRANCH   1  13
TORSDOF 4
ENDMDL
