MODEL 6
REMARK VINA RESULT: -6.355646004      2.075      5.525
REMARK  4 active torsions:
REMARK  status: ('A' for Active; 'I' for Inactive)
REMARK    1  A    between atoms: N1_1  and  C1_5 
REMARK    2  A    between atoms: C1_5  and  C2_6 
REMARK    3  A    between atoms: C1_5  and  C10_19 
REMARK    4  A    between atoms: C2_6  and  N2_7 
ROOT
HETATM    1  N2  UNL     1      19.539  12.426  57.339  1.00  0.00    -0.300 N 
HETATM    2  C3  UNL     1      20.878  12.569  57.353  1.00  0.00     0.028 A 
HETATM    3  C4  UNL     1      21.508  13.596  58.043  1.00  0.00     0.033 A 
HETATM    4  C5  UNL     1      20.711  14.492  58.733  1.00  0.00     0.257 A 
HETATM    5  O1  UNL     1      21.206  15.444  59.378  1.00  0.00    -0.267 OA
HETATM    6  N3  UNL     1      19.371  14.333  58.708  1.00  0.00    -0.275 N 
ATOM      7  H3  UNL     1      18.778  14.989  59.216  1.00  0.00     0.173 HD
HETATM    8  C6  UNL     1      18.799  13.311  58.018  1.00  0.00     0.329 A 
HETATM    9  O2  UNL     1      17.556  13.177  58.005  1.00  0.00    -0.246 OA
HETATM   10  C7  UNL     1      22.979  13.471  57.857  1.00  0.00     0.046 C 
HETATM   11  C8  UNL     1      23.046  12.745  56.516  1.00  0.00     0.011 C 
HETATM   12  C9  UNL     1      21.921  11.729  56.686  1.00  0.00     0.058 C 
ENDROOT
BRANCH   1  13
HETATM   13  C2  UNL     1      18.933  11.358  56.623  1.00  0.00     0.177 C 
BRANCH  13  14
HETATM   14  C1  UNL     1      18.473  10.186  57.415  1.00  0.00     0.301 C 
BRANCH  14  15
HETATM   15  N1  UNL     1      18.471  10.458  58.833  1.00  0.00    -0.064 N 
ATOM     16  H13 UNL     1      18.015   9.709  59.353  1.00  0.00     0.275 HD
ATOM     17  H12 UNL     1      19.409  10.378  59.226  1.00  0.00     0.275 HD
ATOM     18  H11 UNL     1      18.055  11.364  59.046  1.00  0.00     0.275 HD
ENDBRANCH  14  15
BRANCH  14  19
HETATM   19  C10 UNL     1      19.414   9.071  57.153  1.00  0.00     0.206 C 
HETATM   20  O3  UNL     1      19.863   8.421  58.124  1.00  0.00    -0.646 OA
HETATM   21  O4  UNL     1      19.831   8.703  55.890  1.00  0.00    -0.646 OA
ENDBRANCH  14  19
ENDBRANCH  13  14
ENDBRANCH   1  13
TORSDOF 4
ENDMDL
