MODEL 3
REMARK VINA RESULT: -12.150184231      1.870      2.459
REMARK  8 active torsions:
REMARK  status: ('A' for Active; 'I' for Inactive)
REMARK    1  A    between atoms: C9_11  and  C10_12 
REMARK    2  A    between atoms: C10_12  and  N2_13 
REMARK    3  A    between atoms: N2_13  and  C11_15 
REMARK    4  A    between atoms: N3_22  and  C18_23 
REMARK    5  A    between atoms: C18_23  and  C19_24 
REMARK    6  A    between atoms: C18_23  and  C22_29 
REMARK    7  A    between atoms: C19_24  and  C20_25 
REMARK    8  A    between atoms: C20_25  and  C21_26 
ROOT
HETATM    1  N2  UNL     1      15.451  15.939  34.545  1.00  0.00    -0.386 N 
ATOM      2  H2  UNL     1      14.850  15.603  35.298  1.00  0.00     0.160 HD
ENDROOT
BRANCH   1   3
HETATM    3  C10 UNL     1      16.710  15.286  34.336  1.00  0.00     0.158 C 
BRANCH   3   4
HETATM    4  C9  UNL     1      16.688  13.907  34.851  1.00  0.00    -0.040 A 
HETATM    5  C8  UNL     1      17.651  12.979  34.490  1.00  0.00     0.010 A 
HETATM    6  C7  UNL     1      17.585  11.704  35.005  1.00  0.00     0.013 A 
HETATM    7  C6  UNL     1      16.597  11.297  35.870  1.00  0.00    -0.025 A 
HETATM    8  C5  UNL     1      16.565  10.008  36.363  1.00  0.00     0.014 A 
HETATM    9  C25 UNL     1      15.621  12.238  36.234  1.00  0.00    -0.007 A 
HETATM   10  C4  UNL     1      15.553   9.672  37.219  1.00  0.00     0.031 A 
HETATM   11  C3  UNL     1      14.573  10.556  37.606  1.00  0.00     0.050 A 
HETATM   12  N1  UNL     1      13.596  10.174  38.450  1.00  0.00    -0.345 N 
HETATM   13  C26 UNL     1      14.593  11.874  37.111  1.00  0.00     0.070 A 
HETATM   14  C2  UNL     1      12.657  11.065  38.803  1.00  0.00     0.080 A 
ATOM     15  H1  UNL     1      13.570   9.222  38.815  1.00  0.00     0.167 HD
HETATM   16  C1  UNL     1      11.566  10.664  39.732  1.00  0.00     0.089 C 
HETATM   17  N4  UNL     1      12.653  12.314  38.349  1.00  0.00    -0.312 N 
HETATM   18  C27 UNL     1      13.626  12.759  37.486  1.00  0.00     0.260 A 
ATOM     19  H4  UNL     1      11.916  12.953  38.647  1.00  0.00     0.170 HD
HETATM   20  O6  UNL     1      13.586  13.929  37.089  1.00  0.00    -0.267 OA
HETATM   21  C24 UNL     1      15.666  13.513  35.736  1.00  0.00     0.022 A 
ENDBRANCH   3   4
ENDBRANCH   1   3
BRANCH   1  22
HETATM   22  C11 UNL     1      14.998  17.027  33.761  1.00  0.00     0.028 A 
HETATM   23  C12 UNL     1      13.645  17.324  33.660  1.00  0.00     0.030 A 
HETATM   24  C13 UNL     1      13.231  18.381  32.883  1.00  0.00     0.020 A 
HETATM   25  C14 UNL     1      14.138  19.166  32.190  1.00  0.00     0.040 A 
HETATM   26  C15 UNL     1      15.493  18.895  32.271  1.00  0.00    -0.022 A 
HETATM   27  C23 UNL     1      14.004  20.310  31.293  1.00  0.00     0.255 A 
HETATM   28  C16 UNL     1      15.863  17.832  33.057  1.00  0.00     0.039 A 
HETATM   29  C17 UNL     1      16.263  19.878  31.455  1.00  0.00     0.167 A 
HETATM   30  N3  UNL     1      15.263  20.719  30.840  1.00  0.00    -0.329 N 
HETATM   31  O5  UNL     1      12.903  20.844  30.979  1.00  0.00    -0.267 OA
BRANCH  30  32
HETATM   32  C18 UNL     1      15.605  21.798  29.905  1.00  0.00     0.189 C 
BRANCH  32  33
HETATM   33  C19 UNL     1      14.691  21.772  28.722  1.00  0.00     0.047 C 
BRANCH  33  34
HETATM   34  C20 UNL     1      15.485  21.723  27.449  1.00  0.00     0.116 C 
BRANCH  34  35
HETATM   35  C21 UNL     1      15.471  23.088  26.840  1.00  0.00     0.172 C 
HETATM   36  O1  UNL     1      14.769  23.288  25.809  1.00  0.00    -0.648 OA
HETATM   37  O2  UNL     1      16.203  24.159  27.360  1.00  0.00    -0.648 OA
ENDBRANCH  34  35
ENDBRANCH  33  34
ENDBRANCH  32  33
BRANCH  32  38
HETATM   38  C22 UNL     1      15.441  23.048  30.662  1.00  0.00     0.197 C 
HETATM   39  O3  UNL     1      14.612  23.918  30.311  1.00  0.00    -0.646 OA
HETATM   40  O4  UNL     1      16.191  23.308  31.786  1.00  0.00    -0.646 OA
ENDBRANCH  32  38
ENDBRANCH  30  32
ENDBRANCH   1  22
TORSDOF 8
ENDMDL
