MODEL 2
REMARK VINA RESULT: -12.280066808      1.904      2.942
REMARK  8 active torsions:
REMARK  status: ('A' for Active; 'I' for Inactive)
REMARK    1  A    between atoms: C9_11  and  C10_12 
REMARK    2  A    between atoms: C10_12  and  N2_13 
REMARK    3  A    between atoms: N2_13  and  C11_15 
REMARK    4  A    between atoms: N3_22  and  C18_23 
REMARK    5  A    between atoms: C18_23  and  C19_24 
REMARK    6  A    between atoms: C18_23  and  C22_29 
REMARK    7  A    between atoms: C19_24  and  C20_25 
REMARK    8  A    between atoms: C20_25  and  C21_26 
ROOT
HETATM    1  N2  UNL     1      18.926  14.015  32.336  1.00  0.00    -0.386 N 
ATOM      2  H2  UNL     1      19.566  13.481  31.747  1.00  0.00     0.160 HD
ENDROOT
BRANCH   1   3
HETATM    3  C10 UNL     1      19.161  14.038  33.750  1.00  0.00     0.158 C 
BRANCH   3   4
HETATM    4  C9  UNL     1      18.380  12.996  34.438  1.00  0.00    -0.040 A 
HETATM    5  C8  UNL     1      18.837  11.693  34.544  1.00  0.00     0.010 A 
HETATM    6  C7  UNL     1      18.069  10.760  35.202  1.00  0.00     0.013 A 
HETATM    7  C6  UNL     1      16.851  11.058  35.767  1.00  0.00    -0.025 A 
HETATM    8  C5  UNL     1      16.109  10.093  36.417  1.00  0.00     0.014 A 
HETATM    9  C25 UNL     1      16.389  12.379  35.658  1.00  0.00    -0.007 A 
HETATM   10  C4  UNL     1      14.907  10.460  36.956  1.00  0.00     0.031 A 
HETATM   11  C3  UNL     1      14.409  11.740  36.876  1.00  0.00     0.050 A 
HETATM   12  N1  UNL     1      13.217  12.049  37.421  1.00  0.00    -0.345 N 
HETATM   13  C26 UNL     1      15.155  12.734  36.215  1.00  0.00     0.070 A 
HETATM   14  C2  UNL     1      12.765  13.308  37.321  1.00  0.00     0.080 A 
ATOM     15  H1  UNL     1      12.667  11.338  37.902  1.00  0.00     0.167 HD
HETATM   16  C1  UNL     1      11.449  13.672  37.913  1.00  0.00     0.089 C 
HETATM   17  N4  UNL     1      13.449  14.265  36.702  1.00  0.00    -0.312 N 
HETATM   18  C27 UNL     1      14.671  14.007  36.129  1.00  0.00     0.260 A 
ATOM     19  H4  UNL     1      13.060  15.207  36.652  1.00  0.00     0.170 HD
HETATM   20  O6  UNL     1      15.275  14.925  35.563  1.00  0.00    -0.267 OA
HETATM   21  C24 UNL     1      17.136  13.325  35.009  1.00  0.00     0.022 A 
ENDBRANCH   3   4
ENDBRANCH   1   3
BRANCH   1  22
HETATM   22  C11 UNL     1      17.852  14.696  31.714  1.00  0.00     0.028 A 
HETATM   23  C12 UNL     1      17.028  14.052  30.800  1.00  0.00     0.030 A 
HETATM   24  C13 UNL     1      15.997  14.740  30.203  1.00  0.00     0.020 A 
HETATM   25  C14 UNL     1      15.757  16.073  30.491  1.00  0.00     0.040 A 
HETATM   26  C15 UNL     1      16.561  16.742  31.397  1.00  0.00    -0.022 A 
HETATM   27  C23 UNL     1      14.780  17.049  30.014  1.00  0.00     0.255 A 
HETATM   28  C16 UNL     1      17.578  16.019  31.970  1.00  0.00     0.039 A 
HETATM   29  C17 UNL     1      16.101  18.153  31.549  1.00  0.00     0.167 A 
HETATM   30  N3  UNL     1      14.998  18.288  30.626  1.00  0.00    -0.329 N 
HETATM   31  O5  UNL     1      13.875  16.797  29.171  1.00  0.00    -0.267 OA
BRANCH  30  32
HETATM   32  C18 UNL     1      14.285  19.557  30.428  1.00  0.00     0.189 C 
BRANCH  32  33
HETATM   33  C19 UNL     1      14.776  20.586  31.394  1.00  0.00     0.047 C 
BRANCH  33  34
HETATM   34  C20 UNL     1      13.983  21.853  31.257  1.00  0.00     0.116 C 
BRANCH  34  35
HETATM   35  C21 UNL     1      14.942  22.984  31.062  1.00  0.00     0.172 C 
HETATM   36  O1  UNL     1      14.636  23.911  30.262  1.00  0.00    -0.648 OA
HETATM   37  O2  UNL     1      16.169  23.061  31.727  1.00  0.00    -0.648 OA
ENDBRANCH  34  35
ENDBRANCH  33  34
ENDBRANCH  32  33
BRANCH  32  38
HETATM   38  C22 UNL     1      14.570  19.962  29.044  1.00  0.00     0.197 C 
HETATM   39  O3  UNL     1      15.714  20.336  28.698  1.00  0.00    -0.646 OA
HETATM   40  O4  UNL     1      13.593  19.944  28.076  1.00  0.00    -0.646 OA
ENDBRANCH  32  38
ENDBRANCH  30  32
ENDBRANCH   1  22
TORSDOF 8
ENDMDL
