MODEL 1
REMARK VINA RESULT: -12.469716087      0.000      0.000
REMARK  8 active torsions:
REMARK  status: ('A' for Active; 'I' for Inactive)
REMARK    1  A    between atoms: C9_11  and  C10_12 
REMARK    2  A    between atoms: C10_12  and  N2_13 
REMARK    3  A    between atoms: N2_13  and  C11_15 
REMARK    4  A    between atoms: N3_22  and  C18_23 
REMARK    5  A    between atoms: C18_23  and  C19_24 
REMARK    6  A    between atoms: C18_23  and  C22_29 
REMARK    7  A    between atoms: C19_24  and  C20_25 
REMARK    8  A    between atoms: C20_25  and  C21_26 
ROOT
HETATM    1  N2  UNL     1      17.838  15.760  32.391  1.00  0.00    -0.386 N 
ATOM      2  H2  UNL     1      17.366  15.076  31.798  1.00  0.00     0.160 HD
ENDROOT
BRANCH   1   3
HETATM    3  C10 UNL     1      18.742  15.280  33.395  1.00  0.00     0.158 C 
BRANCH   3   4
HETATM    4  C9  UNL     1      18.203  14.092  34.076  1.00  0.00    -0.040 A 
HETATM    5  C8  UNL     1      18.872  12.879  34.064  1.00  0.00     0.010 A 
HETATM    6  C7  UNL     1      18.326  11.801  34.722  1.00  0.00     0.013 A 
HETATM    7  C6  UNL     1      17.130  11.865  35.398  1.00  0.00    -0.025 A 
HETATM    8  C5  UNL     1      16.614  10.759  36.044  1.00  0.00     0.014 A 
HETATM    9  C25 UNL     1      16.453  13.094  35.408  1.00  0.00    -0.007 A 
HETATM   10  C4  UNL     1      15.420  10.896  36.697  1.00  0.00     0.031 A 
HETATM   11  C3  UNL     1      14.717  12.077  36.737  1.00  0.00     0.050 A 
HETATM   12  N1  UNL     1      13.543  12.158  37.391  1.00  0.00    -0.345 N 
HETATM   13  C26 UNL     1      15.232  13.212  36.082  1.00  0.00     0.070 A 
HETATM   14  C2  UNL     1      12.886  13.328  37.405  1.00  0.00     0.080 A 
ATOM     15  H1  UNL     1      13.159  11.343  37.869  1.00  0.00     0.167 HD
HETATM   16  C1  UNL     1      11.586  13.439  38.121  1.00  0.00     0.089 C 
HETATM   17  N4  UNL     1      13.350  14.413  36.795  1.00  0.00    -0.312 N 
HETATM   18  C27 UNL     1      14.543  14.390  36.113  1.00  0.00     0.260 A 
ATOM     19  H4  UNL     1      12.811  15.279  36.835  1.00  0.00     0.170 HD
HETATM   20  O6  UNL     1      14.938  15.422  35.559  1.00  0.00    -0.267 OA
HETATM   21  C24 UNL     1      16.977  14.182  34.763  1.00  0.00     0.022 A 
ENDBRANCH   3   4
ENDBRANCH   1   3
BRANCH   1  22
HETATM   22  C11 UNL     1      17.564  17.132  32.180  1.00  0.00     0.028 A 
HETATM   23  C12 UNL     1      18.214  18.115  32.915  1.00  0.00     0.030 A 
HETATM   24  C13 UNL     1      17.923  19.440  32.696  1.00  0.00     0.020 A 
HETATM   25  C14 UNL     1      16.986  19.827  31.751  1.00  0.00     0.040 A 
HETATM   26  C15 UNL     1      16.322  18.871  31.002  1.00  0.00    -0.022 A 
HETATM   27  C23 UNL     1      16.462  21.120  31.319  1.00  0.00     0.255 A 
HETATM   28  C16 UNL     1      16.643  17.560  31.252  1.00  0.00     0.039 A 
HETATM   29  C17 UNL     1      15.381  19.528  30.050  1.00  0.00     0.167 A 
HETATM   30  N3  UNL     1      15.494  20.941  30.326  1.00  0.00    -0.329 N 
HETATM   31  O5  UNL     1      16.838  22.232  31.785  1.00  0.00    -0.267 OA
BRANCH  30  32
HETATM   32  C18 UNL     1      14.685  21.950  29.629  1.00  0.00     0.189 C 
BRANCH  32  33
HETATM   33  C19 UNL     1      15.083  22.033  28.191  1.00  0.00     0.047 C 
BRANCH  33  34
HETATM   34  C20 UNL     1      15.800  23.324  27.921  1.00  0.00     0.116 C 
BRANCH  34  35
HETATM   35  C21 UNL     1      15.313  23.862  26.613  1.00  0.00     0.172 C 
HETATM   36  O1  UNL     1      15.838  23.438  25.547  1.00  0.00    -0.648 OA
HETATM   37  O2  UNL     1      14.299  24.820  26.517  1.00  0.00    -0.648 OA
ENDBRANCH  34  35
ENDBRANCH  33  34
ENDBRANCH  32  33
BRANCH  32  38
HETATM   38  C22 UNL     1      13.291  21.500  29.759  1.00  0.00     0.197 C 
HETATM   39  O3  UNL     1      12.620  21.161  28.757  1.00  0.00    -0.646 OA
HETATM   40  O4  UNL     1      12.672  21.432  30.985  1.00  0.00    -0.646 OA
ENDBRANCH  32  38
ENDBRANCH  30  32
ENDBRANCH   1  22
TORSDOF 8
ENDMDL
