MODEL 2
REMARK VINA RESULT: -9.129459377      1.156      1.917
REMARK  14 active torsions:
REMARK  status: ('A' for Active; 'I' for Inactive)
REMARK    1  A    between atoms: N5_13  and  C6_14 
REMARK    2  A    between atoms: C7_16  and  C8_17 
REMARK    3  A    between atoms: C8_17  and  O2_18 
REMARK    4  A    between atoms: O2_18  and  P1_19 
REMARK    5  A    between atoms: P1_19  and  O5_22 
REMARK    6  A    between atoms: O5_22  and  P2_23 
REMARK    7  A    between atoms: P2_23  and  O8_26 
REMARK    8  A    between atoms: O8_26  and  C9_27 
REMARK    9  A    between atoms: C9_27  and  C10_28 
REMARK   10  A    between atoms: C11_30  and  O10_31 
REMARK   11  A    between atoms: C12_33  and  O11_34 
REMARK   12  A    between atoms: C13_36  and  O12_37 
REMARK   13  A    between atoms: C14_39  and  O13_40 
REMARK   14  A    between atoms: C15_42  and  O14_43 
ROOT
HETATM    1  C6  UNL     1      -7.009  38.238 -45.665  1.00  0.00     0.262 C 
HETATM    2  O1  UNL     1      -6.776  37.740 -46.923  1.00  0.00    -0.353 OA
HETATM    3  C7  UNL     1      -5.726  36.866 -46.889  1.00  0.00     0.180 C 
HETATM    4  C14 UNL     1      -5.136  36.881 -45.493  1.00  0.00     0.182 C 
HETATM    5  C15 UNL     1      -6.402  37.220 -44.692  1.00  0.00     0.198 C 
ENDROOT
BRANCH   3   6
HETATM    6  C8  UNL     1      -6.148  35.459 -47.268  1.00  0.00     0.216 C 
BRANCH   6   7
HETATM    7  O2  UNL     1      -5.977  34.548 -46.315  1.00  0.00    -0.287 OA
BRANCH   7   8
HETATM    8  P1  UNL     1      -7.059  33.424 -45.921  1.00  0.00     0.417 P 
HETATM    9  O3  UNL     1      -6.115  32.314 -46.419  1.00  0.00    -0.624 OA
HETATM   10  O4  UNL     1      -8.167  34.458 -45.756  1.00  0.00    -0.624 OA
BRANCH   8  11
HETATM   11  O5  UNL     1      -7.192  32.764 -44.436  1.00  0.00    -0.180 OA
BRANCH  11  12
HETATM   12  P2  UNL     1      -6.848  33.437 -43.100  1.00  0.00     0.417 P 
HETATM   13  O6  UNL     1      -6.154  34.158 -41.919  1.00  0.00    -0.624 OA
HETATM   14  O7  UNL     1      -5.502  32.375 -43.109  1.00  0.00    -0.624 OA
BRANCH  12  15
HETATM   15  O8  UNL     1      -8.153  32.958 -42.298  1.00  0.00    -0.287 OA
BRANCH  15  16
HETATM   16  C9  UNL     1      -9.149  32.300 -42.953  1.00  0.00     0.216 C 
BRANCH  16  17
HETATM   17  C10 UNL     1     -10.266  31.811 -42.102  1.00  0.00     0.180 C 
HETATM   18  O9  UNL     1      -9.847  30.683 -41.398  1.00  0.00    -0.349 OA
HETATM   19  C11 UNL     1     -10.978  30.444 -40.588  1.00  0.00     0.288 C 
HETATM   20  C12 UNL     1     -11.393  31.802 -40.053  1.00  0.00     0.204 C 
HETATM   21  C13 UNL     1     -10.663  32.744 -41.001  1.00  0.00     0.182 C 
BRANCH  19  22
HETATM   22  O10 UNL     1     -10.715  29.542 -39.578  1.00  0.00    -0.369 OA
ATOM     23  H10 UNL     1     -10.628  28.654 -39.904  1.00  0.00     0.212 HD
ENDBRANCH  19  22
BRANCH  20  24
HETATM   24  O11 UNL     1     -12.750  31.948 -40.318  1.00  0.00    -0.388 OA
ATOM     25  H11 UNL     1     -13.170  32.191 -39.501  1.00  0.00     0.210 HD
ENDBRANCH  20  24
BRANCH  21  26
HETATM   26  O12 UNL     1     -11.519  33.753 -41.430  1.00  0.00    -0.390 OA
ATOM     27  H12 UNL     1     -11.325  34.053 -42.309  1.00  0.00     0.210 HD
ENDBRANCH  21  26
ENDBRANCH  16  17
ENDBRANCH  15  16
ENDBRANCH  12  15
ENDBRANCH  11  12
ENDBRANCH   8  11
ENDBRANCH   7   8
ENDBRANCH   6   7
ENDBRANCH   3   6
BRANCH   4  28
HETATM   28  O13 UNL     1      -4.209  37.878 -45.317  1.00  0.00    -0.390 OA
ATOM     29  H13 UNL     1      -3.413  37.734 -45.815  1.00  0.00     0.210 HD
ENDBRANCH   4  28
BRANCH   1  30
HETATM   30  N5  UNL     1      -8.380  38.517 -45.372  1.00  0.00    -0.297 N 
HETATM   31  C3  UNL     1      -8.838  39.322 -44.390  1.00  0.00     0.142 A 
HETATM   32  N3  UNL     1      -8.262  40.078 -43.432  1.00  0.00    -0.336 N 
HETATM   33  C4  UNL     1     -10.217  39.333 -44.429  1.00  0.00     0.119 A 
HETATM   34  C2  UNL     1      -8.950  40.811 -42.551  1.00  0.00     0.183 A 
ATOM     35  H3  UNL     1      -7.244  40.091 -43.377  1.00  0.00     0.168 HD
HETATM   36  N2  UNL     1     -10.309  40.801 -42.614  1.00  0.00    -0.339 N 
HETATM   37  C1  UNL     1     -10.963  40.075 -43.538  1.00  0.00     0.148 A 
ATOM     38  H2  UNL     1     -10.843  41.356 -41.946  1.00  0.00     0.167 HD
HETATM   39  N1  UNL     1     -12.382  40.121 -43.535  1.00  0.00    -0.080 NA
HETATM   40  N4  UNL     1     -10.585  38.537 -45.431  1.00  0.00    -0.346 N 
HETATM   41  C5  UNL     1      -9.465  38.048 -45.993  1.00  0.00     0.188 A 
ATOM     42  H4  UNL     1     -11.543  38.334 -45.720  1.00  0.00     0.167 HD
ENDBRANCH   1  30
BRANCH   5  43
HETATM   43  O14 UNL     1      -6.117  37.779 -43.476  1.00  0.00    -0.388 OA
ATOM     44  H14 UNL     1      -5.401  38.401 -43.529  1.00  0.00     0.210 HD
ENDBRANCH   5  43
TORSDOF 14
ENDMDL
