MODEL 16
REMARK VINA RESULT: -8.848073423      4.762     10.123
REMARK  14 active torsions:
REMARK  status: ('A' for Active; 'I' for Inactive)
REMARK    1  A    between atoms: N5_13  and  C6_14 
REMARK    2  A    between atoms: C7_16  and  C8_17 
REMARK    3  A    between atoms: C8_17  and  O2_18 
REMARK    4  A    between atoms: O2_18  and  P1_19 
REMARK    5  A    between atoms: P1_19  and  O5_22 
REMARK    6  A    between atoms: O5_22  and  P2_23 
REMARK    7  A    between atoms: P2_23  and  O8_26 
REMARK    8  A    between atoms: O8_26  and  C9_27 
REMARK    9  A    between atoms: C9_27  and  C10_28 
REMARK   10  A    between atoms: C11_30  and  O10_31 
REMARK   11  A    between atoms: C12_33  and  O11_34 
REMARK   12  A    between atoms: C13_36  and  O12_37 
REMARK   13  A    between atoms: C14_39  and  O13_40 
REMARK   14  A    between atoms: C15_42  and  O14_43 
ROOT
HETATM    1  C6  UNL     1     -11.578  30.593 -39.220  1.00  0.00     0.262 C 
HETATM    2  O1  UNL     1     -10.394  31.196 -39.566  1.00  0.00    -0.353 OA
HETATM    3  C7  UNL     1     -10.015  30.793 -40.815  1.00  0.00     0.180 C 
HETATM    4  C14 UNL     1     -10.984  29.729 -41.289  1.00  0.00     0.182 C 
HETATM    5  C15 UNL     1     -12.245  30.190 -40.542  1.00  0.00     0.198 C 
ENDROOT
BRANCH   3   6
HETATM    6  C8  UNL     1      -9.979  31.948 -41.797  1.00  0.00     0.216 C 
BRANCH   6   7
HETATM    7  O2  UNL     1      -8.944  31.941 -42.632  1.00  0.00    -0.287 OA
BRANCH   7   8
HETATM    8  P1  UNL     1      -8.460  33.208 -43.496  1.00  0.00     0.417 P 
HETATM    9  O3  UNL     1      -7.659  33.744 -42.294  1.00  0.00    -0.624 OA
HETATM   10  O4  UNL     1      -9.496  32.944 -44.582  1.00  0.00    -0.624 OA
BRANCH   8  11
HETATM   11  O5  UNL     1      -7.155  33.203 -44.473  1.00  0.00    -0.180 OA
BRANCH  11  12
HETATM   12  P2  UNL     1      -7.085  33.734 -45.913  1.00  0.00     0.417 P 
HETATM   13  O6  UNL     1      -7.197  33.936 -47.443  1.00  0.00    -0.624 OA
HETATM   14  O7  UNL     1      -6.434  32.188 -46.268  1.00  0.00    -0.624 OA
BRANCH  12  15
HETATM   15  O8  UNL     1      -6.043  34.922 -45.633  1.00  0.00    -0.287 OA
BRANCH  15  16
HETATM   16  C9  UNL     1      -6.494  36.193 -45.451  1.00  0.00     0.216 C 
BRANCH  16  17
HETATM   17  C10 UNL     1      -5.958  37.209 -46.394  1.00  0.00     0.180 C 
HETATM   18  O9  UNL     1      -5.292  38.199 -45.674  1.00  0.00    -0.349 OA
HETATM   19  C11 UNL     1      -4.773  38.986 -46.725  1.00  0.00     0.288 C 
HETATM   20  C12 UNL     1      -4.211  38.002 -47.734  1.00  0.00     0.204 C 
HETATM   21  C13 UNL     1      -4.883  36.703 -47.306  1.00  0.00     0.182 C 
BRANCH  19  22
HETATM   22  O10 UNL     1      -3.824  39.883 -46.285  1.00  0.00    -0.369 OA
ATOM     23  H10 UNL     1      -2.993  39.463 -46.095  1.00  0.00     0.212 HD
ENDBRANCH  19  22
BRANCH  20  24
HETATM   24  O11 UNL     1      -4.749  38.335 -48.973  1.00  0.00    -0.388 OA
ATOM     25  H11 UNL     1      -5.232  39.145 -48.859  1.00  0.00     0.210 HD
ENDBRANCH  20  24
BRANCH  21  26
HETATM   26  O12 UNL     1      -5.387  36.034 -48.417  1.00  0.00    -0.390 OA
ATOM     27  H12 UNL     1      -5.768  35.192 -48.199  1.00  0.00     0.210 HD
ENDBRANCH  21  26
ENDBRANCH  16  17
ENDBRANCH  15  16
ENDBRANCH  12  15
ENDBRANCH  11  12
ENDBRANCH   8  11
ENDBRANCH   7   8
ENDBRANCH   6   7
ENDBRANCH   3   6
BRANCH   4  28
HETATM   28  O13 UNL     1     -10.643  28.469 -40.864  1.00  0.00    -0.390 OA
ATOM     29  H13 UNL     1     -11.135  27.784 -41.304  1.00  0.00     0.210 HD
ENDBRANCH   4  28
BRANCH   1  30
HETATM   30  N5  UNL     1     -12.439  31.384 -38.398  1.00  0.00    -0.297 N 
HETATM   31  C3  UNL     1     -12.370  31.505 -37.055  1.00  0.00     0.142 A 
HETATM   32  N3  UNL     1     -11.570  31.000 -36.093  1.00  0.00    -0.336 N 
HETATM   33  C4  UNL     1     -13.373  32.354 -36.632  1.00  0.00     0.119 A 
HETATM   34  C2  UNL     1     -11.706  31.279 -34.793  1.00  0.00     0.183 A 
ATOM     35  H3  UNL     1     -10.820  30.370 -36.374  1.00  0.00     0.168 HD
HETATM   36  N2  UNL     1     -12.703  32.119 -34.406  1.00  0.00    -0.339 N 
HETATM   37  C1  UNL     1     -13.546  32.667 -35.300  1.00  0.00     0.148 A 
ATOM     38  H2  UNL     1     -12.816  32.338 -33.417  1.00  0.00     0.167 HD
HETATM   39  N1  UNL     1     -14.559  33.533 -34.812  1.00  0.00    -0.080 NA
HETATM   40  N4  UNL     1     -14.041  32.740 -37.717  1.00  0.00    -0.346 N 
HETATM   41  C5  UNL     1     -13.468  32.145 -38.779  1.00  0.00     0.188 A 
ATOM     42  H4  UNL     1     -14.842  33.371 -37.740  1.00  0.00     0.167 HD
ENDBRANCH   1  30
BRANCH   5  43
HETATM   43  O14 UNL     1     -13.151  29.179 -40.372  1.00  0.00    -0.388 OA
ATOM     44  H14 UNL     1     -12.749  28.322 -40.451  1.00  0.00     0.210 HD
ENDBRANCH   5  43
TORSDOF 14
ENDMDL
