MODEL 12
REMARK VINA RESULT: -8.971424311      4.853      9.915
REMARK  14 active torsions:
REMARK  status: ('A' for Active; 'I' for Inactive)
REMARK    1  A    between atoms: N5_13  and  C6_14 
REMARK    2  A    between atoms: C7_16  and  C8_17 
REMARK    3  A    between atoms: C8_17  and  O2_18 
REMARK    4  A    between atoms: O2_18  and  P1_19 
REMARK    5  A    between atoms: P1_19  and  O5_22 
REMARK    6  A    between atoms: O5_22  and  P2_23 
REMARK    7  A    between atoms: P2_23  and  O8_26 
REMARK    8  A    between atoms: O8_26  and  C9_27 
REMARK    9  A    between atoms: C9_27  and  C10_28 
REMARK   10  A    between atoms: C11_30  and  O10_31 
REMARK   11  A    between atoms: C12_33  and  O11_34 
REMARK   12  A    between atoms: C13_36  and  O12_37 
REMARK   13  A    between atoms: C14_39  and  O13_40 
REMARK   14  A    between atoms: C15_42  and  O14_43 
ROOT
HETATM    1  C6  UNL     1     -11.790  30.223 -39.103  1.00  0.00     0.262 C 
HETATM    2  O1  UNL     1     -10.758  30.775 -39.820  1.00  0.00    -0.353 OA
HETATM    3  C7  UNL     1     -10.612  30.115 -41.007  1.00  0.00     0.180 C 
HETATM    4  C14 UNL     1     -11.565  28.937 -41.020  1.00  0.00     0.182 C 
HETATM    5  C15 UNL     1     -12.679  29.508 -40.130  1.00  0.00     0.198 C 
ENDROOT
BRANCH   3   6
HETATM    6  C8  UNL     1     -10.877  31.021 -42.195  1.00  0.00     0.216 C 
BRANCH   6   7
HETATM    7  O2  UNL     1      -9.794  31.588 -42.718  1.00  0.00    -0.287 OA
BRANCH   7   8
HETATM    8  P1  UNL     1      -9.633  33.165 -42.993  1.00  0.00     0.417 P 
HETATM    9  O3  UNL     1      -9.786  33.461 -41.490  1.00  0.00    -0.624 OA
HETATM   10  O4  UNL     1      -9.838  32.989 -44.493  1.00  0.00    -0.624 OA
BRANCH   8  11
HETATM   11  O5  UNL     1      -8.198  33.934 -43.086  1.00  0.00    -0.180 OA
BRANCH  11  12
HETATM   12  P2  UNL     1      -6.833  33.296 -43.382  1.00  0.00     0.417 P 
HETATM   13  O6  UNL     1      -5.500  32.512 -43.320  1.00  0.00    -0.624 OA
HETATM   14  O7  UNL     1      -6.380  33.983 -41.877  1.00  0.00    -0.624 OA
BRANCH  12  15
HETATM   15  O8  UNL     1      -6.503  34.144 -44.703  1.00  0.00    -0.287 OA
BRANCH  15  16
HETATM   16  C9  UNL     1      -7.142  35.324 -44.930  1.00  0.00     0.216 C 
BRANCH  16  17
HETATM   17  C10 UNL     1      -7.505  35.599 -46.345  1.00  0.00     0.180 C 
HETATM   18  O9  UNL     1      -7.038  36.863 -46.703  1.00  0.00    -0.349 OA
HETATM   19  C11 UNL     1      -7.372  36.889 -48.074  1.00  0.00     0.288 C 
HETATM   20  C12 UNL     1      -6.965  35.534 -48.621  1.00  0.00     0.204 C 
HETATM   21  C13 UNL     1      -6.824  34.715 -47.344  1.00  0.00     0.182 C 
BRANCH  19  22
HETATM   22  O10 UNL     1      -6.758  37.928 -48.740  1.00  0.00    -0.369 OA
ATOM     23  H10 UNL     1      -6.875  37.870 -49.681  1.00  0.00     0.212 HD
ENDBRANCH  19  22
BRANCH  20  24
HETATM   24  O11 UNL     1      -8.064  35.019 -49.300  1.00  0.00    -0.388 OA
ATOM     25  H11 UNL     1      -8.127  35.486 -50.125  1.00  0.00     0.210 HD
ENDBRANCH  20  24
BRANCH  21  26
HETATM   26  O12 UNL     1      -7.451  33.482 -47.492  1.00  0.00    -0.390 OA
ATOM     27  H12 UNL     1      -7.347  33.116 -48.362  1.00  0.00     0.210 HD
ENDBRANCH  21  26
ENDBRANCH  16  17
ENDBRANCH  15  16
ENDBRANCH  12  15
ENDBRANCH  11  12
ENDBRANCH   8  11
ENDBRANCH   7   8
ENDBRANCH   6   7
ENDBRANCH   3   6
BRANCH   4  28
HETATM   28  O13 UNL     1     -11.038  27.818 -40.424  1.00  0.00    -0.390 OA
ATOM     29  H13 UNL     1     -11.661  27.102 -40.366  1.00  0.00     0.210 HD
ENDBRANCH   4  28
BRANCH   1  30
HETATM   30  N5  UNL     1     -12.527  31.146 -38.298  1.00  0.00    -0.297 N 
HETATM   31  C3  UNL     1     -12.349  31.374 -36.980  1.00  0.00     0.142 A 
HETATM   32  N3  UNL     1     -11.519  30.888 -36.033  1.00  0.00    -0.336 N 
HETATM   33  C4  UNL     1     -13.252  32.332 -36.567  1.00  0.00     0.119 A 
HETATM   34  C2  UNL     1     -11.536  31.285 -34.756  1.00  0.00     0.183 A 
ATOM     35  H3  UNL     1     -10.840  30.179 -36.307  1.00  0.00     0.168 HD
HETATM   36  N2  UNL     1     -12.437  32.232 -34.379  1.00  0.00    -0.339 N 
HETATM   37  C1  UNL     1     -13.301  32.769 -35.259  1.00  0.00     0.148 A 
ATOM     38  H2  UNL     1     -12.459  32.541 -33.408  1.00  0.00     0.167 HD
HETATM   39  N1  UNL     1     -14.209  33.751 -34.783  1.00  0.00    -0.080 NA
HETATM   40  N4  UNL     1     -13.969  32.678 -37.634  1.00  0.00    -0.346 N 
HETATM   41  C5  UNL     1     -13.522  31.953 -38.675  1.00  0.00     0.188 A 
ATOM     42  H4  UNL     1     -14.721  33.368 -37.658  1.00  0.00     0.167 HD
ENDBRANCH   1  30
BRANCH   5  43
HETATM   43  O14 UNL     1     -13.442  28.529 -39.554  1.00  0.00    -0.388 OA
ATOM     44  H14 UNL     1     -14.372  28.698 -39.653  1.00  0.00     0.210 HD
ENDBRANCH   5  43
TORSDOF 14
ENDMDL
