MODEL 3
REMARK VINA RESULT: -9.107554865      3.133      5.026
REMARK  14 active torsions:
REMARK  status: ('A' for Active; 'I' for Inactive)
REMARK    1  A    between atoms: N5_13  and  C6_14 
REMARK    2  A    between atoms: C7_16  and  C8_17 
REMARK    3  A    between atoms: C8_17  and  O2_18 
REMARK    4  A    between atoms: O2_18  and  P1_19 
REMARK    5  A    between atoms: P1_19  and  O5_22 
REMARK    6  A    between atoms: O5_22  and  P2_23 
REMARK    7  A    between atoms: P2_23  and  O8_26 
REMARK    8  A    between atoms: O8_26  and  C9_27 
REMARK    9  A    between atoms: C9_27  and  C10_28 
REMARK   10  A    between atoms: C11_30  and  O10_31 
REMARK   11  A    between atoms: C12_33  and  O11_34 
REMARK   12  A    between atoms: C13_36  and  O12_37 
REMARK   13  A    between atoms: C14_39  and  O13_40 
REMARK   14  A    between atoms: C15_42  and  O14_43 
ROOT
HETATM    1  C6  UNL     1     -10.146  40.636 -44.094  1.00  0.00     0.262 C 
HETATM    2  O1  UNL     1      -9.601  40.978 -45.307  1.00  0.00    -0.353 OA
HETATM    3  C7  UNL     1      -8.279  41.285 -45.151  1.00  0.00     0.180 C 
HETATM    4  C14 UNL     1      -7.952  41.256 -43.672  1.00  0.00     0.182 C 
HETATM    5  C15 UNL     1      -8.968  40.200 -43.213  1.00  0.00     0.198 C 
ENDROOT
BRANCH   3   6
HETATM    6  C8  UNL     1      -7.381  40.325 -45.908  1.00  0.00     0.216 C 
BRANCH   6   7
HETATM    7  O2  UNL     1      -8.023  39.418 -46.639  1.00  0.00    -0.287 OA
BRANCH   7   8
HETATM    8  P1  UNL     1      -7.339  38.106 -47.271  1.00  0.00     0.417 P 
HETATM    9  O3  UNL     1      -6.139  38.942 -47.752  1.00  0.00    -0.624 OA
HETATM   10  O4  UNL     1      -8.628  37.301 -47.156  1.00  0.00    -0.624 OA
BRANCH   8  11
HETATM   11  O5  UNL     1      -6.395  37.074 -46.434  1.00  0.00    -0.180 OA
BRANCH  11  12
HETATM   12  P2  UNL     1      -6.476  36.772 -44.930  1.00  0.00     0.417 P 
HETATM   13  O6  UNL     1      -6.468  36.845 -43.384  1.00  0.00    -0.624 OA
HETATM   14  O7  UNL     1      -4.940  37.535 -44.871  1.00  0.00    -0.624 OA
BRANCH  12  15
HETATM   15  O8  UNL     1      -6.494  35.172 -45.052  1.00  0.00    -0.287 OA
BRANCH  15  16
HETATM   16  C9  UNL     1      -7.655  34.527 -45.351  1.00  0.00     0.216 C 
BRANCH  16  17
HETATM   17  C10 UNL     1      -8.503  34.155 -44.189  1.00  0.00     0.180 C 
HETATM   18  O9  UNL     1      -9.491  33.264 -44.608  1.00  0.00    -0.349 OA
HETATM   19  C11 UNL     1     -10.104  32.952 -43.375  1.00  0.00     0.288 C 
HETATM   20  C12 UNL     1      -8.965  32.721 -42.399  1.00  0.00     0.204 C 
HETATM   21  C13 UNL     1      -7.796  33.368 -43.130  1.00  0.00     0.182 C 
BRANCH  19  22
HETATM   22  O10 UNL     1     -10.940  31.860 -43.471  1.00  0.00    -0.369 OA
ATOM     23  H10 UNL     1     -11.851  32.113 -43.567  1.00  0.00     0.212 HD
ENDBRANCH  19  22
BRANCH  20  24
HETATM   24  O11 UNL     1      -9.218  33.511 -41.282  1.00  0.00    -0.388 OA
ATOM     25  H11 UNL     1      -8.884  33.041 -40.527  1.00  0.00     0.210 HD
ENDBRANCH  20  24
BRANCH  21  26
HETATM   26  O12 UNL     1      -7.067  34.170 -42.257  1.00  0.00    -0.390 OA
ATOM     27  H12 UNL     1      -7.127  33.882 -41.354  1.00  0.00     0.210 HD
ENDBRANCH  21  26
ENDBRANCH  16  17
ENDBRANCH  15  16
ENDBRANCH  12  15
ENDBRANCH  11  12
ENDBRANCH   8  11
ENDBRANCH   7   8
ENDBRANCH   6   7
ENDBRANCH   3   6
BRANCH   4  28
HETATM   28  O13 UNL     1      -8.221  42.446 -43.042  1.00  0.00    -0.390 OA
ATOM     29  H13 UNL     1      -7.499  42.751 -42.504  1.00  0.00     0.210 HD
ENDBRANCH   4  28
BRANCH   1  30
HETATM   30  N5  UNL     1     -11.174  39.644 -44.154  1.00  0.00    -0.297 N 
HETATM   31  C3  UNL     1     -12.182  39.486 -43.270  1.00  0.00     0.142 A 
HETATM   32  N3  UNL     1     -12.565  40.115 -42.140  1.00  0.00    -0.336 N 
HETATM   33  C4  UNL     1     -12.963  38.422 -43.672  1.00  0.00     0.119 A 
HETATM   34  C2  UNL     1     -13.634  39.761 -41.419  1.00  0.00     0.183 A 
ATOM     35  H3  UNL     1     -12.007  40.905 -41.817  1.00  0.00     0.168 HD
HETATM   36  N2  UNL     1     -14.385  38.708 -41.840  1.00  0.00    -0.339 N 
HETATM   37  C1  UNL     1     -14.074  38.025 -42.956  1.00  0.00     0.148 A 
ATOM     38  H2  UNL     1     -15.202  38.430 -41.297  1.00  0.00     0.167 HD
HETATM   39  N1  UNL     1     -14.911  36.940 -43.325  1.00  0.00    -0.080 NA
HETATM   40  N4  UNL     1     -12.426  37.943 -44.792  1.00  0.00    -0.346 N 
HETATM   41  C5  UNL     1     -11.343  38.691 -45.073  1.00  0.00     0.188 A 
ATOM     42  H4  UNL     1     -12.772  37.154 -45.338  1.00  0.00     0.167 HD
ENDBRANCH   1  30
BRANCH   5  43
HETATM   43  O14 UNL     1      -9.260  40.300 -41.880  1.00  0.00    -0.388 OA
ATOM     44  H14 UNL     1     -10.171  40.525 -41.731  1.00  0.00     0.210 HD
ENDBRANCH   5  43
TORSDOF 14
ENDMDL
