MODEL 1
REMARK VINA RESULT: -9.142939551      0.000      0.000
REMARK  14 active torsions:
REMARK  status: ('A' for Active; 'I' for Inactive)
REMARK    1  A    between atoms: N5_13  and  C6_14 
REMARK    2  A    between atoms: C7_16  and  C8_17 
REMARK    3  A    between atoms: C8_17  and  O2_18 
REMARK    4  A    between atoms: O2_18  and  P1_19 
REMARK    5  A    between atoms: P1_19  and  O5_22 
REMARK    6  A    between atoms: O5_22  and  P2_23 
REMARK    7  A    between atoms: P2_23  and  O8_26 
REMARK    8  A    between atoms: O8_26  and  C9_27 
REMARK    9  A    between atoms: C9_27  and  C10_28 
REMARK   10  A    between atoms: C11_30  and  O10_31 
REMARK   11  A    between atoms: C12_33  and  O11_34 
REMARK   12  A    between atoms: C13_36  and  O12_37 
REMARK   13  A    between atoms: C14_39  and  O13_40 
REMARK   14  A    between atoms: C15_42  and  O14_43 
ROOT
HETATM    1  C6  UNL     1      -5.794  38.371 -46.801  1.00  0.00     0.262 C 
HETATM    2  O1  UNL     1      -6.395  37.868 -47.928  1.00  0.00    -0.353 OA
HETATM    3  C7  UNL     1      -5.827  36.671 -48.262  1.00  0.00     0.180 C 
HETATM    4  C14 UNL     1      -4.658  36.420 -47.331  1.00  0.00     0.182 C 
HETATM    5  C15 UNL     1      -5.165  37.167 -46.088  1.00  0.00     0.198 C 
ENDROOT
BRANCH   3   6
HETATM    6  C8  UNL     1      -6.822  35.529 -48.178  1.00  0.00     0.216 C 
BRANCH   6   7
HETATM    7  O2  UNL     1      -6.358  34.423 -47.605  1.00  0.00    -0.287 OA
BRANCH   7   8
HETATM    8  P1  UNL     1      -7.104  33.624 -46.425  1.00  0.00     0.417 P 
HETATM    9  O3  UNL     1      -6.706  32.279 -47.059  1.00  0.00    -0.624 OA
HETATM   10  O4  UNL     1      -7.831  34.877 -45.951  1.00  0.00    -0.624 OA
BRANCH   8  11
HETATM   11  O5  UNL     1      -6.415  33.253 -44.995  1.00  0.00    -0.180 OA
BRANCH  11  12
HETATM   12  P2  UNL     1      -7.025  33.462 -43.601  1.00  0.00     0.417 P 
HETATM   13  O6  UNL     1      -7.287  33.813 -42.116  1.00  0.00    -0.624 OA
HETATM   14  O7  UNL     1      -5.619  32.645 -43.053  1.00  0.00    -0.624 OA
BRANCH  12  15
HETATM   15  O8  UNL     1      -8.344  32.576 -43.830  1.00  0.00    -0.287 OA
BRANCH  15  16
HETATM   16  C9  UNL     1      -9.557  33.049 -43.431  1.00  0.00     0.216 C 
BRANCH  16  17
HETATM   17  C10 UNL     1     -10.243  32.255 -42.379  1.00  0.00     0.180 C 
HETATM   18  O9  UNL     1      -9.347  31.333 -41.840  1.00  0.00    -0.349 OA
HETATM   19  C11 UNL     1     -10.133  30.770 -40.812  1.00  0.00     0.288 C 
HETATM   20  C12 UNL     1     -10.819  31.942 -40.133  1.00  0.00     0.204 C 
HETATM   21  C13 UNL     1     -10.652  33.042 -41.173  1.00  0.00     0.182 C 
BRANCH  19  22
HETATM   22  O10 UNL     1      -9.382  30.022 -39.931  1.00  0.00    -0.369 OA
ATOM     23  H10 UNL     1      -9.924  29.493 -39.357  1.00  0.00     0.212 HD
ENDBRANCH  19  22
BRANCH  20  24
HETATM   24  O11 UNL     1     -12.177  31.648 -40.084  1.00  0.00    -0.388 OA
ATOM     25  H11 UNL     1     -12.545  32.148 -39.364  1.00  0.00     0.210 HD
ENDBRANCH  20  24
BRANCH  21  26
HETATM   26  O12 UNL     1     -11.854  33.720 -41.352  1.00  0.00    -0.390 OA
ATOM     27  H12 UNL     1     -11.759  34.506 -41.877  1.00  0.00     0.210 HD
ENDBRANCH  21  26
ENDBRANCH  16  17
ENDBRANCH  15  16
ENDBRANCH  12  15
ENDBRANCH  11  12
ENDBRANCH   8  11
ENDBRANCH   7   8
ENDBRANCH   6   7
ENDBRANCH   3   6
BRANCH   4  28
HETATM   28  O13 UNL     1      -3.494  37.003 -47.766  1.00  0.00    -0.390 OA
ATOM     29  H13 UNL     1      -2.985  36.434 -48.332  1.00  0.00     0.210 HD
ENDBRANCH   4  28
BRANCH   1  30
HETATM   30  N5  UNL     1      -6.657  39.120 -45.942  1.00  0.00    -0.297 N 
HETATM   31  C3  UNL     1      -7.970  38.889 -45.731  1.00  0.00     0.142 A 
HETATM   32  N3  UNL     1      -8.862  37.984 -46.184  1.00  0.00    -0.336 N 
HETATM   33  C4  UNL     1      -8.449  39.825 -44.838  1.00  0.00     0.119 A 
HETATM   34  C2  UNL     1     -10.147  37.960 -45.816  1.00  0.00     0.183 A 
ATOM     35  H3  UNL     1      -8.539  37.279 -46.846  1.00  0.00     0.168 HD
HETATM   36  N2  UNL     1     -10.591  38.896 -44.934  1.00  0.00    -0.339 N 
HETATM   37  C1  UNL     1      -9.768  39.834 -44.433  1.00  0.00     0.148 A 
ATOM     38  H2  UNL     1     -11.569  38.887 -44.647  1.00  0.00     0.167 HD
HETATM   39  N1  UNL     1     -10.311  40.773 -43.518  1.00  0.00    -0.080 NA
HETATM   40  N4  UNL     1      -7.428  40.615 -44.514  1.00  0.00    -0.346 N 
HETATM   41  C5  UNL     1      -6.349  40.179 -45.190  1.00  0.00     0.188 A 
ATOM     42  H4  UNL     1      -7.457  41.407 -43.872  1.00  0.00     0.167 HD
ENDBRANCH   1  30
BRANCH   5  43
HETATM   43  O14 UNL     1      -4.148  37.540 -45.251  1.00  0.00    -0.388 OA
ATOM     44  H14 UNL     1      -3.721  36.790 -44.854  1.00  0.00     0.210 HD
ENDBRANCH   5  43
TORSDOF 14
ENDMDL
