MODEL 4
REMARK VINA RESULT: -4.774803891      4.311      4.529
REMARK  2 active torsions:
REMARK  status: ('A' for Active; 'I' for Inactive)
REMARK    1  A    between atoms: C1_2  and  C2_4 
REMARK    2  A    between atoms: C3_10  and  O3_11 
ROOT
HETATM    1  C2  UNL     1      28.365  18.650   6.937  1.00  0.00     0.168 A 
HETATM    2  N1  UNL     1      28.355  19.500   5.887  1.00  0.00    -0.303 N 
ATOM      3  H1  UNL     1      28.747  19.352   4.957  1.00  0.00     0.176 HD
HETATM    4  S1  UNL     1      27.554  20.854   6.462  1.00  0.00     0.069 SA
HETATM    5  N2  UNL     1      27.245  20.325   8.018  1.00  0.00    -0.291 N 
ATOM      6  H2  UNL     1      26.762  20.823   8.766  1.00  0.00     0.177 HD
HETATM    7  C3  UNL     1      27.775  19.099   8.056  1.00  0.00     0.182 A 
ENDROOT
BRANCH   1   8
HETATM    8  C1  UNL     1      28.999  17.301   6.835  1.00  0.00     0.231 C 
HETATM    9  O1  UNL     1      28.558  16.303   7.448  1.00  0.00    -0.643 OA
HETATM   10  O2  UNL     1      30.118  17.095   6.046  1.00  0.00    -0.643 OA
ENDBRANCH   1   8
BRANCH   7  11
HETATM   11  O3  UNL     1      27.700  18.324   9.254  1.00  0.00    -0.344 OA
ATOM     12  H3  UNL     1      26.887  17.954   9.576  1.00  0.00     0.219 HD
ENDBRANCH   7  11
TORSDOF 2
ENDMDL
