MODEL 6
REMARK VINA RESULT: -4.734522524      4.345      5.018
REMARK  2 active torsions:
REMARK  status: ('A' for Active; 'I' for Inactive)
REMARK    1  A    between atoms: C1_2  and  C2_4 
REMARK    2  A    between atoms: C3_10  and  O3_11 
ROOT
HETATM    1  C2  UNL     1      28.174  18.374   7.027  1.00  0.00     0.168 A 
HETATM    2  N1  UNL     1      27.378  19.452   6.858  1.00  0.00    -0.303 N 
ATOM      3  H1  UNL     1      26.658  19.804   7.490  1.00  0.00     0.176 HD
HETATM    4  S1  UNL     1      27.841  20.077   5.375  1.00  0.00     0.069 SA
HETATM    5  N2  UNL     1      29.033  18.968   4.992  1.00  0.00    -0.291 N 
ATOM      6  H2  UNL     1      29.617  18.938   4.156  1.00  0.00     0.177 HD
HETATM    7  C3  UNL     1      29.044  18.129   6.033  1.00  0.00     0.182 A 
ENDROOT
BRANCH   1   8
HETATM    8  C1  UNL     1      28.076  17.522   8.250  1.00  0.00     0.231 C 
HETATM    9  O1  UNL     1      27.798  17.991   9.376  1.00  0.00    -0.643 OA
HETATM   10  O2  UNL     1      28.291  16.155   8.188  1.00  0.00    -0.643 OA
ENDBRANCH   1   8
BRANCH   7  11
HETATM   11  O3  UNL     1      29.955  17.030   6.057  1.00  0.00    -0.344 OA
ATOM     12  H3  UNL     1      30.172  16.526   5.282  1.00  0.00     0.219 HD
ENDBRANCH   7  11
TORSDOF 2
ENDMDL
