MODEL 5
REMARK VINA RESULT: -4.768971164      4.303      4.648
REMARK  2 active torsions:
REMARK  status: ('A' for Active; 'I' for Inactive)
REMARK    1  A    between atoms: C1_2  and  C2_4 
REMARK    2  A    between atoms: C3_10  and  O3_11 
ROOT
HETATM    1  C2  UNL     1      28.364  18.656   6.931  1.00  0.00     0.168 A 
HETATM    2  N1  UNL     1      28.357  19.520   5.894  1.00  0.00    -0.303 N 
ATOM      3  H1  UNL     1      28.750  19.384   4.962  1.00  0.00     0.176 HD
HETATM    4  S1  UNL     1      27.556  20.867   6.485  1.00  0.00     0.069 SA
HETATM    5  N2  UNL     1      27.244  20.317   8.034  1.00  0.00    -0.291 N 
ATOM      6  H2  UNL     1      26.760  20.805   8.788  1.00  0.00     0.177 HD
HETATM    7  C3  UNL     1      27.773  19.089   8.056  1.00  0.00     0.182 A 
ENDROOT
BRANCH   1   8
HETATM    8  C1  UNL     1      28.996  17.307   6.813  1.00  0.00     0.231 C 
HETATM    9  O1  UNL     1      30.002  17.096   6.098  1.00  0.00    -0.643 OA
HETATM   10  O2  UNL     1      28.488  16.217   7.499  1.00  0.00    -0.643 OA
ENDBRANCH   1   8
BRANCH   7  11
HETATM   11  O3  UNL     1      27.695  18.299   9.243  1.00  0.00    -0.344 OA
ATOM     12  H3  UNL     1      26.893  18.199   9.742  1.00  0.00     0.219 HD
ENDBRANCH   7  11
TORSDOF 2
ENDMDL
