MODEL 1
REMARK VINA RESULT: -4.893512994      0.000      0.000
REMARK  2 active torsions:
REMARK  status: ('A' for Active; 'I' for Inactive)
REMARK    1  A    between atoms: C1_2  and  C2_4 
REMARK    2  A    between atoms: C3_10  and  O3_11 
ROOT
HETATM    1  C2  UNL     1      26.565  20.217   4.492  1.00  0.00     0.168 A 
HETATM    2  N1  UNL     1      27.645  19.624   3.941  1.00  0.00    -0.303 N 
ATOM      3  H1  UNL     1      27.820  19.431   2.955  1.00  0.00     0.176 HD
HETATM    4  S1  UNL     1      28.634  19.276   5.248  1.00  0.00     0.069 SA
HETATM    5  N2  UNL     1      27.666  19.885   6.469  1.00  0.00    -0.291 N 
ATOM      6  H2  UNL     1      27.855  19.900   7.471  1.00  0.00     0.177 HD
HETATM    7  C3  UNL     1      26.588  20.349   5.828  1.00  0.00     0.182 A 
ENDROOT
BRANCH   1   8
HETATM    8  C1  UNL     1      25.426  20.690   3.648  1.00  0.00     0.231 C 
HETATM    9  O1  UNL     1      24.231  20.558   3.996  1.00  0.00    -0.643 OA
HETATM   10  O2  UNL     1      25.649  21.304   2.427  1.00  0.00    -0.643 OA
ENDBRANCH   1   8
BRANCH   7  11
HETATM   11  O3  UNL     1      25.524  20.954   6.564  1.00  0.00    -0.344 OA
ATOM     12  H3  UNL     1      25.404  20.821   7.497  1.00  0.00     0.219 HD
ENDBRANCH   7  11
TORSDOF 2
ENDMDL
