MODEL 2
REMARK VINA RESULT: -4.842814130      1.302      1.312
REMARK  2 active torsions:
REMARK  status: ('A' for Active; 'I' for Inactive)
REMARK    1  A    between atoms: C1_2  and  C2_4 
REMARK    2  A    between atoms: C3_10  and  O3_11 
ROOT
HETATM    1  C2  UNL     1      26.406  19.954   4.280  1.00  0.00     0.168 A 
HETATM    2  N1  UNL     1      27.721  20.260   4.249  1.00  0.00    -0.303 N 
ATOM      3  H1  UNL     1      28.182  20.991   3.706  1.00  0.00     0.176 HD
HETATM    4  S1  UNL     1      28.423  19.165   5.304  1.00  0.00     0.069 SA
HETATM    5  N2  UNL     1      27.045  18.339   5.768  1.00  0.00    -0.291 N 
ATOM      6  H2  UNL     1      26.971  17.558   6.421  1.00  0.00     0.177 HD
HETATM    7  C3  UNL     1      26.063  18.937   5.087  1.00  0.00     0.182 A 
ENDROOT
BRANCH   1   8
HETATM    8  C1  UNL     1      25.414  20.713   3.461  1.00  0.00     0.231 C 
HETATM    9  O1  UNL     1      24.200  20.770   3.758  1.00  0.00    -0.643 OA
HETATM   10  O2  UNL     1      25.803  21.396   2.320  1.00  0.00    -0.643 OA
ENDBRANCH   1   8
BRANCH   7  11
HETATM   11  O3  UNL     1      24.715  18.488   5.234  1.00  0.00    -0.344 OA
ATOM     12  H3  UNL     1      24.125  18.840   5.890  1.00  0.00     0.219 HD
ENDBRANCH   7  11
TORSDOF 2
ENDMDL
