MODEL 3
REMARK VINA RESULT: -4.802080267      0.280      1.084
REMARK  2 active torsions:
REMARK  status: ('A' for Active; 'I' for Inactive)
REMARK    1  A    between atoms: C1_2  and  C2_4 
REMARK    2  A    between atoms: C3_10  and  O3_11 
ROOT
HETATM    1  C2  UNL     1      26.662  20.198   4.475  1.00  0.00     0.168 A 
HETATM    2  N1  UNL     1      27.785  19.595   4.028  1.00  0.00    -0.303 N 
ATOM      3  H1  UNL     1      28.096  19.485   3.062  1.00  0.00     0.176 HD
HETATM    4  S1  UNL     1      28.553  19.070   5.421  1.00  0.00     0.069 SA
HETATM    5  N2  UNL     1      27.442  19.620   6.545  1.00  0.00    -0.291 N 
ATOM      6  H2  UNL     1      27.481  19.530   7.561  1.00  0.00     0.177 HD
HETATM    7  C3  UNL     1      26.493  20.203   5.806  1.00  0.00     0.182 A 
ENDROOT
BRANCH   1   8
HETATM    8  C1  UNL     1      25.684  20.813   3.528  1.00  0.00     0.231 C 
HETATM    9  O1  UNL     1      26.040  21.424   2.495  1.00  0.00    -0.643 OA
HETATM   10  O2  UNL     1      24.320  20.730   3.756  1.00  0.00    -0.643 OA
ENDBRANCH   1   8
BRANCH   7  11
HETATM   11  O3  UNL     1      25.360  20.799   6.439  1.00  0.00    -0.344 OA
ATOM     12  H3  UNL     1      25.240  21.739   6.498  1.00  0.00     0.219 HD
ENDBRANCH   7  11
TORSDOF 2
ENDMDL
