MODEL 2
REMARK VINA RESULT: -9.034125039      3.850      8.730
REMARK  8 active torsions:
REMARK  status: ('A' for Active; 'I' for Inactive)
REMARK       I    between atoms: N1_2  and  C2_3 
REMARK    1  A    between atoms: N1_2  and  C25_33 
REMARK    2  A    between atoms: C2_3  and  C3_5 
REMARK    3  A    between atoms: C12_14  and  C13_15 
REMARK    4  A    between atoms: C13_15  and  O2_16 
REMARK    5  A    between atoms: C13_15  and  C14_18 
REMARK    6  A    between atoms: C14_18  and  C15_19 
REMARK    7  A    between atoms: C14_18  and  P1_29 
REMARK       I    between atoms: N2_36  and  C28_37 
REMARK    8  A    between atoms: C28_37  and  C29_39 
ROOT
HETATM    1  C3  UNL     1      -3.706  34.416  22.476  1.00  0.00     0.046 A 
HETATM    2  C4  UNL     1      -3.565  33.081  22.933  1.00  0.00     0.030 A 
HETATM    3  C5  UNL     1      -2.364  32.501  23.142  1.00  0.00    -0.025 A 
HETATM    4  C6  UNL     1      -2.299  31.216  23.579  1.00  0.00     0.012 A 
HETATM    5  C7  UNL     1      -1.075  30.634  23.789  1.00  0.00     0.001 A 
HETATM    6  C8  UNL     1       0.061  31.382  23.545  1.00  0.00     0.001 A 
HETATM    7  C9  UNL     1      -0.022  32.680  23.101  1.00  0.00     0.012 A 
HETATM    8  C10 UNL     1      -1.257  33.280  22.886  1.00  0.00    -0.025 A 
HETATM    9  C11 UNL     1      -1.373  34.563  22.449  1.00  0.00     0.027 A 
HETATM   10  C12 UNL     1      -2.638  35.197  22.222  1.00  0.00     0.015 A 
ENDROOT
BRANCH   1  11
HETATM   11  C2  UNL     1      -5.077  34.851  22.202  1.00  0.00     0.254 C 
HETATM   12  N1  UNL     1      -5.700  34.523  20.942  1.00  0.00    -0.347 N 
HETATM   13  C1  UNL     1      -4.876  33.800  20.000  1.00  0.00     0.153 C 
HETATM   14  O1  UNL     1      -5.752  35.495  23.016  1.00  0.00    -0.267 OA
BRANCH  12  15
HETATM   15  C25 UNL     1      -7.045  34.823  20.594  1.00  0.00     0.090 C 
HETATM   16  C26 UNL     1      -7.246  35.145  19.150  1.00  0.00     0.045 C 
HETATM   17  C27 UNL     1      -8.702  35.020  18.815  1.00  0.00     0.128 C 
HETATM   18  N2  UNL     1      -9.531  35.412  19.963  1.00  0.00    -0.348 N 
HETATM   19  C28 UNL     1     -10.361  36.518  19.831  1.00  0.00     0.253 C 
HETATM   20  C39 UNL     1      -9.397  34.632  21.158  1.00  0.00     0.128 C 
HETATM   21  O6  UNL     1     -10.269  37.107  18.676  1.00  0.00    -0.267 OA
HETATM   22  C40 UNL     1      -8.071  33.816  20.980  1.00  0.00     0.045 C 
BRANCH  19  23
HETATM   23  C29 UNL     1     -11.297  37.129  20.735  1.00  0.00     0.033 A 
HETATM   24  C30 UNL     1     -12.517  36.615  21.109  1.00  0.00     0.018 A 
HETATM   25  C31 UNL     1     -13.352  37.260  22.022  1.00  0.00     0.013 A 
HETATM   26  C32 UNL     1     -12.989  38.452  22.597  1.00  0.00    -0.026 A 
HETATM   27  C33 UNL     1     -13.775  39.122  23.502  1.00  0.00     0.012 A 
HETATM   28  C37 UNL     1     -11.778  38.996  22.247  1.00  0.00    -0.025 A 
HETATM   29  C34 UNL     1     -13.388  40.335  24.080  1.00  0.00     0.001 A 
HETATM   30  C35 UNL     1     -12.176  40.878  23.729  1.00  0.00     0.001 A 
HETATM   31  C36 UNL     1     -11.400  40.203  22.826  1.00  0.00     0.012 A 
HETATM   32  C38 UNL     1     -10.974  38.346  21.349  1.00  0.00     0.029 A 
ENDBRANCH  19  23
ENDBRANCH  12  15
ENDBRANCH   1  11
BRANCH  10  33
HETATM   33  C13 UNL     1      -2.575  36.579  21.868  1.00  0.00     0.097 C 
BRANCH  33  34
HETATM   34  O2  UNL     1      -2.391  36.866  20.580  1.00  0.00    -0.359 OA
ATOM     35  H2  UNL     1      -1.494  36.892  20.267  1.00  0.00     0.217 HD
ENDBRANCH  33  34
BRANCH  33  36
HETATM   36  C14 UNL     1      -2.665  37.807  22.631  1.00  0.00     0.113 C 
BRANCH  36  37
HETATM   37  C15 UNL     1      -1.470  38.352  23.311  1.00  0.00    -0.002 A 
HETATM   38  C16 UNL     1      -0.291  38.501  22.524  1.00  0.00     0.013 A 
HETATM   39  C17 UNL     1       0.896  38.930  22.999  1.00  0.00     0.002 A 
HETATM   40  C18 UNL     1       1.027  39.260  24.320  1.00  0.00     0.012 A 
HETATM   41  C19 UNL     1      -0.104  39.129  25.127  1.00  0.00    -0.025 A 
HETATM   42  C20 UNL     1       0.033  39.455  26.452  1.00  0.00     0.012 A 
HETATM   43  C24 UNL     1      -1.323  38.686  24.633  1.00  0.00    -0.014 A 
HETATM   44  C21 UNL     1      -1.037  39.347  27.313  1.00  0.00     0.001 A 
HETATM   45  C22 UNL     1      -2.255  38.904  26.818  1.00  0.00     0.001 A 
HETATM   46  C23 UNL     1      -2.382  38.578  25.484  1.00  0.00     0.013 A 
ENDBRANCH  36  37
BRANCH  36  47
HETATM   47  P1  UNL     1      -3.736  39.047  21.949  1.00  0.00     0.299 P 
HETATM   48  O3  UNL     1      -2.760  39.520  20.883  1.00  0.00    -0.636 OA
HETATM   49  O4  UNL     1      -4.927  38.652  20.928  1.00  0.00    -0.636 OA
HETATM   50  O5  UNL     1      -3.653  40.617  22.582  1.00  0.00    -0.636 OA
ENDBRANCH  36  47
ENDBRANCH  33  36
ENDBRANCH  10  33
TORSDOF 8
ENDMDL
