MODEL 3
REMARK VINA RESULT: -8.982063140      4.342      9.250
REMARK  8 active torsions:
REMARK  status: ('A' for Active; 'I' for Inactive)
REMARK       I    between atoms: N1_2  and  C2_3 
REMARK    1  A    between atoms: N1_2  and  C25_33 
REMARK    2  A    between atoms: C2_3  and  C3_5 
REMARK    3  A    between atoms: C12_14  and  C13_15 
REMARK    4  A    between atoms: C13_15  and  O2_16 
REMARK    5  A    between atoms: C13_15  and  C14_18 
REMARK    6  A    between atoms: C14_18  and  C15_19 
REMARK    7  A    between atoms: C14_18  and  P1_29 
REMARK       I    between atoms: N2_36  and  C28_37 
REMARK    8  A    between atoms: C28_37  and  C29_39 
ROOT
HETATM    1  C3  UNL     1      -3.525  34.596  21.798  1.00  0.00     0.046 A 
HETATM    2  C4  UNL     1      -3.365  33.235  22.160  1.00  0.00     0.030 A 
HETATM    3  C5  UNL     1      -2.203  32.733  22.631  1.00  0.00    -0.025 A 
HETATM    4  C6  UNL     1      -2.116  31.418  22.959  1.00  0.00     0.012 A 
HETATM    5  C7  UNL     1      -0.933  30.915  23.436  1.00  0.00     0.001 A 
HETATM    6  C8  UNL     1       0.141  31.774  23.568  1.00  0.00     0.001 A 
HETATM    7  C9  UNL     1       0.038  33.102  23.230  1.00  0.00     0.012 A 
HETATM    8  C10 UNL     1      -1.156  33.621  22.747  1.00  0.00    -0.025 A 
HETATM    9  C11 UNL     1      -1.292  34.932  22.405  1.00  0.00     0.027 A 
HETATM   10  C12 UNL     1      -2.517  35.484  21.906  1.00  0.00     0.015 A 
ENDROOT
BRANCH   1  11
HETATM   11  C2  UNL     1      -4.817  34.947  21.207  1.00  0.00     0.254 C 
HETATM   12  N1  UNL     1      -5.918  35.335  22.056  1.00  0.00    -0.347 N 
HETATM   13  C1  UNL     1      -5.659  35.304  23.478  1.00  0.00     0.153 C 
HETATM   14  O1  UNL     1      -5.021  34.939  19.985  1.00  0.00    -0.267 OA
BRANCH  12  15
HETATM   15  C25 UNL     1      -7.191  35.770  21.596  1.00  0.00     0.090 C 
HETATM   16  C26 UNL     1      -8.299  35.559  22.573  1.00  0.00     0.045 C 
HETATM   17  C27 UNL     1      -9.468  36.414  22.185  1.00  0.00     0.128 C 
HETATM   18  N2  UNL     1      -9.550  36.543  20.723  1.00  0.00    -0.348 N 
HETATM   19  C28 UNL     1     -10.665  36.028  20.077  1.00  0.00     0.253 C 
HETATM   20  C39 UNL     1      -8.444  37.172  20.064  1.00  0.00     0.128 C 
HETATM   21  O6  UNL     1     -11.511  35.445  20.873  1.00  0.00    -0.267 OA
HETATM   22  C40 UNL     1      -7.277  37.174  21.109  1.00  0.00     0.045 C 
BRANCH  19  23
HETATM   23  C29 UNL     1     -11.054  36.019  18.693  1.00  0.00     0.033 A 
HETATM   24  C30 UNL     1     -10.277  35.606  17.634  1.00  0.00     0.018 A 
HETATM   25  C31 UNL     1     -10.748  35.598  16.321  1.00  0.00     0.013 A 
HETATM   26  C32 UNL     1     -12.022  36.007  16.020  1.00  0.00    -0.026 A 
HETATM   27  C33 UNL     1     -12.530  36.014  14.744  1.00  0.00     0.012 A 
HETATM   28  C37 UNL     1     -12.827  36.427  17.050  1.00  0.00    -0.025 A 
HETATM   29  C34 UNL     1     -13.833  36.433  14.456  1.00  0.00     0.001 A 
HETATM   30  C35 UNL     1     -14.636  36.853  15.488  1.00  0.00     0.001 A 
HETATM   31  C36 UNL     1     -14.121  36.842  16.756  1.00  0.00     0.012 A 
HETATM   32  C38 UNL     1     -12.345  36.427  18.332  1.00  0.00     0.029 A 
ENDBRANCH  19  23
ENDBRANCH  12  15
ENDBRANCH   1  11
BRANCH  10  33
HETATM   33  C13 UNL     1      -2.512  36.896  21.700  1.00  0.00     0.097 C 
BRANCH  33  34
HETATM   34  O2  UNL     1      -2.284  37.327  20.461  1.00  0.00    -0.359 OA
ATOM     35  H2  UNL     1      -1.527  37.886  20.330  1.00  0.00     0.217 HD
ENDBRANCH  33  34
BRANCH  33  36
HETATM   36  C14 UNL     1      -2.704  38.031  22.581  1.00  0.00     0.113 C 
BRANCH  36  37
HETATM   37  C15 UNL     1      -1.568  38.571  23.359  1.00  0.00    -0.002 A 
HETATM   38  C16 UNL     1      -0.374  38.868  22.639  1.00  0.00     0.013 A 
HETATM   39  C17 UNL     1       0.767  39.314  23.202  1.00  0.00     0.002 A 
HETATM   40  C18 UNL     1       0.833  39.512  24.553  1.00  0.00     0.012 A 
HETATM   41  C19 UNL     1      -0.314  39.233  25.297  1.00  0.00    -0.025 A 
HETATM   42  C20 UNL     1      -0.242  39.428  26.654  1.00  0.00     0.012 A 
HETATM   43  C24 UNL     1      -1.486  38.774  24.713  1.00  0.00    -0.014 A 
HETATM   44  C21 UNL     1      -1.332  39.171  27.456  1.00  0.00     0.001 A 
HETATM   45  C22 UNL     1      -2.503  38.712  26.870  1.00  0.00     0.001 A 
HETATM   46  C23 UNL     1      -2.565  38.518  25.507  1.00  0.00     0.013 A 
ENDBRANCH  36  37
BRANCH  36  47
HETATM   47  P1  UNL     1      -3.826  39.270  21.988  1.00  0.00     0.299 P 
HETATM   48  O3  UNL     1      -4.469  38.396  20.923  1.00  0.00    -0.636 OA
HETATM   49  O4  UNL     1      -5.195  39.606  22.783  1.00  0.00    -0.636 OA
HETATM   50  O5  UNL     1      -3.319  40.273  20.719  1.00  0.00    -0.636 OA
ENDBRANCH  36  47
ENDBRANCH  33  36
ENDBRANCH  10  33
TORSDOF 8
ENDMDL
