MODEL 1
REMARK VINA RESULT: -9.180096471      0.000      0.000
REMARK  8 active torsions:
REMARK  status: ('A' for Active; 'I' for Inactive)
REMARK       I    between atoms: N1_2  and  C2_3 
REMARK    1  A    between atoms: N1_2  and  C25_33 
REMARK    2  A    between atoms: C2_3  and  C3_5 
REMARK    3  A    between atoms: C12_14  and  C13_15 
REMARK    4  A    between atoms: C13_15  and  O2_16 
REMARK    5  A    between atoms: C13_15  and  C14_18 
REMARK    6  A    between atoms: C14_18  and  C15_19 
REMARK    7  A    between atoms: C14_18  and  P1_29 
REMARK       I    between atoms: N2_36  and  C28_37 
REMARK    8  A    between atoms: C28_37  and  C29_39 
ROOT
HETATM    1  C3  UNL     1      -4.837  31.481  21.931  1.00  0.00     0.046 A 
HETATM    2  C4  UNL     1      -4.734  30.324  22.744  1.00  0.00     0.030 A 
HETATM    3  C5  UNL     1      -5.573  29.272  22.632  1.00  0.00    -0.025 A 
HETATM    4  C6  UNL     1      -5.420  28.194  23.444  1.00  0.00     0.012 A 
HETATM    5  C7  UNL     1      -6.277  27.129  23.325  1.00  0.00     0.001 A 
HETATM    6  C8  UNL     1      -7.276  27.192  22.373  1.00  0.00     0.001 A 
HETATM    7  C9  UNL     1      -7.419  28.292  21.560  1.00  0.00     0.012 A 
HETATM    8  C10 UNL     1      -6.556  29.375  21.672  1.00  0.00    -0.025 A 
HETATM    9  C11 UNL     1      -6.669  30.477  20.882  1.00  0.00     0.027 A 
HETATM   10  C12 UNL     1      -5.788  31.602  20.984  1.00  0.00     0.015 A 
ENDROOT
BRANCH   1  11
HETATM   11  C2  UNL     1      -3.914  32.569  22.257  1.00  0.00     0.254 C 
HETATM   12  N1  UNL     1      -4.259  33.527  23.281  1.00  0.00    -0.347 N 
HETATM   13  C1  UNL     1      -5.555  33.353  23.896  1.00  0.00     0.153 C 
HETATM   14  O1  UNL     1      -2.819  32.712  21.694  1.00  0.00    -0.267 OA
BRANCH  12  15
HETATM   15  C25 UNL     1      -3.414  34.576  23.735  1.00  0.00     0.090 C 
HETATM   16  C26 UNL     1      -4.052  35.487  24.730  1.00  0.00     0.045 C 
HETATM   17  C27 UNL     1      -2.985  36.261  25.445  1.00  0.00     0.128 C 
HETATM   18  N2  UNL     1      -1.856  36.537  24.545  1.00  0.00    -0.348 N 
HETATM   19  C28 UNL     1      -1.566  37.859  24.238  1.00  0.00     0.253 C 
HETATM   20  C39 UNL     1      -1.152  35.404  24.021  1.00  0.00     0.128 C 
HETATM   21  O6  UNL     1      -2.380  38.715  24.780  1.00  0.00    -0.267 OA
HETATM   22  C40 UNL     1      -2.087  34.173  24.275  1.00  0.00     0.045 C 
BRANCH  19  23
HETATM   23  C29 UNL     1      -0.534  38.453  23.432  1.00  0.00     0.033 A 
HETATM   24  C30 UNL     1      -0.693  38.985  22.173  1.00  0.00     0.018 A 
HETATM   25  C31 UNL     1       0.360  39.576  21.473  1.00  0.00     0.013 A 
HETATM   26  C32 UNL     1       1.618  39.654  22.014  1.00  0.00    -0.026 A 
HETATM   27  C33 UNL     1       2.683  40.227  21.365  1.00  0.00     0.012 A 
HETATM   28  C37 UNL     1       1.816  39.132  23.270  1.00  0.00    -0.025 A 
HETATM   29  C34 UNL     1       3.959  40.299  21.934  1.00  0.00     0.001 A 
HETATM   30  C35 UNL     1       4.155  39.777  23.189  1.00  0.00     0.001 A 
HETATM   31  C36 UNL     1       3.086  39.207  23.828  1.00  0.00     0.012 A 
HETATM   32  C38 UNL     1       0.768  38.557  23.939  1.00  0.00     0.029 A 
ENDBRANCH  19  23
ENDBRANCH  12  15
ENDBRANCH   1  11
BRANCH  10  33
HETATM   33  C13 UNL     1      -5.984  32.624  20.007  1.00  0.00     0.097 C 
BRANCH  33  34
HETATM   34  O2  UNL     1      -5.814  32.282  18.731  1.00  0.00    -0.359 OA
ATOM     35  H2  UNL     1      -5.627  32.982  18.116  1.00  0.00     0.217 HD
ENDBRANCH  33  34
BRANCH  33  36
HETATM   36  C14 UNL     1      -6.339  34.026  20.090  1.00  0.00     0.113 C 
BRANCH  36  37
HETATM   37  C15 UNL     1      -5.290  35.051  20.289  1.00  0.00    -0.002 A 
HETATM   38  C16 UNL     1      -4.052  34.848  19.612  1.00  0.00     0.013 A 
HETATM   39  C17 UNL     1      -2.978  35.655  19.728  1.00  0.00     0.002 A 
HETATM   40  C18 UNL     1      -3.030  36.755  20.537  1.00  0.00     0.012 A 
HETATM   41  C19 UNL     1      -4.224  36.991  21.219  1.00  0.00    -0.025 A 
HETATM   42  C20 UNL     1      -4.271  38.093  22.035  1.00  0.00     0.012 A 
HETATM   43  C24 UNL     1      -5.328  36.158  21.097  1.00  0.00    -0.014 A 
HETATM   44  C21 UNL     1      -5.415  38.390  22.745  1.00  0.00     0.001 A 
HETATM   45  C22 UNL     1      -6.516  37.556  22.622  1.00  0.00     0.001 A 
HETATM   46  C23 UNL     1      -6.458  36.450  21.801  1.00  0.00     0.013 A 
ENDBRANCH  36  37
BRANCH  36  47
HETATM   47  P1  UNL     1      -7.655  34.540  19.017  1.00  0.00     0.299 P 
HETATM   48  O3  UNL     1      -8.646  33.482  19.475  1.00  0.00    -0.636 OA
HETATM   49  O4  UNL     1      -8.583  35.814  19.385  1.00  0.00    -0.636 OA
HETATM   50  O5  UNL     1      -7.762  33.834  17.480  1.00  0.00    -0.636 OA
ENDBRANCH  36  47
ENDBRANCH  33  36
ENDBRANCH  10  33
TORSDOF 8
ENDMDL
