MODEL 2
REMARK VINA RESULT: -9.641739229      0.689      1.225
REMARK  8 active torsions:
REMARK  status: ('A' for Active; 'I' for Inactive)
REMARK       I    between atoms: N1_2  and  C2_3 
REMARK    1  A    between atoms: N1_2  and  C25_33 
REMARK    2  A    between atoms: C2_3  and  C3_5 
REMARK    3  A    between atoms: C12_14  and  C13_15 
REMARK    4  A    between atoms: C13_15  and  O2_16 
REMARK    5  A    between atoms: C13_15  and  C14_18 
REMARK    6  A    between atoms: C14_18  and  C15_19 
REMARK    7  A    between atoms: C14_18  and  P1_29 
REMARK       I    between atoms: N2_36  and  C28_37 
REMARK    8  A    between atoms: C28_37  and  C29_39 
ROOT
HETATM    1  C3  UNL     1       8.605  72.490   2.039  1.00  0.00     0.046 A 
HETATM    2  C4  UNL     1       7.210  72.728   2.094  1.00  0.00     0.030 A 
HETATM    3  C5  UNL     1       6.294  71.809   1.718  1.00  0.00    -0.025 A 
HETATM    4  C6  UNL     1       4.969  72.102   1.794  1.00  0.00     0.012 A 
HETATM    5  C7  UNL     1       4.045  71.164   1.411  1.00  0.00     0.001 A 
HETATM    6  C8  UNL     1       4.499  69.941   0.955  1.00  0.00     0.001 A 
HETATM    7  C9  UNL     1       5.843  69.661   0.883  1.00  0.00     0.012 A 
HETATM    8  C10 UNL     1       6.787  70.604   1.270  1.00  0.00    -0.025 A 
HETATM    9  C11 UNL     1       8.124  70.357   1.212  1.00  0.00     0.027 A 
HETATM   10  C12 UNL     1       9.111  71.318   1.607  1.00  0.00     0.015 A 
ENDROOT
BRANCH   1  11
HETATM   11  C2  UNL     1       9.457  73.630   2.383  1.00  0.00     0.254 C 
HETATM   12  N1  UNL     1       9.603  74.033   3.761  1.00  0.00    -0.347 N 
HETATM   13  C1  UNL     1       8.834  73.277   4.724  1.00  0.00     0.153 C 
HETATM   14  O1  UNL     1      10.084  74.280   1.534  1.00  0.00    -0.267 OA
BRANCH  12  15
HETATM   15  C25 UNL     1      10.458  75.071   4.222  1.00  0.00     0.090 C 
HETATM   16  C26 UNL     1       9.754  76.349   4.536  1.00  0.00     0.045 C 
HETATM   17  C27 UNL     1      10.639  77.202   5.394  1.00  0.00     0.128 C 
HETATM   18  N2  UNL     1      12.051  76.998   5.042  1.00  0.00    -0.348 N 
HETATM   19  C28 UNL     1      12.766  78.075   4.534  1.00  0.00     0.253 C 
HETATM   20  C39 UNL     1      12.582  75.680   5.223  1.00  0.00     0.128 C 
HETATM   21  O6  UNL     1      12.059  79.157   4.398  1.00  0.00    -0.267 OA
HETATM   22  C40 UNL     1      11.336  74.742   5.378  1.00  0.00     0.045 C 
BRANCH  19  23
HETATM   23  C29 UNL     1      14.139  78.210   4.130  1.00  0.00     0.033 A 
HETATM   24  C30 UNL     1      14.739  77.574   3.067  1.00  0.00     0.018 A 
HETATM   25  C31 UNL     1      16.073  77.791   2.724  1.00  0.00     0.013 A 
HETATM   26  C32 UNL     1      16.859  78.659   3.438  1.00  0.00    -0.026 A 
HETATM   27  C33 UNL     1      18.176  78.907   3.136  1.00  0.00     0.012 A 
HETATM   28  C37 UNL     1      16.295  79.312   4.507  1.00  0.00    -0.025 A 
HETATM   29  C34 UNL     1      18.962  79.797   3.875  1.00  0.00     0.001 A 
HETATM   30  C35 UNL     1      18.396  80.449   4.943  1.00  0.00     0.001 A 
HETATM   31  C36 UNL     1      17.083  80.196   5.236  1.00  0.00     0.012 A 
HETATM   32  C38 UNL     1      14.983  79.085   4.826  1.00  0.00     0.029 A 
ENDBRANCH  19  23
ENDBRANCH  12  15
ENDBRANCH   1  11
BRANCH  10  33
HETATM   33  C13 UNL     1      10.461  70.854   1.582  1.00  0.00     0.097 C 
BRANCH  33  34
HETATM   34  O2  UNL     1      11.121  70.972   0.432  1.00  0.00    -0.359 OA
ATOM     35  H2  UNL     1      11.982  71.373   0.466  1.00  0.00     0.217 HD
ENDBRANCH  33  34
BRANCH  33  36
HETATM   36  C14 UNL     1      11.322  70.245   2.576  1.00  0.00     0.113 C 
BRANCH  36  37
HETATM   37  C15 UNL     1      10.911  70.206   3.996  1.00  0.00    -0.002 A 
HETATM   38  C16 UNL     1       9.663  69.583   4.292  1.00  0.00     0.013 A 
HETATM   39  C17 UNL     1       9.117  69.511   5.522  1.00  0.00     0.002 A 
HETATM   40  C18 UNL     1       9.768  70.057   6.594  1.00  0.00     0.012 A 
HETATM   41  C19 UNL     1      10.993  70.678   6.349  1.00  0.00    -0.025 A 
HETATM   42  C20 UNL     1      11.639  71.231   7.426  1.00  0.00     0.012 A 
HETATM   43  C24 UNL     1      11.551  70.750   5.080  1.00  0.00    -0.014 A 
HETATM   44  C21 UNL     1      12.852  71.865   7.264  1.00  0.00     0.001 A 
HETATM   45  C22 UNL     1      13.408  71.936   5.995  1.00  0.00     0.001 A 
HETATM   46  C23 UNL     1      12.750  71.379   4.919  1.00  0.00     0.013 A 
ENDBRANCH  36  37
BRANCH  36  47
HETATM   47  P1  UNL     1      12.194  68.797   2.038  1.00  0.00     0.299 P 
HETATM   48  O3  UNL     1      11.036  68.206   1.249  1.00  0.00    -0.636 OA
HETATM   49  O4  UNL     1      13.232  68.858   0.798  1.00  0.00    -0.636 OA
HETATM   50  O5  UNL     1      12.115  67.406   3.004  1.00  0.00    -0.636 OA
ENDBRANCH  36  47
ENDBRANCH  33  36
ENDBRANCH  10  33
TORSDOF 8
ENDMDL
