MODEL 1
REMARK VINA RESULT: -9.954860759      0.000      0.000
REMARK  8 active torsions:
REMARK  status: ('A' for Active; 'I' for Inactive)
REMARK       I    between atoms: N1_2  and  C2_3 
REMARK    1  A    between atoms: N1_2  and  C25_33 
REMARK    2  A    between atoms: C2_3  and  C3_5 
REMARK    3  A    between atoms: C12_14  and  C13_15 
REMARK    4  A    between atoms: C13_15  and  O2_16 
REMARK    5  A    between atoms: C13_15  and  C14_18 
REMARK    6  A    between atoms: C14_18  and  C15_19 
REMARK    7  A    between atoms: C14_18  and  P1_29 
REMARK       I    between atoms: N2_36  and  C28_37 
REMARK    8  A    between atoms: C28_37  and  C29_39 
ROOT
HETATM    1  C3  UNL     1       8.395  72.574   2.236  1.00  0.00     0.046 A 
HETATM    2  C4  UNL     1       6.990  72.741   2.313  1.00  0.00     0.030 A 
HETATM    3  C5  UNL     1       6.116  71.821   1.852  1.00  0.00    -0.025 A 
HETATM    4  C6  UNL     1       4.780  72.044   1.956  1.00  0.00     0.012 A 
HETATM    5  C7  UNL     1       3.898  71.105   1.486  1.00  0.00     0.001 A 
HETATM    6  C8  UNL     1       4.405  69.953   0.916  1.00  0.00     0.001 A 
HETATM    7  C9  UNL     1       5.760  69.743   0.817  1.00  0.00     0.012 A 
HETATM    8  C10 UNL     1       6.661  70.687   1.292  1.00  0.00    -0.025 A 
HETATM    9  C11 UNL     1       8.008  70.509   1.210  1.00  0.00     0.027 A 
HETATM   10  C12 UNL     1       8.952  71.472   1.695  1.00  0.00     0.015 A 
ENDROOT
BRANCH   1  11
HETATM   11  C2  UNL     1       9.195  73.714   2.686  1.00  0.00     0.254 C 
HETATM   12  N1  UNL     1       9.317  73.999   4.096  1.00  0.00    -0.347 N 
HETATM   13  C1  UNL     1       8.578  73.128   4.982  1.00  0.00     0.153 C 
HETATM   14  O1  UNL     1       9.797  74.463   1.904  1.00  0.00    -0.267 OA
BRANCH  12  15
HETATM   15  C25 UNL     1      10.125  75.028   4.654  1.00  0.00     0.090 C 
HETATM   16  C26 UNL     1       9.366  76.245   5.066  1.00  0.00     0.045 C 
HETATM   17  C27 UNL     1      10.207  77.057   6.004  1.00  0.00     0.128 C 
HETATM   18  N2  UNL     1      11.630  76.940   5.654  1.00  0.00    -0.348 N 
HETATM   19  C28 UNL     1      12.304  78.084   5.248  1.00  0.00     0.253 C 
HETATM   20  C39 UNL     1      12.213  75.634   5.730  1.00  0.00     0.128 C 
HETATM   21  O6  UNL     1      11.555  79.144   5.195  1.00  0.00    -0.267 OA
HETATM   22  C40 UNL     1      11.005  74.637   5.789  1.00  0.00     0.045 C 
BRANCH  19  23
HETATM   23  C29 UNL     1      13.674  78.308   4.875  1.00  0.00     0.033 A 
HETATM   24  C30 UNL     1      14.723  78.539   5.736  1.00  0.00     0.018 A 
HETATM   25  C31 UNL     1      16.033  78.712   5.288  1.00  0.00     0.013 A 
HETATM   26  C32 UNL     1      16.340  78.661   3.952  1.00  0.00    -0.026 A 
HETATM   27  C33 UNL     1      17.614  78.823   3.465  1.00  0.00     0.012 A 
HETATM   28  C37 UNL     1      15.319  78.434   3.062  1.00  0.00    -0.025 A 
HETATM   29  C34 UNL     1      17.909  78.766   2.099  1.00  0.00     0.001 A 
HETATM   30  C35 UNL     1      16.886  78.538   1.210  1.00  0.00     0.001 A 
HETATM   31  C36 UNL     1      15.620  78.378   1.706  1.00  0.00     0.012 A 
HETATM   32  C38 UNL     1      14.040  78.266   3.523  1.00  0.00     0.029 A 
ENDBRANCH  19  23
ENDBRANCH  12  15
ENDBRANCH   1  11
BRANCH  10  33
HETATM   33  C13 UNL     1      10.321  71.075   1.626  1.00  0.00     0.097 C 
BRANCH  33  34
HETATM   34  O2  UNL     1      10.968  71.326   0.489  1.00  0.00    -0.359 OA
ATOM     35  H2  UNL     1      11.384  72.176   0.406  1.00  0.00     0.217 HD
ENDBRANCH  33  34
BRANCH  33  36
HETATM   36  C14 UNL     1      11.216  70.421   2.560  1.00  0.00     0.113 C 
BRANCH  36  37
HETATM   37  C15 UNL     1      10.839  70.288   3.984  1.00  0.00    -0.002 A 
HETATM   38  C16 UNL     1       9.613  69.619   4.269  1.00  0.00     0.013 A 
HETATM   39  C17 UNL     1       9.098  69.461   5.505  1.00  0.00     0.002 A 
HETATM   40  C18 UNL     1       9.762  69.956   6.593  1.00  0.00     0.012 A 
HETATM   41  C19 UNL     1      10.968  70.618   6.359  1.00  0.00    -0.025 A 
HETATM   42  C20 UNL     1      11.627  71.119   7.453  1.00  0.00     0.012 A 
HETATM   43  C24 UNL     1      11.493  70.779   5.085  1.00  0.00    -0.014 A 
HETATM   44  C21 UNL     1      12.822  71.789   7.303  1.00  0.00     0.001 A 
HETATM   45  C22 UNL     1      13.346  71.949   6.028  1.00  0.00     0.001 A 
HETATM   46  C23 UNL     1      12.674  71.443   4.936  1.00  0.00     0.013 A 
ENDBRANCH  36  37
BRANCH  36  47
HETATM   47  P1  UNL     1      12.098  69.024   1.913  1.00  0.00     0.299 P 
HETATM   48  O3  UNL     1      10.907  68.413   1.192  1.00  0.00    -0.636 OA
HETATM   49  O4  UNL     1      13.038  69.163   0.604  1.00  0.00    -0.636 OA
HETATM   50  O5  UNL     1      12.142  67.603   2.836  1.00  0.00    -0.636 OA
ENDBRANCH  36  47
ENDBRANCH  33  36
ENDBRANCH  10  33
TORSDOF 8
ENDMDL
