MODEL 3
REMARK VINA RESULT: -9.213383678      3.741      8.991
REMARK  8 active torsions:
REMARK  status: ('A' for Active; 'I' for Inactive)
REMARK       I    between atoms: N1_2  and  C2_3 
REMARK    1  A    between atoms: N1_2  and  C25_33 
REMARK    2  A    between atoms: C2_3  and  C3_5 
REMARK    3  A    between atoms: C12_14  and  C13_15 
REMARK    4  A    between atoms: C13_15  and  O2_16 
REMARK    5  A    between atoms: C13_15  and  C14_18 
REMARK    6  A    between atoms: C14_18  and  C15_19 
REMARK    7  A    between atoms: C14_18  and  P1_29 
REMARK       I    between atoms: N2_36  and  C28_37 
REMARK    8  A    between atoms: C28_37  and  C29_39 
ROOT
HETATM    1  C3  UNL     1      11.950  76.256   7.535  1.00  0.00     0.046 A 
HETATM    2  C4  UNL     1      12.503  77.493   7.121  1.00  0.00     0.030 A 
HETATM    3  C5  UNL     1      12.747  78.510   7.976  1.00  0.00    -0.025 A 
HETATM    4  C6  UNL     1      13.278  79.671   7.514  1.00  0.00     0.012 A 
HETATM    5  C7  UNL     1      13.523  80.699   8.388  1.00  0.00     0.001 A 
HETATM    6  C8  UNL     1      13.216  80.515   9.723  1.00  0.00     0.001 A 
HETATM    7  C9  UNL     1      12.677  79.334  10.174  1.00  0.00     0.012 A 
HETATM    8  C10 UNL     1      12.427  78.286   9.297  1.00  0.00    -0.025 A 
HETATM    9  C11 UNL     1      11.896  77.104   9.712  1.00  0.00     0.027 A 
HETATM   10  C12 UNL     1      11.631  76.013   8.822  1.00  0.00     0.015 A 
ENDROOT
BRANCH   1  11
HETATM   11  C2  UNL     1      11.653  75.304   6.463  1.00  0.00     0.254 C 
HETATM   12  N1  UNL     1      10.287  75.083   6.051  1.00  0.00    -0.347 N 
HETATM   13  C1  UNL     1       9.280  75.815   6.786  1.00  0.00     0.153 C 
HETATM   14  O1  UNL     1      12.533  74.667   5.867  1.00  0.00    -0.267 OA
BRANCH  12  15
HETATM   15  C25 UNL     1       9.884  74.245   4.976  1.00  0.00     0.090 C 
HETATM   16  C26 UNL     1       8.528  73.643   5.144  1.00  0.00     0.045 C 
HETATM   17  C27 UNL     1       8.037  73.153   3.816  1.00  0.00     0.128 C 
HETATM   18  N2  UNL     1       9.159  72.667   2.998  1.00  0.00    -0.348 N 
HETATM   19  C28 UNL     1       9.184  71.324   2.646  1.00  0.00     0.253 C 
HETATM   20  C39 UNL     1      10.169  73.621   2.649  1.00  0.00     0.128 C 
HETATM   21  O6  UNL     1       8.194  70.636   3.130  1.00  0.00    -0.267 OA
HETATM   22  C40 UNL     1       9.950  74.838   3.612  1.00  0.00     0.045 C 
BRANCH  19  23
HETATM   23  C29 UNL     1      10.103  70.559   1.848  1.00  0.00     0.033 A 
HETATM   24  C30 UNL     1      10.255  70.640   0.483  1.00  0.00     0.018 A 
HETATM   25  C31 UNL     1      11.200  69.882  -0.210  1.00  0.00     0.013 A 
HETATM   26  C32 UNL     1      12.032  69.011   0.446  1.00  0.00    -0.026 A 
HETATM   27  C33 UNL     1      12.978  68.247  -0.192  1.00  0.00     0.012 A 
HETATM   28  C37 UNL     1      11.910  68.902   1.810  1.00  0.00    -0.025 A 
HETATM   29  C34 UNL     1      13.819  67.365   0.494  1.00  0.00     0.001 A 
HETATM   30  C35 UNL     1      13.695  67.258   1.858  1.00  0.00     0.001 A 
HETATM   31  C36 UNL     1      12.749  68.024   2.484  1.00  0.00     0.012 A 
HETATM   32  C38 UNL     1      10.975  69.656   2.470  1.00  0.00     0.029 A 
ENDBRANCH  19  23
ENDBRANCH  12  15
ENDBRANCH   1  11
BRANCH  10  33
HETATM   33  C13 UNL     1      11.175  74.812   9.443  1.00  0.00     0.097 C 
BRANCH  33  34
HETATM   34  O2  UNL     1       9.923  74.803   9.897  1.00  0.00    -0.359 OA
ATOM     35  H2  UNL     1       9.292  74.279   9.416  1.00  0.00     0.217 HD
ENDBRANCH  33  34
BRANCH  33  36
HETATM   36  C14 UNL     1      11.799  73.532   9.714  1.00  0.00     0.113 C 
BRANCH  36  37
HETATM   37  C15 UNL     1      12.472  72.787   8.628  1.00  0.00    -0.002 A 
HETATM   38  C16 UNL     1      13.867  73.021   8.451  1.00  0.00     0.013 A 
HETATM   39  C17 UNL     1      14.618  72.467   7.478  1.00  0.00     0.002 A 
HETATM   40  C18 UNL     1      14.048  71.612   6.576  1.00  0.00     0.012 A 
HETATM   41  C19 UNL     1      12.684  71.355   6.712  1.00  0.00    -0.025 A 
HETATM   42  C20 UNL     1      12.115  70.502   5.801  1.00  0.00     0.012 A 
HETATM   43  C24 UNL     1      11.915  71.928   7.715  1.00  0.00    -0.014 A 
HETATM   44  C21 UNL     1      10.771  70.201   5.868  1.00  0.00     0.001 A 
HETATM   45  C22 UNL     1      10.005  70.776   6.871  1.00  0.00     0.001 A 
HETATM   46  C23 UNL     1      10.586  71.633   7.781  1.00  0.00     0.013 A 
ENDBRANCH  36  37
BRANCH  36  47
HETATM   47  P1  UNL     1      12.606  73.400  11.288  1.00  0.00     0.299 P 
HETATM   48  O3  UNL     1      11.775  74.472  11.975  1.00  0.00    -0.636 OA
HETATM   49  O4  UNL     1      12.236  72.209  12.319  1.00  0.00    -0.636 OA
HETATM   50  O5  UNL     1      13.950  74.389  11.588  1.00  0.00    -0.636 OA
ENDBRANCH  36  47
ENDBRANCH  33  36
ENDBRANCH  10  33
TORSDOF 8
ENDMDL
