MODEL 10
REMARK VINA RESULT: -7.356830388      2.882      8.207
REMARK  12 active torsions:
REMARK  status: ('A' for Active; 'I' for Inactive)
REMARK    1  A    between atoms: C2_2  and  C3_3 
REMARK    2  A    between atoms: C3_3  and  N1_4 
REMARK    3  A    between atoms: N1_4  and  C4_5 
REMARK    4  A    between atoms: N1_4  and  C15_27 
REMARK    5  A    between atoms: C4_5  and  O1_6 
REMARK    6  A    between atoms: C4_5  and  C5_8 
REMARK    7  A    between atoms: C9_13  and  O2_14 
REMARK    8  A    between atoms: O2_14  and  C10_15 
REMARK    9  A    between atoms: C10_15  and  C11_16 
REMARK   10  A    between atoms: C11_16  and  C12_17 
REMARK   11  A    between atoms: C12_17  and  O3_18 
REMARK   12  A    between atoms: O3_18  and  N2_19 
REMARK       I    between atoms: N2_19  and  C13_21 
ROOT
HETATM    1  C5  UNL     1      16.990 -14.245  21.716  1.00  0.00     0.019 A 
HETATM    2  C6  UNL     1      17.832 -13.679  20.795  1.00  0.00     0.040 A 
HETATM    3  C7  UNL     1      19.207 -13.774  21.002  1.00  0.00     0.037 A 
HETATM    4 CL1  UNL     1      20.255 -13.032  19.794  1.00  0.00    -0.084 Cl
HETATM    5  C8  UNL     1      19.734 -14.413  22.097  1.00  0.00     0.060 A 
HETATM    6  C9  UNL     1      18.921 -14.993  23.043  1.00  0.00     0.071 A 
HETATM    7  C14 UNL     1      17.568 -14.892  22.824  1.00  0.00     0.052 A 
ENDROOT
BRANCH   1   8
HETATM    8  C4  UNL     1      15.556 -14.208  21.580  1.00  0.00     0.149 C 
BRANCH   8   9
HETATM    9  N1  UNL     1      14.663 -14.502  20.563  1.00  0.00    -0.353 N 
BRANCH   9  10
HETATM   10  C3  UNL     1      14.018 -13.614  19.651  1.00  0.00     0.152 C 
BRANCH  10  11
HETATM   11  C2  UNL     1      14.986 -12.974  18.753  1.00  0.00    -0.017 C 
HETATM   12  C1  UNL     1      15.614 -13.553  17.748  1.00  0.00     0.008 C 
ENDBRANCH  10  11
ENDBRANCH   9  10
BRANCH   9  13
HETATM   13  C15 UNL     1      14.287 -15.947  20.467  1.00  0.00     0.086 C 
HETATM   14  C16 UNL     1      15.328 -16.796  19.843  1.00  0.00     0.025 C 
HETATM   15  C17 UNL     1      14.970 -17.033  18.404  1.00  0.00     0.002 C 
HETATM   16  C18 UNL     1      13.449 -16.876  18.378  1.00  0.00     0.002 C 
HETATM   17  C19 UNL     1      13.070 -16.122  19.610  1.00  0.00     0.025 C 
ENDBRANCH   9  13
ENDBRANCH   8   9
BRANCH   8  18
HETATM   18  O1  UNL     1      14.984 -13.789  22.718  1.00  0.00    -0.346 OA
ATOM     19  H1  UNL     1      15.591 -13.648  23.435  1.00  0.00     0.219 HD
ENDBRANCH   8  18
ENDBRANCH   1   8
BRANCH   6  20
HETATM   20  O2  UNL     1      19.435 -15.645  24.159  1.00  0.00    -0.351 OA
BRANCH  20  21
HETATM   21  C10 UNL     1      18.940 -15.280  25.416  1.00  0.00     0.178 C 
BRANCH  21  22
HETATM   22  C11 UNL     1      19.993 -14.807  26.361  1.00  0.00     0.055 C 
BRANCH  22  23
HETATM   23  C12 UNL     1      20.658 -13.516  25.971  1.00  0.00     0.203 C 
BRANCH  23  24
HETATM   24  O3  UNL     1      22.036 -13.805  25.905  1.00  0.00    -0.278 OA
BRANCH  24  25
HETATM   25  N2  UNL     1      22.351 -14.670  24.940  1.00  0.00    -0.239 N 
HETATM   26  C13 UNL     1      23.677 -14.766  24.393  1.00  0.00     0.205 C 
HETATM   27  N3  UNL     1      24.213 -15.983  23.916  1.00  0.00    -0.062 NA
HETATM   28  N4  UNL     1      24.386 -13.687  24.345  1.00  0.00    -0.372 N 
ATOM     29  H42 UNL     1      23.999 -12.809  24.690  1.00  0.00     0.158 HD
ATOM     30  H41 UNL     1      25.327 -13.755  23.957  1.00  0.00     0.158 HD
ATOM     31  H2  UNL     1      21.624 -15.286  24.577  1.00  0.00     0.197 HD
ENDBRANCH  24  25
ENDBRANCH  23  24
ENDBRANCH  22  23
ENDBRANCH  21  22
ENDBRANCH  20  21
ENDBRANCH   6  20
TORSDOF 12
ENDMDL
