MODEL 1
REMARK VINA RESULT: -7.588807804      0.000      0.000
REMARK  12 active torsions:
REMARK  status: ('A' for Active; 'I' for Inactive)
REMARK    1  A    between atoms: C2_2  and  C3_3 
REMARK    2  A    between atoms: C3_3  and  N1_4 
REMARK    3  A    between atoms: N1_4  and  C4_5 
REMARK    4  A    between atoms: N1_4  and  C15_27 
REMARK    5  A    between atoms: C4_5  and  O1_6 
REMARK    6  A    between atoms: C4_5  and  C5_8 
REMARK    7  A    between atoms: C9_13  and  O2_14 
REMARK    8  A    between atoms: O2_14  and  C10_15 
REMARK    9  A    between atoms: C10_15  and  C11_16 
REMARK   10  A    between atoms: C11_16  and  C12_17 
REMARK   11  A    between atoms: C12_17  and  O3_18 
REMARK   12  A    between atoms: O3_18  and  N2_19 
REMARK       I    between atoms: N2_19  and  C13_21 
ROOT
HETATM    1  C5  UNL     1      18.010 -14.668  22.607  1.00  0.00     0.019 A 
HETATM    2  C6  UNL     1      19.046 -14.379  21.759  1.00  0.00     0.040 A 
HETATM    3  C7  UNL     1      18.833 -13.457  20.735  1.00  0.00     0.037 A 
HETATM    4 CL1  UNL     1      20.192 -13.114  19.665  1.00  0.00    -0.084 Cl
HETATM    5  C8  UNL     1      17.621 -12.838  20.557  1.00  0.00     0.060 A 
HETATM    6  C9  UNL     1      16.556 -13.101  21.388  1.00  0.00     0.071 A 
HETATM    7  C14 UNL     1      16.783 -14.012  22.393  1.00  0.00     0.052 A 
ENDROOT
BRANCH   1   8
HETATM    8  C4  UNL     1      18.140 -15.598  23.700  1.00  0.00     0.149 C 
BRANCH   8   9
HETATM    9  N1  UNL     1      19.075 -15.805  24.701  1.00  0.00    -0.353 N 
BRANCH   9  10
HETATM   10  C3  UNL     1      19.730 -17.015  25.078  1.00  0.00     0.152 C 
BRANCH  10  11
HETATM   11  C2  UNL     1      20.695 -17.442  24.059  1.00  0.00    -0.017 C 
HETATM   12  C1  UNL     1      22.008 -17.400  24.165  1.00  0.00     0.008 C 
ENDBRANCH  10  11
ENDBRANCH   9  10
BRANCH   9  13
HETATM   13  C15 UNL     1      19.375 -14.596  25.528  1.00  0.00     0.086 C 
HETATM   14  C16 UNL     1      20.424 -13.723  24.953  1.00  0.00     0.025 C 
HETATM   15  C17 UNL     1      21.730 -14.008  25.639  1.00  0.00     0.002 C 
HETATM   16  C18 UNL     1      21.311 -14.552  27.005  1.00  0.00     0.002 C 
HETATM   17  C19 UNL     1      19.890 -14.993  26.879  1.00  0.00     0.025 C 
ENDBRANCH   9  13
ENDBRANCH   8   9
BRANCH   8  18
HETATM   18  O1  UNL     1      17.099 -16.443  23.728  1.00  0.00    -0.346 OA
ATOM     19  H1  UNL     1      16.831 -16.766  22.876  1.00  0.00     0.219 HD
ENDBRANCH   8  18
ENDBRANCH   1   8
BRANCH   6  20
HETATM   20  O2  UNL     1      15.321 -12.485  21.225  1.00  0.00    -0.351 OA
BRANCH  20  21
HETATM   21  C10 UNL     1      14.501 -12.926  20.180  1.00  0.00     0.178 C 
BRANCH  21  22
HETATM   22  C11 UNL     1      13.077 -13.123  20.577  1.00  0.00     0.055 C 
BRANCH  22  23
HETATM   23  C12 UNL     1      12.840 -14.250  21.545  1.00  0.00     0.203 C 
BRANCH  23  24
HETATM   24  O3  UNL     1      12.857 -13.660  22.824  1.00  0.00    -0.278 OA
BRANCH  24  25
HETATM   25  N2  UNL     1      12.434 -12.395  22.831  1.00  0.00    -0.239 N 
HETATM   26  C13 UNL     1      11.318 -11.959  23.626  1.00  0.00     0.205 C 
HETATM   27  N3  UNL     1      11.239 -10.659  24.171  1.00  0.00    -0.062 NA
HETATM   28  N4  UNL     1      10.364 -12.805  23.835  1.00  0.00    -0.372 N 
ATOM     29  H42 UNL     1      10.422 -13.744  23.440  1.00  0.00     0.158 HD
ATOM     30  H41 UNL     1       9.572 -12.496  24.399  1.00  0.00     0.158 HD
ATOM     31  H2  UNL     1      12.920 -11.712  22.251  1.00  0.00     0.197 HD
ENDBRANCH  24  25
ENDBRANCH  23  24
ENDBRANCH  22  23
ENDBRANCH  21  22
ENDBRANCH  20  21
ENDBRANCH   6  20
TORSDOF 12
ENDMDL
