MODEL 8
REMARK VINA RESULT: -7.370678218      2.151      8.052
REMARK  12 active torsions:
REMARK  status: ('A' for Active; 'I' for Inactive)
REMARK    1  A    between atoms: C2_2  and  C3_3 
REMARK    2  A    between atoms: C3_3  and  N1_4 
REMARK    3  A    between atoms: N1_4  and  C4_5 
REMARK    4  A    between atoms: N1_4  and  C15_27 
REMARK    5  A    between atoms: C4_5  and  O1_6 
REMARK    6  A    between atoms: C4_5  and  C5_8 
REMARK    7  A    between atoms: C9_13  and  O2_14 
REMARK    8  A    between atoms: O2_14  and  C10_15 
REMARK    9  A    between atoms: C10_15  and  C11_16 
REMARK   10  A    between atoms: C11_16  and  C12_17 
REMARK   11  A    between atoms: C12_17  and  O3_18 
REMARK   12  A    between atoms: O3_18  and  N2_19 
REMARK       I    between atoms: N2_19  and  C13_21 
ROOT
HETATM    1  C5  UNL     1      16.608 -13.122  21.421  1.00  0.00     0.019 A 
HETATM    2  C6  UNL     1      17.710 -12.790  20.678  1.00  0.00     0.040 A 
HETATM    3  C7  UNL     1      18.918 -13.427  20.956  1.00  0.00     0.037 A 
HETATM    4 CL1  UNL     1      20.312 -12.970  19.977  1.00  0.00    -0.084 Cl
HETATM    5  C8  UNL     1      19.031 -14.369  21.947  1.00  0.00     0.060 A 
HETATM    6  C9  UNL     1      17.947 -14.729  22.715  1.00  0.00     0.071 A 
HETATM    7  C14 UNL     1      16.763 -14.092  22.428  1.00  0.00     0.052 A 
ENDROOT
BRANCH   1   8
HETATM    8  C4  UNL     1      15.316 -12.525  21.198  1.00  0.00     0.149 C 
BRANCH   8   9
HETATM    9  N1  UNL     1      14.018 -13.004  21.120  1.00  0.00    -0.353 N 
BRANCH   9  10
HETATM   10  C3  UNL     1      13.038 -13.106  22.151  1.00  0.00     0.152 C 
BRANCH  10  11
HETATM   11  C2  UNL     1      12.293 -11.852  22.308  1.00  0.00    -0.017 C 
HETATM   12  C1  UNL     1      11.458 -11.561  23.286  1.00  0.00     0.008 C 
ENDBRANCH  10  11
ENDBRANCH   9  10
BRANCH   9  13
HETATM   13  C15 UNL     1      13.636 -13.542  19.778  1.00  0.00     0.086 C 
HETATM   14  C16 UNL     1      13.712 -15.017  19.681  1.00  0.00     0.025 C 
HETATM   15  C17 UNL     1      15.000 -15.400  19.009  1.00  0.00     0.002 C 
HETATM   16  C18 UNL     1      15.345 -14.175  18.162  1.00  0.00     0.002 C 
HETATM   17  C19 UNL     1      14.564 -13.029  18.718  1.00  0.00     0.025 C 
ENDBRANCH   9  13
ENDBRANCH   8   9
BRANCH   8  18
HETATM   18  O1  UNL     1      15.430 -11.199  21.034  1.00  0.00    -0.346 OA
ATOM     19  H1  UNL     1      14.660 -10.780  20.668  1.00  0.00     0.219 HD
ENDBRANCH   8  18
ENDBRANCH   1   8
BRANCH   6  20
HETATM   20  O2  UNL     1      18.039 -15.681  23.724  1.00  0.00    -0.351 OA
BRANCH  20  21
HETATM   21  C10 UNL     1      18.181 -15.229  25.041  1.00  0.00     0.178 C 
BRANCH  21  22
HETATM   22  C11 UNL     1      19.418 -15.720  25.714  1.00  0.00     0.055 C 
BRANCH  22  23
HETATM   23  C12 UNL     1      20.014 -14.766  26.714  1.00  0.00     0.203 C 
BRANCH  23  24
HETATM   24  O3  UNL     1      20.712 -13.808  25.952  1.00  0.00    -0.278 OA
BRANCH  24  25
HETATM   25  N2  UNL     1      22.036 -13.968  25.981  1.00  0.00    -0.239 N 
HETATM   26  C13 UNL     1      22.824 -14.092  24.785  1.00  0.00     0.205 C 
HETATM   27  N3  UNL     1      24.153 -13.622  24.702  1.00  0.00    -0.062 NA
HETATM   28  N4  UNL     1      22.276 -14.659  23.761  1.00  0.00    -0.372 N 
ATOM     29  H42 UNL     1      21.316 -14.998  23.822  1.00  0.00     0.158 HD
ATOM     30  H41 UNL     1      22.835 -14.747  22.913  1.00  0.00     0.158 HD
ATOM     31  H2  UNL     1      22.506 -14.003  26.885  1.00  0.00     0.197 HD
ENDBRANCH  24  25
ENDBRANCH  23  24
ENDBRANCH  22  23
ENDBRANCH  21  22
ENDBRANCH  20  21
ENDBRANCH   6  20
TORSDOF 12
ENDMDL
