MODEL 2
REMARK VINA RESULT: -7.583563254      1.342      1.853
REMARK  12 active torsions:
REMARK  status: ('A' for Active; 'I' for Inactive)
REMARK    1  A    between atoms: C2_2  and  C3_3 
REMARK    2  A    between atoms: C3_3  and  N1_4 
REMARK    3  A    between atoms: N1_4  and  C4_5 
REMARK    4  A    between atoms: N1_4  and  C15_27 
REMARK    5  A    between atoms: C4_5  and  O1_6 
REMARK    6  A    between atoms: C4_5  and  C5_8 
REMARK    7  A    between atoms: C9_13  and  O2_14 
REMARK    8  A    between atoms: O2_14  and  C10_15 
REMARK    9  A    between atoms: C10_15  and  C11_16 
REMARK   10  A    between atoms: C11_16  and  C12_17 
REMARK   11  A    between atoms: C12_17  and  O3_18 
REMARK   12  A    between atoms: O3_18  and  N2_19 
REMARK       I    between atoms: N2_19  and  C13_21 
ROOT
HETATM    1  C5  UNL     1      19.076 -15.157  22.390  1.00  0.00     0.019 A 
HETATM    2  C6  UNL     1      19.835 -14.579  21.407  1.00  0.00     0.040 A 
HETATM    3  C7  UNL     1      19.261 -13.582  20.620  1.00  0.00     0.037 A 
HETATM    4 CL1  UNL     1      20.273 -12.865  19.366  1.00  0.00    -0.084 Cl
HETATM    5  C8  UNL     1      17.965 -13.169  20.803  1.00  0.00     0.060 A 
HETATM    6  C9  UNL     1      17.171 -13.725  21.779  1.00  0.00     0.071 A 
HETATM    7  C14 UNL     1      17.752 -14.706  22.547  1.00  0.00     0.052 A 
ENDROOT
BRANCH   1   8
HETATM    8  C4  UNL     1      19.587 -16.186  23.259  1.00  0.00     0.149 C 
BRANCH   8   9
HETATM    9  N1  UNL     1      20.263 -16.198  24.468  1.00  0.00    -0.353 N 
BRANCH   9  10
HETATM   10  C3  UNL     1      20.189 -17.152  25.526  1.00  0.00     0.152 C 
BRANCH  10  11
HETATM   11  C2  UNL     1      18.833 -17.234  26.080  1.00  0.00    -0.017 C 
HETATM   12  C1  UNL     1      18.312 -16.428  26.984  1.00  0.00     0.008 C 
ENDBRANCH  10  11
ENDBRANCH   9  10
BRANCH   9  13
HETATM   13  C15 UNL     1      21.134 -15.005  24.702  1.00  0.00     0.086 C 
HETATM   14  C16 UNL     1      22.206 -15.233  25.698  1.00  0.00     0.025 C 
HETATM   15  C17 UNL     1      21.777 -14.663  27.020  1.00  0.00     0.002 C 
HETATM   16  C18 UNL     1      20.780 -13.570  26.638  1.00  0.00     0.002 C 
HETATM   17  C19 UNL     1      20.331 -13.861  25.243  1.00  0.00     0.025 C 
ENDBRANCH   9  13
ENDBRANCH   8   9
BRANCH   8  18
HETATM   18  O1  UNL     1      19.331 -17.402  22.753  1.00  0.00    -0.346 OA
ATOM     19  H1  UNL     1      19.988 -17.721  22.145  1.00  0.00     0.219 HD
ENDBRANCH   8  18
ENDBRANCH   1   8
BRANCH   6  20
HETATM   20  O2  UNL     1      15.856 -13.321  21.981  1.00  0.00    -0.351 OA
BRANCH  20  21
HETATM   21  C10 UNL     1      14.878 -13.813  21.110  1.00  0.00     0.178 C 
BRANCH  21  22
HETATM   22  C11 UNL     1      13.793 -12.834  20.810  1.00  0.00     0.055 C 
BRANCH  22  23
HETATM   23  C12 UNL     1      13.900 -11.527  21.547  1.00  0.00     0.203 C 
BRANCH  23  24
HETATM   24  O3  UNL     1      13.038 -11.648  22.656  1.00  0.00    -0.278 OA
BRANCH  24  25
HETATM   25  N2  UNL     1      12.509 -10.488  23.046  1.00  0.00    -0.239 N 
HETATM   26  C13 UNL     1      11.538 -10.399  24.102  1.00  0.00     0.205 C 
HETATM   27  N3  UNL     1      11.447  -9.278  24.956  1.00  0.00    -0.062 NA
HETATM   28  N4  UNL     1      10.727 -11.394  24.257  1.00  0.00    -0.372 N 
ATOM     29  H42 UNL     1      10.793 -12.203  23.640  1.00  0.00     0.158 HD
ATOM     30  H41 UNL     1      10.038 -11.331  25.006  1.00  0.00     0.158 HD
ATOM     31  H2  UNL     1      12.804  -9.631  22.577  1.00  0.00     0.197 HD
ENDBRANCH  24  25
ENDBRANCH  23  24
ENDBRANCH  22  23
ENDBRANCH  21  22
ENDBRANCH  20  21
ENDBRANCH   6  20
TORSDOF 12
ENDMDL
