MODEL 5
REMARK VINA RESULT: -7.468601467      2.362      8.276
REMARK  12 active torsions:
REMARK  status: ('A' for Active; 'I' for Inactive)
REMARK    1  A    between atoms: C2_2  and  C3_3 
REMARK    2  A    between atoms: C3_3  and  N1_4 
REMARK    3  A    between atoms: N1_4  and  C4_5 
REMARK    4  A    between atoms: N1_4  and  C15_27 
REMARK    5  A    between atoms: C4_5  and  O1_6 
REMARK    6  A    between atoms: C4_5  and  C5_8 
REMARK    7  A    between atoms: C9_13  and  O2_14 
REMARK    8  A    between atoms: O2_14  and  C10_15 
REMARK    9  A    between atoms: C10_15  and  C11_16 
REMARK   10  A    between atoms: C11_16  and  C12_17 
REMARK   11  A    between atoms: C12_17  and  O3_18 
REMARK   12  A    between atoms: O3_18  and  N2_19 
REMARK       I    between atoms: N2_19  and  C13_21 
ROOT
HETATM    1  C5  UNL     1      16.926 -13.797  21.938  1.00  0.00     0.019 A 
HETATM    2  C6  UNL     1      17.802 -13.341  20.987  1.00  0.00     0.040 A 
HETATM    3  C7  UNL     1      19.161 -13.602  21.154  1.00  0.00     0.037 A 
HETATM    4 CL1  UNL     1      20.254 -12.998  19.909  1.00  0.00    -0.084 Cl
HETATM    5  C8  UNL     1      19.640 -14.295  22.238  1.00  0.00     0.060 A 
HETATM    6  C9  UNL     1      18.792 -14.768  23.213  1.00  0.00     0.071 A 
HETATM    7  C14 UNL     1      17.455 -14.504  23.033  1.00  0.00     0.052 A 
ENDROOT
BRANCH   1   8
HETATM    8  C4  UNL     1      15.504 -13.586  21.844  1.00  0.00     0.149 C 
BRANCH   8   9
HETATM    9  N1  UNL     1      14.688 -12.731  21.121  1.00  0.00    -0.353 N 
BRANCH   9  10
HETATM   10  C3  UNL     1      14.333 -11.379  21.404  1.00  0.00     0.152 C 
BRANCH  10  11
HETATM   11  C2  UNL     1      13.148 -11.306  22.267  1.00  0.00    -0.017 C 
HETATM   12  C1  UNL     1      12.062 -10.595  22.038  1.00  0.00     0.008 C 
ENDBRANCH  10  11
ENDBRANCH   9  10
BRANCH   9  13
HETATM   13  C15 UNL     1      14.052 -13.352  19.918  1.00  0.00     0.086 C 
HETATM   14  C16 UNL     1      14.828 -14.475  19.343  1.00  0.00     0.025 C 
HETATM   15  C17 UNL     1      15.610 -13.976  18.161  1.00  0.00     0.002 C 
HETATM   16  C18 UNL     1      14.805 -12.771  17.676  1.00  0.00     0.002 C 
HETATM   17  C19 UNL     1      13.926 -12.352  18.809  1.00  0.00     0.025 C 
ENDBRANCH   9  13
ENDBRANCH   8   9
BRANCH   8  18
HETATM   18  O1  UNL     1      14.847 -14.428  22.655  1.00  0.00    -0.346 OA
ATOM     19  H1  UNL     1      15.079 -14.353  23.573  1.00  0.00     0.219 HD
ENDBRANCH   8  18
ENDBRANCH   1   8
BRANCH   6  20
HETATM   20  O2  UNL     1      19.257 -15.472  24.318  1.00  0.00    -0.351 OA
BRANCH  20  21
HETATM   21  C10 UNL     1      18.929 -14.987  25.589  1.00  0.00     0.178 C 
BRANCH  21  22
HETATM   22  C11 UNL     1      20.046 -15.080  26.574  1.00  0.00     0.055 C 
BRANCH  22  23
HETATM   23  C12 UNL     1      20.875 -13.832  26.710  1.00  0.00     0.203 C 
BRANCH  23  24
HETATM   24  O3  UNL     1      21.658 -13.768  25.540  1.00  0.00    -0.278 OA
BRANCH  24  25
HETATM   25  N2  UNL     1      22.779 -14.487  25.612  1.00  0.00    -0.239 N 
HETATM   26  C13 UNL     1      23.144 -15.449  24.608  1.00  0.00     0.205 C 
HETATM   27  N3  UNL     1      24.488 -15.724  24.276  1.00  0.00    -0.062 NA
HETATM   28  N4  UNL     1      22.189 -16.073  24.000  1.00  0.00    -0.372 N 
ATOM     29  H42 UNL     1      21.218 -15.874  24.241  1.00  0.00     0.158 HD
ATOM     30  H41 UNL     1      22.448 -16.756  23.288  1.00  0.00     0.158 HD
ATOM     31  H2  UNL     1      23.401 -14.349  26.408  1.00  0.00     0.197 HD
ENDBRANCH  24  25
ENDBRANCH  23  24
ENDBRANCH  22  23
ENDBRANCH  21  22
ENDBRANCH  20  21
ENDBRANCH   6  20
TORSDOF 12
ENDMDL
