MODEL 7
REMARK VINA RESULT: -7.404851949      1.202      1.404
REMARK  12 active torsions:
REMARK  status: ('A' for Active; 'I' for Inactive)
REMARK    1  A    between atoms: C2_2  and  C3_3 
REMARK    2  A    between atoms: C3_3  and  N1_4 
REMARK    3  A    between atoms: N1_4  and  C4_5 
REMARK    4  A    between atoms: N1_4  and  C15_27 
REMARK    5  A    between atoms: C4_5  and  O1_6 
REMARK    6  A    between atoms: C4_5  and  C5_8 
REMARK    7  A    between atoms: C9_13  and  O2_14 
REMARK    8  A    between atoms: O2_14  and  C10_15 
REMARK    9  A    between atoms: C10_15  and  C11_16 
REMARK   10  A    between atoms: C11_16  and  C12_17 
REMARK   11  A    between atoms: C12_17  and  O3_18 
REMARK   12  A    between atoms: O3_18  and  N2_19 
REMARK       I    between atoms: N2_19  and  C13_21 
ROOT
HETATM    1  C5  UNL     1      18.443 -14.968  22.829  1.00  0.00     0.019 A 
HETATM    2  C6  UNL     1      19.389 -14.467  21.974  1.00  0.00     0.040 A 
HETATM    3  C7  UNL     1      18.992 -13.543  21.009  1.00  0.00     0.037 A 
HETATM    4 CL1  UNL     1      20.240 -12.924  19.927  1.00  0.00    -0.084 Cl
HETATM    5  C8  UNL     1      17.689 -13.127  20.894  1.00  0.00     0.060 A 
HETATM    6  C9  UNL     1      16.711 -13.607  21.735  1.00  0.00     0.071 A 
HETATM    7  C14 UNL     1      17.119 -14.517  22.681  1.00  0.00     0.052 A 
ENDROOT
BRANCH   1   8
HETATM    8  C4  UNL     1      18.762 -15.918  23.865  1.00  0.00     0.149 C 
BRANCH   8   9
HETATM    9  N1  UNL     1      19.935 -16.409  24.414  1.00  0.00    -0.353 N 
BRANCH   9  10
HETATM   10  C3  UNL     1      20.873 -17.323  23.850  1.00  0.00     0.152 C 
BRANCH  10  11
HETATM   11  C2  UNL     1      20.253 -18.156  22.814  1.00  0.00    -0.017 C 
HETATM   12  C1  UNL     1      20.746 -18.402  21.616  1.00  0.00     0.008 C 
ENDBRANCH  10  11
ENDBRANCH   9  10
BRANCH   9  13
HETATM   13  C15 UNL     1      20.201 -15.956  25.814  1.00  0.00     0.086 C 
HETATM   14  C16 UNL     1      19.678 -14.603  26.115  1.00  0.00     0.025 C 
HETATM   15  C17 UNL     1      20.801 -13.610  26.020  1.00  0.00     0.002 C 
HETATM   16  C18 UNL     1      22.050 -14.446  26.300  1.00  0.00     0.002 C 
HETATM   17  C19 UNL     1      21.676 -15.874  26.073  1.00  0.00     0.025 C 
ENDBRANCH   9  13
ENDBRANCH   8   9
BRANCH   8  18
HETATM   18  O1  UNL     1      17.642 -16.423  24.404  1.00  0.00    -0.346 OA
ATOM     19  H1  UNL     1      17.034 -15.771  24.732  1.00  0.00     0.219 HD
ENDBRANCH   8  18
ENDBRANCH   1   8
BRANCH   6  20
HETATM   20  O2  UNL     1      15.385 -13.199  21.636  1.00  0.00    -0.351 OA
BRANCH  20  21
HETATM   21  C10 UNL     1      15.126 -11.952  21.056  1.00  0.00     0.178 C 
BRANCH  21  22
HETATM   22  C11 UNL     1      13.673 -11.636  20.937  1.00  0.00     0.055 C 
BRANCH  22  23
HETATM   23  C12 UNL     1      12.757 -12.592  21.652  1.00  0.00     0.203 C 
BRANCH  23  24
HETATM   24  O3  UNL     1      12.714 -12.145  22.988  1.00  0.00    -0.278 OA
BRANCH  24  25
HETATM   25  N2  UNL     1      12.256 -10.899  23.117  1.00  0.00    -0.239 N 
HETATM   26  C13 UNL     1      11.597 -10.439  24.309  1.00  0.00     0.205 C 
HETATM   27  N3  UNL     1      11.687  -9.102  24.756  1.00  0.00    -0.062 NA
HETATM   28  N4  UNL     1      10.902 -11.297  24.980  1.00  0.00    -0.372 N 
ATOM     29  H42 UNL     1      10.837 -12.262  24.657  1.00  0.00     0.158 HD
ATOM     30  H41 UNL     1      10.435 -10.970  25.826  1.00  0.00     0.158 HD
ATOM     31  H2  UNL     1      12.377 -10.249  22.341  1.00  0.00     0.197 HD
ENDBRANCH  24  25
ENDBRANCH  23  24
ENDBRANCH  22  23
ENDBRANCH  21  22
ENDBRANCH  20  21
ENDBRANCH   6  20
TORSDOF 12
ENDMDL
