MODEL 10
REMARK VINA RESULT: -5.795571572      3.821      4.387
REMARK  9 active torsions:
REMARK  status: ('A' for Active; 'I' for Inactive)
REMARK    1  A    between atoms: N1_1  and  C1_5 
REMARK    2  A    between atoms: C1_5  and  C2_6 
REMARK    3  A    between atoms: C1_5  and  C7_15 
REMARK    4  A    between atoms: C2_6  and  C3_7 
REMARK    5  A    between atoms: C3_7  and  C4_8 
REMARK    6  A    between atoms: C4_8  and  C5_9 
REMARK    7  A    between atoms: C5_9  and  C6_10 
REMARK    8  A    between atoms: C6_10  and  O1_11 
REMARK    9  A    between atoms: C6_10  and  O2_13 
ROOT
HETATM    1  C2  UNL     1      84.431  45.477 -10.618  1.00  0.00     0.044 C 
ENDROOT
BRANCH   1   2
HETATM    2  C1  UNL     1      83.921  45.384 -12.031  1.00  0.00     0.283 C 
BRANCH   2   3
HETATM    3  N1  UNL     1      82.728  44.552 -11.964  1.00  0.00    -0.065 N 
ATOM      4  H13 UNL     1      82.927  43.561 -11.833  1.00  0.00     0.275 HD
ATOM      5  H12 UNL     1      82.186  44.682 -11.110  1.00  0.00     0.275 HD
ATOM      6  H11 UNL     1      82.203  44.754 -12.816  1.00  0.00     0.275 HD
ENDBRANCH   2   3
BRANCH   2   7
HETATM    7  C7  UNL     1      84.855  44.787 -12.981  1.00  0.00     0.204 C 
HETATM    8  O3  UNL     1      84.541  43.730 -13.578  1.00  0.00    -0.646 OA
HETATM    9  O4  UNL     1      86.093  45.333 -13.266  1.00  0.00    -0.646 OA
ENDBRANCH   2   7
ENDBRANCH   1   2
BRANCH   1  10
HETATM   10  C3  UNL     1      84.951  44.185 -10.056  1.00  0.00     0.003 C 
BRANCH  10  11
HETATM   11  C4  UNL     1      84.167  43.928  -8.793  1.00  0.00     0.005 C 
BRANCH  11  12
HETATM   12  C5  UNL     1      83.334  45.081  -8.350  1.00  0.00     0.060 C 
BRANCH  12  13
HETATM   13  C6  UNL     1      81.897  44.745  -8.090  1.00  0.00     0.253 C 
BRANCH  13  14
HETATM   14  O1  UNL     1      81.037  45.801  -8.229  1.00  0.00    -0.371 OA
ATOM     15  H1  UNL     1      81.013  46.387  -7.482  1.00  0.00     0.212 HD
ENDBRANCH  13  14
BRANCH  13  16
HETATM   16  O2  UNL     1      81.775  44.251  -6.792  1.00  0.00    -0.371 OA
ATOM     17  H2  UNL     1      80.929  43.827  -6.701  1.00  0.00     0.212 HD
ENDBRANCH  13  16
ENDBRANCH  12  13
ENDBRANCH  11  12
ENDBRANCH  10  11
ENDBRANCH   1  10
TORSDOF 9
ENDMDL
