MODEL 7
REMARK VINA RESULT: -5.904343382      1.694      1.864
REMARK  9 active torsions:
REMARK  status: ('A' for Active; 'I' for Inactive)
REMARK    1  A    between atoms: N1_1  and  C1_5 
REMARK    2  A    between atoms: C1_5  and  C2_6 
REMARK    3  A    between atoms: C1_5  and  C7_15 
REMARK    4  A    between atoms: C2_6  and  C3_7 
REMARK    5  A    between atoms: C3_7  and  C4_8 
REMARK    6  A    between atoms: C4_8  and  C5_9 
REMARK    7  A    between atoms: C5_9  and  C6_10 
REMARK    8  A    between atoms: C6_10  and  O1_11 
REMARK    9  A    between atoms: C6_10  and  O2_13 
ROOT
HETATM    1  C2  UNL     1      86.366  43.448  -8.576  1.00  0.00     0.044 C 
ENDROOT
BRANCH   1   2
HETATM    2  C1  UNL     1      86.906  44.850  -8.659  1.00  0.00     0.283 C 
BRANCH   2   3
HETATM    3  N1  UNL     1      87.433  44.989 -10.010  1.00  0.00    -0.065 N 
ATOM      4  H13 UNL     1      88.298  45.528 -10.058  1.00  0.00     0.275 HD
ATOM      5  H12 UNL     1      87.809  44.122 -10.393  1.00  0.00     0.275 HD
ATOM      6  H11 UNL     1      86.673  45.385 -10.563  1.00  0.00     0.275 HD
ENDBRANCH   2   3
BRANCH   2   7
HETATM    7  C7  UNL     1      87.971  45.154  -7.707  1.00  0.00     0.204 C 
HETATM    8  O3  UNL     1      89.155  45.240  -8.109  1.00  0.00    -0.646 OA
HETATM    9  O4  UNL     1      87.742  45.357  -6.359  1.00  0.00    -0.646 OA
ENDBRANCH   2   7
ENDBRANCH   1   2
BRANCH   1  10
HETATM   10  C3  UNL     1      84.916  43.315  -8.947  1.00  0.00     0.003 C 
BRANCH  10  11
HETATM   11  C4  UNL     1      84.183  44.389  -8.183  1.00  0.00     0.005 C 
BRANCH  11  12
HETATM   12  C5  UNL     1      83.040  44.989  -8.924  1.00  0.00     0.060 C 
BRANCH  12  13
HETATM   13  C6  UNL     1      81.706  44.802  -8.267  1.00  0.00     0.253 C 
BRANCH  13  14
HETATM   14  O1  UNL     1      81.772  44.361  -6.973  1.00  0.00    -0.371 OA
ATOM     15  H1  UNL     1      81.104  43.727  -6.741  1.00  0.00     0.212 HD
ENDBRANCH  13  14
BRANCH  13  16
HETATM   16  O2  UNL     1      80.962  43.882  -9.005  1.00  0.00    -0.371 OA
ATOM     17  H2  UNL     1      80.424  43.372  -8.410  1.00  0.00     0.212 HD
ENDBRANCH  13  16
ENDBRANCH  12  13
ENDBRANCH  11  12
ENDBRANCH  10  11
ENDBRANCH   1  10
TORSDOF 9
ENDMDL
