MODEL 4
REMARK VINA RESULT: -5.983106694      1.007      1.099
REMARK  9 active torsions:
REMARK  status: ('A' for Active; 'I' for Inactive)
REMARK    1  A    between atoms: N1_1  and  C1_5 
REMARK    2  A    between atoms: C1_5  and  C2_6 
REMARK    3  A    between atoms: C1_5  and  C7_15 
REMARK    4  A    between atoms: C2_6  and  C3_7 
REMARK    5  A    between atoms: C3_7  and  C4_8 
REMARK    6  A    between atoms: C4_8  and  C5_9 
REMARK    7  A    between atoms: C5_9  and  C6_10 
REMARK    8  A    between atoms: C6_10  and  O1_11 
REMARK    9  A    between atoms: C6_10  and  O2_13 
ROOT
HETATM    1  C2  UNL     1      86.334  44.307  -7.279  1.00  0.00     0.044 C 
ENDROOT
BRANCH   1   2
HETATM    2  C1  UNL     1      87.783  44.065  -7.602  1.00  0.00     0.283 C 
BRANCH   2   3
HETATM    3  N1  UNL     1      88.461  43.969  -6.317  1.00  0.00    -0.065 N 
ATOM      4  H13 UNL     1      87.862  44.186  -5.521  1.00  0.00     0.275 HD
ATOM      5  H12 UNL     1      88.685  43.012  -6.043  1.00  0.00     0.275 HD
ATOM      6  H11 UNL     1      89.279  44.575  -6.391  1.00  0.00     0.275 HD
ENDBRANCH   2   3
BRANCH   2   7
HETATM    7  C7  UNL     1      88.420  45.117  -8.390  1.00  0.00     0.204 C 
HETATM    8  O3  UNL     1      88.829  44.863  -9.547  1.00  0.00    -0.646 OA
HETATM    9  O4  UNL     1      88.600  46.405  -7.921  1.00  0.00    -0.646 OA
ENDBRANCH   2   7
ENDBRANCH   1   2
BRANCH   1  10
HETATM   10  C3  UNL     1      85.372  43.827  -8.329  1.00  0.00     0.003 C 
BRANCH  10  11
HETATM   11  C4  UNL     1      84.231  44.814  -8.341  1.00  0.00     0.005 C 
BRANCH  11  12
HETATM   12  C5  UNL     1      82.962  44.269  -8.897  1.00  0.00     0.060 C 
BRANCH  12  13
HETATM   13  C6  UNL     1      81.725  44.727  -8.184  1.00  0.00     0.253 C 
BRANCH  13  14
HETATM   14  O1  UNL     1      81.532  46.082  -8.204  1.00  0.00    -0.371 OA
ATOM     15  H1  UNL     1      80.868  46.391  -7.600  1.00  0.00     0.212 HD
ENDBRANCH  13  14
BRANCH  13  16
HETATM   16  O2  UNL     1      81.788  44.313  -6.855  1.00  0.00    -0.371 OA
ATOM     17  H2  UNL     1      81.184  44.836  -6.340  1.00  0.00     0.212 HD
ENDBRANCH  13  16
ENDBRANCH  12  13
ENDBRANCH  11  12
ENDBRANCH  10  11
ENDBRANCH   1  10
TORSDOF 9
ENDMDL
