MODEL 11
REMARK VINA RESULT: -5.779058180      4.327      5.841
REMARK  9 active torsions:
REMARK  status: ('A' for Active; 'I' for Inactive)
REMARK    1  A    between atoms: N1_1  and  C1_5 
REMARK    2  A    between atoms: C1_5  and  C2_6 
REMARK    3  A    between atoms: C1_5  and  C7_15 
REMARK    4  A    between atoms: C2_6  and  C3_7 
REMARK    5  A    between atoms: C3_7  and  C4_8 
REMARK    6  A    between atoms: C4_8  and  C5_9 
REMARK    7  A    between atoms: C5_9  and  C6_10 
REMARK    8  A    between atoms: C6_10  and  O1_11 
REMARK    9  A    between atoms: C6_10  and  O2_13 
ROOT
HETATM    1  C2  UNL     1      83.052  45.598 -11.690  1.00  0.00     0.044 C 
ENDROOT
BRANCH   1   2
HETATM    2  C1  UNL     1      82.911  44.241 -12.325  1.00  0.00     0.283 C 
BRANCH   2   3
HETATM    3  N1  UNL     1      83.693  44.298 -13.553  1.00  0.00    -0.065 N 
ATOM      4  H13 UNL     1      83.778  43.398 -14.025  1.00  0.00     0.275 HD
ATOM      5  H12 UNL     1      83.225  44.790 -14.313  1.00  0.00     0.275 HD
ATOM      6  H11 UNL     1      84.589  44.708 -13.290  1.00  0.00     0.275 HD
ENDBRANCH   2   3
BRANCH   2   7
HETATM    7  C7  UNL     1      81.541  43.862 -12.661  1.00  0.00     0.204 C 
HETATM    8  O3  UNL     1      81.011  44.312 -13.704  1.00  0.00    -0.646 OA
HETATM    9  O4  UNL     1      80.779  43.016 -11.876  1.00  0.00    -0.646 OA
ENDBRANCH   2   7
ENDBRANCH   1   2
BRANCH   1  10
HETATM   10  C3  UNL     1      84.328  45.797 -10.921  1.00  0.00     0.003 C 
BRANCH  10  11
HETATM   11  C4  UNL     1      84.070  45.270  -9.532  1.00  0.00     0.005 C 
BRANCH  11  12
HETATM   12  C5  UNL     1      82.666  45.445  -9.067  1.00  0.00     0.060 C 
BRANCH  12  13
HETATM   13  C6  UNL     1      82.041  44.207  -8.497  1.00  0.00     0.253 C 
BRANCH  13  14
HETATM   14  O1  UNL     1      80.861  43.847  -9.090  1.00  0.00    -0.371 OA
ATOM     15  H1  UNL     1      80.371  43.185  -8.617  1.00  0.00     0.212 HD
ENDBRANCH  13  14
BRANCH  13  16
HETATM   16  O2  UNL     1      81.805  44.403  -7.138  1.00  0.00    -0.371 OA
ATOM     17  H2  UNL     1      81.329  45.217  -7.021  1.00  0.00     0.212 HD
ENDBRANCH  13  16
ENDBRANCH  12  13
ENDBRANCH  11  12
ENDBRANCH  10  11
ENDBRANCH   1  10
TORSDOF 9
ENDMDL
