MODEL 1
REMARK VINA RESULT: -8.525685044      0.000      0.000
REMARK  13 active torsions:
REMARK  status: ('A' for Active; 'I' for Inactive)
REMARK    1  A    between atoms: C2_2  and  C4_4 
REMARK    2  A    between atoms: C4_4  and  N1_5 
REMARK    3  A    between atoms: N1_5  and  C5_6 
REMARK    4  A    between atoms: N1_5  and  S1_28 
REMARK    5  A    between atoms: C5_6  and  C6_7 
REMARK    6  A    between atoms: C6_7  and  O1_8 
REMARK    7  A    between atoms: C6_7  and  C7_10 
REMARK    8  A    between atoms: C7_10  and  C8_11 
REMARK    9  A    between atoms: C7_10  and  N2_18 
REMARK   10  A    between atoms: C8_11  and  C9_12 
REMARK       I    between atoms: N2_18  and  C15_20 
REMARK   11  A    between atoms: C15_20  and  O3_22 
REMARK   12  A    between atoms: O3_22  and  C16_23 
REMARK   13  A    between atoms: S1_28  and  C20_31 
ROOT
HETATM    1  C6  UNL     1       6.140  -2.007  16.057  1.00  0.00     0.160 C 
ENDROOT
BRANCH   1   2
HETATM    2  C5  UNL     1       5.397  -3.286  15.967  1.00  0.00     0.174 C 
BRANCH   2   3
HETATM    3  N1  UNL     1       3.992  -3.267  16.117  1.00  0.00    -0.283 N 
BRANCH   3   4
HETATM    4  C4  UNL     1       3.423  -4.198  17.005  1.00  0.00     0.080 C 
BRANCH   4   5
HETATM    5  C2  UNL     1       4.213  -5.457  17.243  1.00  0.00     0.017 C 
HETATM    6  C1  UNL     1       3.873  -6.606  16.359  1.00  0.00     0.015 C 
HETATM    7  C3  UNL     1       4.211  -5.838  18.715  1.00  0.00     0.015 C 
ENDBRANCH   4   5
ENDBRANCH   3   4
BRANCH   3   8
HETATM    8  S1  UNL     1       3.114  -3.063  14.697  1.00  0.00     0.264 S 
HETATM    9  O5  UNL     1       3.133  -4.324  13.869  1.00  0.00    -0.200 OA
HETATM   10  O6  UNL     1       1.629  -2.856  15.048  1.00  0.00    -0.200 OA
BRANCH   8  11
HETATM   11  C20 UNL     1       3.611  -1.723  13.687  1.00  0.00     0.080 A 
HETATM   12  C21 UNL     1       3.490  -0.403  14.056  1.00  0.00     0.027 A 
HETATM   13  C22 UNL     1       3.917   0.622  13.216  1.00  0.00     0.028 A 
HETATM   14  C23 UNL     1       4.478   0.368  11.982  1.00  0.00     0.046 A 
HETATM   15  N3  UNL     1       4.905   1.434  11.140  1.00  0.00    -0.102 NA
HETATM   16  C24 UNL     1       4.600  -0.954  11.609  1.00  0.00     0.028 A 
HETATM   17  C25 UNL     1       4.180  -1.972  12.436  1.00  0.00     0.027 A 
ENDBRANCH   8  11
ENDBRANCH   3   8
ENDBRANCH   2   3
ENDBRANCH   1   2
BRANCH   1  18
HETATM   18  O1  UNL     1       6.232  -1.464  17.324  1.00  0.00    -0.392 OA
ATOM     19  H1  UNL     1       7.099  -1.484  17.713  1.00  0.00     0.210 HD
ENDBRANCH   1  18
BRANCH   1  20
HETATM   20  C7  UNL     1       7.587  -2.156  15.540  1.00  0.00     0.121 C 
BRANCH  20  21
HETATM   21  C8  UNL     1       7.524  -2.218  14.035  1.00  0.00     0.066 C 
BRANCH  21  22
HETATM   22  C9  UNL     1       7.793  -0.880  13.426  1.00  0.00    -0.056 A 
HETATM   23  C10 UNL     1       8.335  -0.774  12.167  1.00  0.00     0.007 A 
HETATM   24  C11 UNL     1       8.587   0.478  11.598  1.00  0.00     0.001 A 
HETATM   25  C12 UNL     1       8.286   1.611  12.312  1.00  0.00     0.000 A 
HETATM   26  C13 UNL     1       7.747   1.533  13.567  1.00  0.00     0.001 A 
HETATM   27  C14 UNL     1       7.507   0.281  14.107  1.00  0.00     0.007 A 
ENDBRANCH  21  22
ENDBRANCH  20  21
BRANCH  20  28
HETATM   28  N2  UNL     1       7.965  -3.514  15.967  1.00  0.00    -0.329 N 
HETATM   29  C15 UNL     1       9.318  -3.866  16.140  1.00  0.00     0.361 C 
HETATM   30  O2  UNL     1      10.182  -2.978  15.911  1.00  0.00    -0.238 OA
ATOM     31  H2  UNL     1       7.238  -4.208  16.140  1.00  0.00     0.165 HD
BRANCH  29  32
HETATM   32  O3  UNL     1       9.742  -5.134  16.547  1.00  0.00    -0.296 OA
BRANCH  32  33
HETATM   33  C16 UNL     1       9.993  -5.400  17.923  1.00  0.00     0.159 C 
HETATM   34  C17 UNL     1       8.868  -6.209  18.540  1.00  0.00     0.061 C 
HETATM   35  C18 UNL     1       9.471  -7.570  18.754  1.00  0.00     0.170 C 
HETATM   36  O4  UNL     1      10.803  -7.246  19.058  1.00  0.00    -0.389 OA
HETATM   37  C19 UNL     1      11.152  -6.362  18.020  1.00  0.00     0.200 C 
ENDBRANCH  32  33
ENDBRANCH  29  32
ENDBRANCH  20  28
ENDBRANCH   1  20
TORSDOF 13
ENDMDL
