MODEL 9
REMARK VINA RESULT: -8.125726915      2.970      7.723
REMARK  13 active torsions:
REMARK  status: ('A' for Active; 'I' for Inactive)
REMARK    1  A    between atoms: C2_2  and  C4_4 
REMARK    2  A    between atoms: C4_4  and  N1_5 
REMARK    3  A    between atoms: N1_5  and  C5_6 
REMARK    4  A    between atoms: N1_5  and  S1_28 
REMARK    5  A    between atoms: C5_6  and  C6_7 
REMARK    6  A    between atoms: C6_7  and  O1_8 
REMARK    7  A    between atoms: C6_7  and  C7_10 
REMARK    8  A    between atoms: C7_10  and  C8_11 
REMARK    9  A    between atoms: C7_10  and  N2_18 
REMARK   10  A    between atoms: C8_11  and  C9_12 
REMARK       I    between atoms: N2_18  and  C15_20 
REMARK   11  A    between atoms: C15_20  and  O3_22 
REMARK   12  A    between atoms: O3_22  and  C16_23 
REMARK   13  A    between atoms: S1_28  and  C20_31 
ROOT
HETATM    1  C6  UNL     1       4.751  -0.297  14.662  1.00  0.00     0.160 C 
ENDROOT
BRANCH   1   2
HETATM    2  C5  UNL     1       5.630  -1.255  15.371  1.00  0.00     0.174 C 
BRANCH   2   3
HETATM    3  N1  UNL     1       5.126  -2.538  15.682  1.00  0.00    -0.283 N 
BRANCH   3   4
HETATM    4  C4  UNL     1       4.606  -2.734  16.974  1.00  0.00     0.080 C 
BRANCH   4   5
HETATM    5  C2  UNL     1       3.202  -3.272  17.050  1.00  0.00     0.017 C 
HETATM    6  C1  UNL     1       3.076  -4.671  17.545  1.00  0.00     0.015 C 
HETATM    7  C3  UNL     1       2.456  -3.051  15.744  1.00  0.00     0.015 C 
ENDBRANCH   4   5
ENDBRANCH   3   4
BRANCH   3   8
HETATM    8  S1  UNL     1       6.039  -3.833  15.116  1.00  0.00     0.264 S 
HETATM    9  O5  UNL     1       5.145  -4.967  14.678  1.00  0.00    -0.200 OA
HETATM   10  O6  UNL     1       6.777  -3.407  13.834  1.00  0.00    -0.200 OA
BRANCH   8  11
HETATM   11  C20 UNL     1       7.232  -4.459  16.231  1.00  0.00     0.080 A 
HETATM   12  C21 UNL     1       6.932  -5.303  17.275  1.00  0.00     0.027 A 
HETATM   13  C22 UNL     1       7.927  -5.783  18.124  1.00  0.00     0.028 A 
HETATM   14  C23 UNL     1       9.253  -5.438  17.960  1.00  0.00     0.046 A 
HETATM   15  N3  UNL     1      10.252  -5.941  18.841  1.00  0.00    -0.102 NA
HETATM   16  C24 UNL     1       9.557  -4.592  16.914  1.00  0.00     0.028 A 
HETATM   17  C25 UNL     1       8.577  -4.115  16.072  1.00  0.00     0.027 A 
ENDBRANCH   8  11
ENDBRANCH   3   8
ENDBRANCH   2   3
ENDBRANCH   1   2
BRANCH   1  18
HETATM   18  O1  UNL     1       4.389   0.823  15.386  1.00  0.00    -0.392 OA
ATOM     19  H1  UNL     1       4.756   1.643  15.078  1.00  0.00     0.210 HD
ENDBRANCH   1  18
BRANCH   1  20
HETATM   20  C7  UNL     1       5.407   0.218  13.363  1.00  0.00     0.121 C 
BRANCH  20  21
HETATM   21  C8  UNL     1       6.726   0.841  13.740  1.00  0.00     0.066 C 
BRANCH  21  22
HETATM   22  C9  UNL     1       7.814   0.413  12.809  1.00  0.00    -0.056 A 
HETATM   23  C10 UNL     1       8.733  -0.537  13.186  1.00  0.00     0.007 A 
HETATM   24  C11 UNL     1       9.751  -0.936  12.313  1.00  0.00     0.001 A 
HETATM   25  C12 UNL     1       9.826  -0.367  11.067  1.00  0.00     0.000 A 
HETATM   26  C13 UNL     1       8.924   0.581  10.667  1.00  0.00     0.001 A 
HETATM   27  C14 UNL     1       7.926   0.958  11.550  1.00  0.00     0.007 A 
ENDBRANCH  21  22
ENDBRANCH  20  21
BRANCH  20  28
HETATM   28  N2  UNL     1       4.546   1.346  12.967  1.00  0.00    -0.329 N 
HETATM   29  C15 UNL     1       4.184   1.540  11.621  1.00  0.00     0.361 C 
HETATM   30  O2  UNL     1       4.627   0.716  10.776  1.00  0.00    -0.238 OA
ATOM     31  H2  UNL     1       4.209   1.995  13.678  1.00  0.00     0.165 HD
BRANCH  29  32
HETATM   32  O3  UNL     1       3.368   2.586  11.181  1.00  0.00    -0.296 OA
BRANCH  32  33
HETATM   33  C16 UNL     1       2.151   2.308  10.496  1.00  0.00     0.159 C 
HETATM   34  C17 UNL     1       1.315   1.294  11.251  1.00  0.00     0.061 C 
HETATM   35  C18 UNL     1       0.163   2.097  11.790  1.00  0.00     0.170 C 
HETATM   36  O4  UNL     1      -0.026   3.043  10.771  1.00  0.00    -0.389 OA
HETATM   37  C19 UNL     1       1.275   3.537  10.560  1.00  0.00     0.200 C 
ENDBRANCH  32  33
ENDBRANCH  29  32
ENDBRANCH  20  28
ENDBRANCH   1  20
TORSDOF 13
ENDMDL
