MODEL 3
REMARK VINA RESULT: -8.340281413      3.134      8.898
REMARK  13 active torsions:
REMARK  status: ('A' for Active; 'I' for Inactive)
REMARK    1  A    between atoms: C2_2  and  C4_4 
REMARK    2  A    between atoms: C4_4  and  N1_5 
REMARK    3  A    between atoms: N1_5  and  C5_6 
REMARK    4  A    between atoms: N1_5  and  S1_28 
REMARK    5  A    between atoms: C5_6  and  C6_7 
REMARK    6  A    between atoms: C6_7  and  O1_8 
REMARK    7  A    between atoms: C6_7  and  C7_10 
REMARK    8  A    between atoms: C7_10  and  C8_11 
REMARK    9  A    between atoms: C7_10  and  N2_18 
REMARK   10  A    between atoms: C8_11  and  C9_12 
REMARK       I    between atoms: N2_18  and  C15_20 
REMARK   11  A    between atoms: C15_20  and  O3_22 
REMARK   12  A    between atoms: O3_22  and  C16_23 
REMARK   13  A    between atoms: S1_28  and  C20_31 
ROOT
HETATM    1  C6  UNL     1       5.545  -0.557  14.882  1.00  0.00     0.160 C 
ENDROOT
BRANCH   1   2
HETATM    2  C5  UNL     1       6.091   0.522  14.027  1.00  0.00     0.174 C 
BRANCH   2   3
HETATM    3  N1  UNL     1       7.441   0.445  13.616  1.00  0.00    -0.283 N 
BRANCH   3   4
HETATM    4  C4  UNL     1       7.983   1.566  12.961  1.00  0.00     0.080 C 
BRANCH   4   5
HETATM    5  C2  UNL     1       7.103   2.222  11.930  1.00  0.00     0.017 C 
HETATM    6  C1  UNL     1       7.128   1.603  10.576  1.00  0.00     0.015 C 
HETATM    7  C3  UNL     1       7.334   3.724  11.885  1.00  0.00     0.015 C 
ENDBRANCH   4   5
ENDBRANCH   3   4
BRANCH   3   8
HETATM    8  S1  UNL     1       7.914  -1.024  12.948  1.00  0.00     0.264 S 
HETATM    9  O5  UNL     1       6.795  -1.628  12.135  1.00  0.00    -0.200 OA
HETATM   10  O6  UNL     1       9.040  -0.774  11.927  1.00  0.00    -0.200 OA
BRANCH   8  11
HETATM   11  C20 UNL     1       8.488  -2.221  14.086  1.00  0.00     0.080 A 
HETATM   12  C21 UNL     1       7.812  -3.383  14.378  1.00  0.00     0.027 A 
HETATM   13  C22 UNL     1       8.325  -4.309  15.283  1.00  0.00     0.028 A 
HETATM   14  C23 UNL     1       9.528  -4.108  15.928  1.00  0.00     0.046 A 
HETATM   15  N3  UNL     1      10.032  -5.069  16.850  1.00  0.00    -0.102 NA
HETATM   16  C24 UNL     1      10.209  -2.945  15.637  1.00  0.00     0.028 A 
HETATM   17  C25 UNL     1       9.706  -2.026  14.742  1.00  0.00     0.027 A 
ENDBRANCH   8  11
ENDBRANCH   3   8
ENDBRANCH   2   3
ENDBRANCH   1   2
BRANCH   1  18
HETATM   18  O1  UNL     1       5.405  -0.239  16.220  1.00  0.00    -0.392 OA
ATOM     19  H1  UNL     1       4.516  -0.073  16.508  1.00  0.00     0.210 HD
ENDBRANCH   1  18
BRANCH   1  20
HETATM   20  C7  UNL     1       4.153  -1.014  14.396  1.00  0.00     0.121 C 
BRANCH  20  21
HETATM   21  C8  UNL     1       4.274  -2.456  13.972  1.00  0.00     0.066 C 
BRANCH  21  22
HETATM   22  C9  UNL     1       3.900  -3.381  15.085  1.00  0.00    -0.056 A 
HETATM   23  C10 UNL     1       2.978  -3.008  16.034  1.00  0.00     0.007 A 
HETATM   24  C11 UNL     1       2.629  -3.875  17.074  1.00  0.00     0.001 A 
HETATM   25  C12 UNL     1       3.219  -5.112  17.141  1.00  0.00     0.000 A 
HETATM   26  C13 UNL     1       4.139  -5.508  16.210  1.00  0.00     0.001 A 
HETATM   27  C14 UNL     1       4.467  -4.631  15.190  1.00  0.00     0.007 A 
ENDBRANCH  21  22
ENDBRANCH  20  21
BRANCH  20  28
HETATM   28  N2  UNL     1       3.962  -0.260  13.145  1.00  0.00    -0.329 N 
HETATM   29  C15 UNL     1       2.677   0.146  12.736  1.00  0.00     0.361 C 
HETATM   30  O2  UNL     1       1.707  -0.166  13.477  1.00  0.00    -0.238 OA
ATOM     31  H2  UNL     1       4.771  -0.028  12.568  1.00  0.00     0.165 HD
BRANCH  29  32
HETATM   32  O3  UNL     1       2.430   0.867  11.565  1.00  0.00    -0.296 OA
BRANCH  32  33
HETATM   33  C16 UNL     1       2.362   2.289  11.598  1.00  0.00     0.159 C 
HETATM   34  C17 UNL     1       2.901   2.894  10.316  1.00  0.00     0.061 C 
HETATM   35  C18 UNL     1       1.678   3.421   9.617  1.00  0.00     0.170 C 
HETATM   36  O4  UNL     1       0.884   3.826  10.701  1.00  0.00    -0.389 OA
HETATM   37  C19 UNL     1       0.910   2.701  11.544  1.00  0.00     0.200 C 
ENDBRANCH  32  33
ENDBRANCH  29  32
ENDBRANCH  20  28
ENDBRANCH   1  20
TORSDOF 13
ENDMDL
