MODEL 2
REMARK VINA RESULT: -8.357786315      1.157      4.399
REMARK  13 active torsions:
REMARK  status: ('A' for Active; 'I' for Inactive)
REMARK    1  A    between atoms: C2_2  and  C4_4 
REMARK    2  A    between atoms: C4_4  and  N1_5 
REMARK    3  A    between atoms: N1_5  and  C5_6 
REMARK    4  A    between atoms: N1_5  and  S1_28 
REMARK    5  A    between atoms: C5_6  and  C6_7 
REMARK    6  A    between atoms: C6_7  and  O1_8 
REMARK    7  A    between atoms: C6_7  and  C7_10 
REMARK    8  A    between atoms: C7_10  and  C8_11 
REMARK    9  A    between atoms: C7_10  and  N2_18 
REMARK   10  A    between atoms: C8_11  and  C9_12 
REMARK       I    between atoms: N2_18  and  C15_20 
REMARK   11  A    between atoms: C15_20  and  O3_22 
REMARK   12  A    between atoms: O3_22  and  C16_23 
REMARK   13  A    between atoms: S1_28  and  C20_31 
ROOT
HETATM    1  C6  UNL     1       6.428  -1.946  15.851  1.00  0.00     0.160 C 
ENDROOT
BRANCH   1   2
HETATM    2  C5  UNL     1       5.601  -3.103  15.433  1.00  0.00     0.174 C 
BRANCH   2   3
HETATM    3  N1  UNL     1       4.385  -2.859  14.756  1.00  0.00    -0.283 N 
BRANCH   3   4
HETATM    4  C4  UNL     1       4.006  -1.518  14.569  1.00  0.00     0.080 C 
BRANCH   4   5
HETATM    5  C2  UNL     1       3.763  -1.089  13.145  1.00  0.00     0.017 C 
HETATM    6  C1  UNL     1       4.349  -1.971  12.100  1.00  0.00     0.015 C 
HETATM    7  C3  UNL     1       4.129   0.373  12.941  1.00  0.00     0.015 C 
ENDBRANCH   4   5
ENDBRANCH   3   4
BRANCH   3   8
HETATM    8  S1  UNL     1       3.108  -3.872  15.171  1.00  0.00     0.264 S 
HETATM    9  O5  UNL     1       1.894  -3.068  15.568  1.00  0.00    -0.200 OA
HETATM   10  O6  UNL     1       2.660  -4.655  13.923  1.00  0.00    -0.200 OA
BRANCH   8  11
HETATM   11  C20 UNL     1       3.446  -5.035  16.433  1.00  0.00     0.080 A 
HETATM   12  C21 UNL     1       3.932  -6.300  16.196  1.00  0.00     0.027 A 
HETATM   13  C22 UNL     1       4.196  -7.180  17.242  1.00  0.00     0.028 A 
HETATM   14  C23 UNL     1       3.985  -6.829  18.560  1.00  0.00     0.046 A 
HETATM   15  N3  UNL     1       4.262  -7.746  19.613  1.00  0.00    -0.102 NA
HETATM   16  C24 UNL     1       3.498  -5.562  18.802  1.00  0.00     0.028 A 
HETATM   17  C25 UNL     1       3.235  -4.687  17.770  1.00  0.00     0.027 A 
ENDBRANCH   8  11
ENDBRANCH   3   8
ENDBRANCH   2   3
ENDBRANCH   1   2
BRANCH   1  18
HETATM   18  O1  UNL     1       6.529  -1.753  17.216  1.00  0.00    -0.392 OA
ATOM     19  H1  UNL     1       7.380  -1.943  17.592  1.00  0.00     0.210 HD
ENDBRANCH   1  18
BRANCH   1  20
HETATM   20  C7  UNL     1       7.872  -2.061  15.319  1.00  0.00     0.121 C 
BRANCH  20  21
HETATM   21  C8  UNL     1       7.794  -2.134  13.816  1.00  0.00     0.066 C 
BRANCH  21  22
HETATM   22  C9  UNL     1       7.796  -0.769  13.206  1.00  0.00    -0.056 A 
HETATM   23  C10 UNL     1       7.824  -0.606  11.841  1.00  0.00     0.007 A 
HETATM   24  C11 UNL     1       7.827   0.672  11.273  1.00  0.00     0.001 A 
HETATM   25  C12 UNL     1       7.800   1.771  12.094  1.00  0.00     0.000 A 
HETATM   26  C13 UNL     1       7.771   1.635  13.455  1.00  0.00     0.001 A 
HETATM   27  C14 UNL     1       7.769   0.360  13.993  1.00  0.00     0.007 A 
ENDBRANCH  21  22
ENDBRANCH  20  21
BRANCH  20  28
HETATM   28  N2  UNL     1       8.290  -3.407  15.750  1.00  0.00    -0.329 N 
HETATM   29  C15 UNL     1       9.643  -3.693  16.011  1.00  0.00     0.361 C 
HETATM   30  O2  UNL     1      10.474  -2.758  15.859  1.00  0.00    -0.238 OA
ATOM     31  H2  UNL     1       7.589  -4.140  15.859  1.00  0.00     0.165 HD
BRANCH  29  32
HETATM   32  O3  UNL     1      10.103  -4.946  16.426  1.00  0.00    -0.296 OA
BRANCH  32  33
HETATM   33  C16 UNL     1      10.197  -5.253  17.814  1.00  0.00     0.159 C 
HETATM   34  C17 UNL     1       8.938  -5.936  18.311  1.00  0.00     0.061 C 
HETATM   35  C18 UNL     1       9.363  -7.359  18.550  1.00  0.00     0.170 C 
HETATM   36  O4  UNL     1      10.690  -7.191  18.977  1.00  0.00    -0.389 OA
HETATM   37  C19 UNL     1      11.228  -6.342  17.994  1.00  0.00     0.200 C 
ENDBRANCH  32  33
ENDBRANCH  29  32
ENDBRANCH  20  28
ENDBRANCH   1  20
TORSDOF 13
ENDMDL
