MODEL 1
REMARK VINA RESULT: -8.723726604      0.000      0.000
REMARK  10 active torsions:
REMARK  status: ('A' for Active; 'I' for Inactive)
REMARK    1  A    between atoms: C2_2  and  N1_3 
REMARK       I    between atoms: N1_3  and  C3_5 
REMARK    2  A    between atoms: C3_5  and  C4_7 
REMARK    3  A    between atoms: C4_7  and  O2_8 
REMARK    4  A    between atoms: O2_8  and  C5_9 
REMARK    5  A    between atoms: C10_15  and  C11_16 
REMARK    6  A    between atoms: C11_16  and  N2_17 
REMARK       I    between atoms: N2_17  and  C12_19 
REMARK    7  A    between atoms: C12_19  and  C13_21 
REMARK       I    between atoms: N3_25  and  C17_26 
REMARK    8  A    between atoms: C17_26  and  C18_28 
REMARK    9  A    between atoms: C18_28  and  N4_29 
REMARK   10  A    between atoms: C18_28  and  C19_33 
ROOT
HETATM    1  N2  UNL     1      14.277 -11.589  20.800  1.00  0.00    -0.355 N 
ATOM      2  H2  UNL     1      14.849 -11.711  21.637  1.00  0.00     0.162 HD
HETATM    3  C12 UNL     1      14.745 -12.031  19.511  1.00  0.00     0.240 C 
HETATM    4  O3  UNL     1      13.997 -11.852  18.511  1.00  0.00    -0.271 OA
ENDROOT
BRANCH   3   5
HETATM    5  C13 UNL     1      16.028 -12.672  19.281  1.00  0.00     0.179 C 
HETATM    6  C14 UNL     1      15.984 -13.372  17.944  1.00  0.00     0.037 C 
HETATM    7  C15 UNL     1      15.024 -14.494  18.258  1.00  0.00     0.022 C 
HETATM    8  C16 UNL     1      15.497 -14.889  19.653  1.00  0.00     0.127 C 
HETATM    9  N3  UNL     1      16.304 -13.817  20.164  1.00  0.00    -0.337 N 
HETATM   10  C17 UNL     1      17.195 -13.734  21.237  1.00  0.00     0.251 C 
HETATM   11  O4  UNL     1      17.801 -12.617  21.417  1.00  0.00    -0.271 OA
BRANCH  10  12
HETATM   12  C18 UNL     1      17.525 -14.792  22.189  1.00  0.00     0.278 C 
BRANCH  12  13
HETATM   13  N4  UNL     1      16.297 -15.393  22.631  1.00  0.00    -0.066 N 
ATOM     14  H43 UNL     1      15.490 -14.782  22.503  1.00  0.00     0.275 HD
ATOM     15  H42 UNL     1      15.991 -16.154  22.025  1.00  0.00     0.275 HD
ATOM     16  H41 UNL     1      16.418 -15.686  23.600  1.00  0.00     0.275 HD
ENDBRANCH  12  13
BRANCH  12  17
HETATM   17  C19 UNL     1      18.405 -14.379  23.302  1.00  0.00     0.025 C 
HETATM   18  C20 UNL     1      19.883 -14.514  22.955  1.00  0.00     0.007 C 
HETATM   19  C21 UNL     1      20.602 -15.505  23.848  1.00  0.00     0.000 C 
HETATM   20  C22 UNL     1      19.866 -16.831  23.740  1.00  0.00     0.000 C 
HETATM   21  C23 UNL     1      18.500 -16.653  24.336  1.00  0.00     0.000 C 
HETATM   22  C24 UNL     1      18.184 -15.187  24.554  1.00  0.00     0.007 C 
ENDBRANCH  12  17
ENDBRANCH  10  12
ENDBRANCH   3   5
BRANCH   1  23
HETATM   23  C11 UNL     1      12.987 -10.974  20.871  1.00  0.00     0.164 C 
BRANCH  23  24
HETATM   24  C10 UNL     1      12.307 -11.031  22.162  1.00  0.00    -0.005 A 
HETATM   25  C5  UNL     1      11.730 -12.216  22.622  1.00  0.00     0.077 A 
HETATM   26  C6  UNL     1      11.095 -12.275  23.829  1.00  0.00     0.039 A 
HETATM   27  C7  UNL     1      10.998 -11.166  24.639  1.00  0.00     0.026 A 
HETATM   28  C8  UNL     1      11.552  -9.999  24.212  1.00  0.00     0.034 A 
HETATM   29 CL1  UNL     1      11.425  -8.594  25.248  1.00  0.00    -0.084 Cl
HETATM   30  C9  UNL     1      12.203  -9.937  22.978  1.00  0.00     0.035 A 
BRANCH  25  31
HETATM   31  O2  UNL     1      11.816 -13.352  21.817  1.00  0.00    -0.342 OA
BRANCH  31  32
HETATM   32  C4  UNL     1      12.751 -14.365  22.132  1.00  0.00     0.278 C 
BRANCH  32  33
HETATM   33  C3  UNL     1      12.415 -15.623  21.449  1.00  0.00     0.241 C 
HETATM   34  N1  UNL     1      11.956 -15.586  20.116  1.00  0.00    -0.360 N 
ATOM     35  H1  UNL     1      11.860 -14.688  19.641  1.00  0.00     0.162 HD
HETATM   36  O1  UNL     1      12.544 -16.719  22.066  1.00  0.00    -0.271 OA
BRANCH  34  37
HETATM   37  C2  UNL     1      11.614 -16.819  19.408  1.00  0.00     0.118 C 
HETATM   38  C1  UNL     1      12.596 -17.096  18.294  1.00  0.00     0.026 C 
ENDBRANCH  34  37
ENDBRANCH  32  33
ENDBRANCH  31  32
ENDBRANCH  25  31
ENDBRANCH  23  24
ENDBRANCH   1  23
TORSDOF 10
ENDMDL
