MODEL 6
REMARK VINA RESULT: -8.454939245      2.986      5.335
REMARK  10 active torsions:
REMARK  status: ('A' for Active; 'I' for Inactive)
REMARK    1  A    between atoms: C2_2  and  N1_3 
REMARK       I    between atoms: N1_3  and  C3_5 
REMARK    2  A    between atoms: C3_5  and  C4_7 
REMARK    3  A    between atoms: C4_7  and  O2_8 
REMARK    4  A    between atoms: O2_8  and  C5_9 
REMARK    5  A    between atoms: C10_15  and  C11_16 
REMARK    6  A    between atoms: C11_16  and  N2_17 
REMARK       I    between atoms: N2_17  and  C12_19 
REMARK    7  A    between atoms: C12_19  and  C13_21 
REMARK       I    between atoms: N3_25  and  C17_26 
REMARK    8  A    between atoms: C17_26  and  C18_28 
REMARK    9  A    between atoms: C18_28  and  N4_29 
REMARK   10  A    between atoms: C18_28  and  C19_33 
ROOT
HETATM    1  N2  UNL     1      15.431 -13.780  19.582  1.00  0.00    -0.355 N 
ATOM      2  H2  UNL     1      15.103 -12.844  19.820  1.00  0.00     0.162 HD
HETATM    3  C12 UNL     1      16.386 -14.466  20.416  1.00  0.00     0.240 C 
HETATM    4  O3  UNL     1      16.757 -15.622  20.072  1.00  0.00    -0.271 OA
ENDROOT
BRANCH   3   5
HETATM    5  C13 UNL     1      16.955 -13.915  21.633  1.00  0.00     0.179 C 
HETATM    6  C14 UNL     1      17.370 -12.488  21.369  1.00  0.00     0.037 C 
HETATM    7  C15 UNL     1      18.541 -12.714  20.443  1.00  0.00     0.022 C 
HETATM    8  C16 UNL     1      19.206 -13.910  21.116  1.00  0.00     0.127 C 
HETATM    9  N3  UNL     1      18.252 -14.496  22.016  1.00  0.00    -0.337 N 
HETATM   10  C17 UNL     1      18.380 -15.412  23.064  1.00  0.00     0.251 C 
HETATM   11  O4  UNL     1      17.317 -15.717  23.715  1.00  0.00    -0.271 OA
BRANCH  10  12
HETATM   12  C18 UNL     1      19.606 -16.068  23.512  1.00  0.00     0.278 C 
BRANCH  12  13
HETATM   13  N4  UNL     1      19.541 -17.449  23.123  1.00  0.00    -0.066 N 
ATOM     14  H43 UNL     1      18.616 -17.856  23.264  1.00  0.00     0.275 HD
ATOM     15  H42 UNL     1      19.594 -17.576  22.112  1.00  0.00     0.275 HD
ATOM     16  H41 UNL     1      20.273 -17.954  23.622  1.00  0.00     0.275 HD
ENDBRANCH  12  13
BRANCH  12  17
HETATM   17  C19 UNL     1      19.927 -15.881  24.942  1.00  0.00     0.025 C 
HETATM   18  C20 UNL     1      19.944 -14.411  25.347  1.00  0.00     0.007 C 
HETATM   19  C21 UNL     1      21.306 -13.957  25.832  1.00  0.00     0.000 C 
HETATM   20  C22 UNL     1      22.306 -14.257  24.727  1.00  0.00     0.000 C 
HETATM   21  C23 UNL     1      22.397 -15.748  24.577  1.00  0.00     0.000 C 
HETATM   22  C24 UNL     1      21.273 -16.443  25.318  1.00  0.00     0.007 C 
ENDBRANCH  12  17
ENDBRANCH  10  12
ENDBRANCH   3   5
BRANCH   1  23
HETATM   23  C11 UNL     1      14.957 -14.454  18.411  1.00  0.00     0.164 C 
BRANCH  23  24
HETATM   24  C10 UNL     1      13.919 -15.461  18.613  1.00  0.00    -0.005 A 
HETATM   25  C5  UNL     1      12.796 -15.192  19.397  1.00  0.00     0.077 A 
HETATM   26  C6  UNL     1      11.822 -16.129  19.589  1.00  0.00     0.039 A 
HETATM   27  C7  UNL     1      11.911 -17.377  19.014  1.00  0.00     0.026 A 
HETATM   28  C8  UNL     1      12.997 -17.663  18.247  1.00  0.00     0.034 A 
HETATM   29 CL1  UNL     1      13.103 -19.253  17.521  1.00  0.00    -0.084 Cl
HETATM   30  C9  UNL     1      13.995 -16.705  18.050  1.00  0.00     0.035 A 
BRANCH  25  31
HETATM   31  O2  UNL     1      12.685 -13.933  19.989  1.00  0.00    -0.342 OA
BRANCH  31  32
HETATM   32  C4  UNL     1      12.099 -13.811  21.271  1.00  0.00     0.278 C 
BRANCH  32  33
HETATM   33  C3  UNL     1      12.616 -12.628  21.975  1.00  0.00     0.241 C 
HETATM   34  N1  UNL     1      11.714 -11.648  22.436  1.00  0.00    -0.360 N 
ATOM     35  H1  UNL     1      10.713 -11.767  22.276  1.00  0.00     0.162 HD
HETATM   36  O1  UNL     1      13.861 -12.509  22.158  1.00  0.00    -0.271 OA
BRANCH  34  37
HETATM   37  C2  UNL     1      12.196 -10.460  23.142  1.00  0.00     0.118 C 
HETATM   38  C1  UNL     1      11.356 -10.175  24.364  1.00  0.00     0.026 C 
ENDBRANCH  34  37
ENDBRANCH  32  33
ENDBRANCH  31  32
ENDBRANCH  25  31
ENDBRANCH  23  24
ENDBRANCH   1  23
TORSDOF 10
ENDMDL
