MODEL 5
REMARK VINA RESULT: -8.541326067      3.146      6.163
REMARK  10 active torsions:
REMARK  status: ('A' for Active; 'I' for Inactive)
REMARK    1  A    between atoms: C2_2  and  N1_3 
REMARK       I    between atoms: N1_3  and  C3_5 
REMARK    2  A    between atoms: C3_5  and  C4_7 
REMARK    3  A    between atoms: C4_7  and  O2_8 
REMARK    4  A    between atoms: O2_8  and  C5_9 
REMARK    5  A    between atoms: C10_15  and  C11_16 
REMARK    6  A    between atoms: C11_16  and  N2_17 
REMARK       I    between atoms: N2_17  and  C12_19 
REMARK    7  A    between atoms: C12_19  and  C13_21 
REMARK       I    between atoms: N3_25  and  C17_26 
REMARK    8  A    between atoms: C17_26  and  C18_28 
REMARK    9  A    between atoms: C18_28  and  N4_29 
REMARK   10  A    between atoms: C18_28  and  C19_33 
ROOT
HETATM    1  N2  UNL     1      15.968 -16.482  22.261  1.00  0.00    -0.355 N 
ATOM      2  H2  UNL     1      16.477 -15.652  22.566  1.00  0.00     0.162 HD
HETATM    3  C12 UNL     1      16.540 -17.797  22.405  1.00  0.00     0.240 C 
HETATM    4  O3  UNL     1      15.867 -18.788  22.008  1.00  0.00    -0.271 OA
ENDROOT
BRANCH   3   5
HETATM    5  C13 UNL     1      17.847 -18.064  22.980  1.00  0.00     0.179 C 
HETATM    6  C14 UNL     1      17.676 -18.998  24.154  1.00  0.00     0.037 C 
HETATM    7  C15 UNL     1      16.985 -18.079  25.132  1.00  0.00     0.022 C 
HETATM    8  C16 UNL     1      17.762 -16.786  24.903  1.00  0.00     0.127 C 
HETATM    9  N3  UNL     1      18.463 -16.909  23.655  1.00  0.00    -0.337 N 
HETATM   10  C17 UNL     1      19.508 -16.181  23.083  1.00  0.00     0.251 C 
HETATM   11  O4  UNL     1      19.945 -16.572  21.941  1.00  0.00    -0.271 OA
BRANCH  10  12
HETATM   12  C18 UNL     1      20.174 -15.009  23.646  1.00  0.00     0.278 C 
BRANCH  12  13
HETATM   13  N4  UNL     1      20.430 -14.083  22.578  1.00  0.00    -0.066 N 
ATOM     14  H43 UNL     1      21.311 -14.269  22.098  1.00  0.00     0.275 HD
ATOM     15  H42 UNL     1      19.809 -14.220  21.781  1.00  0.00     0.275 HD
ATOM     16  H41 UNL     1      20.381 -13.138  22.958  1.00  0.00     0.275 HD
ENDBRANCH  12  13
BRANCH  12  17
HETATM   17  C19 UNL     1      21.371 -15.302  24.462  1.00  0.00     0.025 C 
HETATM   18  C20 UNL     1      21.170 -16.505  25.378  1.00  0.00     0.007 C 
HETATM   19  C21 UNL     1      21.276 -16.142  26.845  1.00  0.00     0.000 C 
HETATM   20  C22 UNL     1      20.262 -15.043  27.116  1.00  0.00     0.000 C 
HETATM   21  C23 UNL     1      20.691 -13.820  26.357  1.00  0.00     0.000 C 
HETATM   22  C24 UNL     1      21.772 -14.153  25.349  1.00  0.00     0.007 C 
ENDBRANCH  12  17
ENDBRANCH  10  12
ENDBRANCH   3   5
BRANCH   1  23
HETATM   23  C11 UNL     1      14.666 -16.377  21.676  1.00  0.00     0.164 C 
BRANCH  23  24
HETATM   24  C10 UNL     1      14.596 -15.789  20.342  1.00  0.00    -0.005 A 
HETATM   25  C5  UNL     1      14.554 -14.405  20.164  1.00  0.00     0.077 A 
HETATM   26  C6  UNL     1      14.490 -13.850  18.920  1.00  0.00     0.039 A 
HETATM   27  C7  UNL     1      14.464 -14.635  17.789  1.00  0.00     0.026 A 
HETATM   28  C8  UNL     1      14.504 -15.986  17.936  1.00  0.00     0.034 A 
HETATM   29 CL1  UNL     1      14.470 -16.978  16.493  1.00  0.00    -0.084 Cl
HETATM   30  C9  UNL     1      14.570 -16.557  19.209  1.00  0.00     0.035 A 
BRANCH  25  31
HETATM   31  O2  UNL     1      14.578 -13.590  21.297  1.00  0.00    -0.342 OA
BRANCH  31  32
HETATM   32  C4  UNL     1      14.070 -12.272  21.222  1.00  0.00     0.278 C 
BRANCH  32  33
HETATM   33  C3  UNL     1      13.071 -12.033  22.274  1.00  0.00     0.241 C 
HETATM   34  N1  UNL     1      12.704 -10.709  22.593  1.00  0.00    -0.360 N 
ATOM     35  H1  UNL     1      13.136  -9.931  22.092  1.00  0.00     0.162 HD
HETATM   36  O1  UNL     1      12.555 -13.017  22.876  1.00  0.00    -0.271 OA
BRANCH  34  37
HETATM   37  C2  UNL     1      11.712 -10.437  23.633  1.00  0.00     0.118 C 
HETATM   38  C1  UNL     1      12.075  -9.202  24.423  1.00  0.00     0.026 C 
ENDBRANCH  34  37
ENDBRANCH  32  33
ENDBRANCH  31  32
ENDBRANCH  25  31
ENDBRANCH  23  24
ENDBRANCH   1  23
TORSDOF 10
ENDMDL
