MODEL 3
REMARK VINA RESULT: -8.657205707      2.941      5.110
REMARK  10 active torsions:
REMARK  status: ('A' for Active; 'I' for Inactive)
REMARK    1  A    between atoms: C2_2  and  N1_3 
REMARK       I    between atoms: N1_3  and  C3_5 
REMARK    2  A    between atoms: C3_5  and  C4_7 
REMARK    3  A    between atoms: C4_7  and  O2_8 
REMARK    4  A    between atoms: O2_8  and  C5_9 
REMARK    5  A    between atoms: C10_15  and  C11_16 
REMARK    6  A    between atoms: C11_16  and  N2_17 
REMARK       I    between atoms: N2_17  and  C12_19 
REMARK    7  A    between atoms: C12_19  and  C13_21 
REMARK       I    between atoms: N3_25  and  C17_26 
REMARK    8  A    between atoms: C17_26  and  C18_28 
REMARK    9  A    between atoms: C18_28  and  N4_29 
REMARK   10  A    between atoms: C18_28  and  C19_33 
ROOT
HETATM    1  N2  UNL     1      15.685 -14.288  19.701  1.00  0.00    -0.355 N 
ATOM      2  H2  UNL     1      15.673 -15.049  20.381  1.00  0.00     0.162 HD
HETATM    3  C12 UNL     1      16.541 -13.143  19.881  1.00  0.00     0.240 C 
HETATM    4  O3  UNL     1      16.510 -12.231  19.009  1.00  0.00    -0.271 OA
ENDROOT
BRANCH   3   5
HETATM    5  C13 UNL     1      17.442 -12.963  21.006  1.00  0.00     0.179 C 
HETATM    6  C14 UNL     1      18.725 -12.347  20.502  1.00  0.00     0.037 C 
HETATM    7  C15 UNL     1      19.289 -13.503  19.714  1.00  0.00     0.022 C 
HETATM    8  C16 UNL     1      18.960 -14.667  20.643  1.00  0.00     0.127 C 
HETATM    9  N3  UNL     1      17.963 -14.217  21.575  1.00  0.00    -0.337 N 
HETATM   10  C17 UNL     1      17.495 -14.739  22.783  1.00  0.00     0.251 C 
HETATM   11  O4  UNL     1      16.600 -14.066  23.410  1.00  0.00    -0.271 OA
BRANCH  10  12
HETATM   12  C18 UNL     1      17.919 -15.981  23.426  1.00  0.00     0.278 C 
BRANCH  12  13
HETATM   13  N4  UNL     1      16.826 -16.911  23.364  1.00  0.00    -0.066 N 
ATOM     14  H43 UNL     1      15.932 -16.487  23.612  1.00  0.00     0.275 HD
ATOM     15  H42 UNL     1      16.591 -17.179  22.409  1.00  0.00     0.275 HD
ATOM     16  H41 UNL     1      17.057 -17.712  23.952  1.00  0.00     0.275 HD
ENDBRANCH  12  13
BRANCH  12  17
HETATM   17  C19 UNL     1      18.472 -15.822  24.788  1.00  0.00     0.025 C 
HETATM   18  C20 UNL     1      19.493 -14.693  24.872  1.00  0.00     0.007 C 
HETATM   19  C21 UNL     1      20.872 -15.185  25.263  1.00  0.00     0.000 C 
HETATM   20  C22 UNL     1      21.278 -16.249  24.256  1.00  0.00     0.000 C 
HETATM   21  C23 UNL     1      20.357 -17.423  24.426  1.00  0.00     0.000 C 
HETATM   22  C24 UNL     1      19.164 -17.063  25.287  1.00  0.00     0.007 C 
ENDBRANCH  12  17
ENDBRANCH  10  12
ENDBRANCH   3   5
BRANCH   1  23
HETATM   23  C11 UNL     1      14.850 -14.325  18.538  1.00  0.00     0.164 C 
BRANCH  23  24
HETATM   24  C10 UNL     1      13.935 -15.457  18.429  1.00  0.00    -0.005 A 
HETATM   25  C5  UNL     1      12.735 -15.487  19.142  1.00  0.00     0.077 A 
HETATM   26  C6  UNL     1      11.876 -16.543  19.043  1.00  0.00     0.039 A 
HETATM   27  C7  UNL     1      12.160 -17.620  18.234  1.00  0.00     0.026 A 
HETATM   28  C8  UNL     1      13.323 -17.615  17.529  1.00  0.00     0.034 A 
HETATM   29 CL1  UNL     1      13.677 -18.989  16.504  1.00  0.00    -0.084 Cl
HETATM   30  C9  UNL     1      14.204 -16.535  17.630  1.00  0.00     0.035 A 
BRANCH  25  31
HETATM   31  O2  UNL     1      12.427 -14.405  19.969  1.00  0.00    -0.342 OA
BRANCH  31  32
HETATM   32  C4  UNL     1      12.398 -14.582  21.371  1.00  0.00     0.278 C 
BRANCH  32  33
HETATM   33  C3  UNL     1      12.673 -13.316  22.067  1.00  0.00     0.241 C 
HETATM   34  N1  UNL     1      11.596 -12.531  22.527  1.00  0.00    -0.360 N 
ATOM     35  H1  UNL     1      10.639 -12.848  22.373  1.00  0.00     0.162 HD
HETATM   36  O1  UNL     1      13.871 -12.951  22.243  1.00  0.00    -0.271 OA
BRANCH  34  37
HETATM   37  C2  UNL     1      11.836 -11.267  23.224  1.00  0.00     0.118 C 
HETATM   38  C1  UNL     1      11.133 -11.241  24.561  1.00  0.00     0.026 C 
ENDBRANCH  34  37
ENDBRANCH  32  33
ENDBRANCH  31  32
ENDBRANCH  25  31
ENDBRANCH  23  24
ENDBRANCH   1  23
TORSDOF 10
ENDMDL
