MODEL 3
REMARK VINA RESULT: -9.361911908      2.266      7.342
REMARK  15 active torsions:
REMARK  status: ('A' for Active; 'I' for Inactive)
REMARK    1  A    between atoms: C2_2  and  C4_4 
REMARK    2  A    between atoms: C4_4  and  N1_5 
REMARK    3  A    between atoms: C4_4  and  C29_38 
REMARK       I    between atoms: N1_5  and  C5_7 
REMARK    4  A    between atoms: C5_7  and  C6_9 
REMARK    5  A    between atoms: C6_9  and  C7_10 
REMARK    6  A    between atoms: C6_9  and  C14_17 
REMARK    7  A    between atoms: C7_10  and  C8_11 
REMARK    8  A    between atoms: C14_17  and  C15_18 
REMARK    9  A    between atoms: C15_18  and  O2_19 
REMARK   10  A    between atoms: C15_18  and  C16_21 
REMARK   11  A    between atoms: C16_21  and  C17_22 
REMARK   12  A    between atoms: C16_21  and  N2_29 
REMARK   13  A    between atoms: C17_22  and  C18_23 
REMARK       I    between atoms: N2_29  and  C24_31 
REMARK   14  A    between atoms: C24_31  and  O4_33 
REMARK   15  A    between atoms: O4_33  and  C25_34 
ROOT
HETATM    1  C6  UNL     1      11.466  22.885   4.913  1.00  0.00     0.084 C 
ENDROOT
BRANCH   1   2
HETATM    2  C5  UNL     1      11.070  24.169   4.365  1.00  0.00     0.222 C 
HETATM    3  N1  UNL     1       9.663  24.478   4.252  1.00  0.00    -0.349 N 
ATOM      4  H1  UNL     1       8.997  23.784   4.592  1.00  0.00     0.163 HD
HETATM    5  O1  UNL     1      11.887  25.012   3.949  1.00  0.00    -0.273 OA
BRANCH   3   6
HETATM    6  C4  UNL     1       9.132  25.689   3.696  1.00  0.00     0.155 C 
BRANCH   6   7
HETATM    7  C2  UNL     1       8.134  25.484   2.616  1.00  0.00     0.007 C 
HETATM    8  C1  UNL     1       8.017  24.023   2.242  1.00  0.00     0.012 C 
HETATM    9  C3  UNL     1       8.575  26.220   1.357  1.00  0.00     0.012 C 
ENDBRANCH   6   7
BRANCH   6  10
HETATM   10  C29 UNL     1       8.552  26.573   4.814  1.00  0.00     0.104 A 
HETATM   11  N3  UNL     1       7.325  26.547   5.321  1.00  0.00    -0.353 N 
HETATM   12  C30 UNL     1       7.233  27.510   6.286  1.00  0.00     0.106 A 
ATOM     13  H3  UNL     1       6.577  25.915   5.038  1.00  0.00     0.166 HD
HETATM   14  C31 UNL     1       8.449  28.148   6.365  1.00  0.00     0.106 A 
HETATM   15  N4  UNL     1       9.222  27.553   5.450  1.00  0.00    -0.353 N 
ATOM     16  H4  UNL     1      10.191  27.808   5.259  1.00  0.00     0.166 HD
ENDBRANCH   6  10
ENDBRANCH   3   6
ENDBRANCH   1   2
BRANCH   1  17
HETATM   17  C7  UNL     1      11.699  22.838   6.404  1.00  0.00     0.052 C 
BRANCH  17  18
HETATM   18  C8  UNL     1      11.521  24.034   7.181  1.00  0.00    -0.057 A 
HETATM   19  C9  UNL     1      10.328  24.489   7.683  1.00  0.00     0.007 A 
HETATM   20  C10 UNL     1      10.194  25.631   8.451  1.00  0.00     0.001 A 
HETATM   21  C11 UNL     1      11.305  26.406   8.768  1.00  0.00     0.000 A 
HETATM   22  C12 UNL     1      12.532  25.967   8.270  1.00  0.00     0.001 A 
HETATM   23  C13 UNL     1      12.629  24.835   7.512  1.00  0.00     0.007 A 
ENDBRANCH  17  18
ENDBRANCH   1  17
BRANCH   1  24
HETATM   24  C14 UNL     1      12.648  22.233   4.210  1.00  0.00     0.048 C 
BRANCH  24  25
HETATM   25  C15 UNL     1      13.994  22.550   4.758  1.00  0.00     0.142 C 
BRANCH  25  26
HETATM   26  O2  UNL     1      14.675  23.397   3.860  1.00  0.00    -0.393 OA
ATOM     27  H2  UNL     1      14.395  23.205   2.973  1.00  0.00     0.210 HD
ENDBRANCH  25  26
BRANCH  25  28
HETATM   28  C16 UNL     1      14.838  21.265   4.800  1.00  0.00     0.119 C 
BRANCH  28  29
HETATM   29  C17 UNL     1      14.201  20.131   4.039  1.00  0.00     0.066 C 
BRANCH  29  30
HETATM   30  C18 UNL     1      15.229  19.297   3.396  1.00  0.00    -0.056 A 
HETATM   31  C19 UNL     1      15.631  18.110   3.983  1.00  0.00     0.007 A 
HETATM   32  C20 UNL     1      16.590  17.317   3.412  1.00  0.00     0.001 A 
HETATM   33  C21 UNL     1      17.190  17.683   2.210  1.00  0.00     0.000 A 
HETATM   34  C22 UNL     1      16.785  18.865   1.627  1.00  0.00     0.001 A 
HETATM   35  C23 UNL     1      15.812  19.670   2.213  1.00  0.00     0.007 A 
ENDBRANCH  29  30
ENDBRANCH  28  29
BRANCH  28  36
HETATM   36  N2  UNL     1      15.083  20.939   6.166  1.00  0.00    -0.329 N 
HETATM   37  C24 UNL     1      16.318  20.527   6.717  1.00  0.00     0.361 C 
HETATM   38  O3  UNL     1      17.301  20.460   5.904  1.00  0.00    -0.238 OA
ATOM     39  H2  UNL     1      14.293  21.011   6.807  1.00  0.00     0.165 HD
BRANCH  37  40
HETATM   40  O4  UNL     1      16.513  20.206   8.025  1.00  0.00    -0.294 OA
BRANCH  40  41
HETATM   41  C25 UNL     1      16.697  21.091   9.106  1.00  0.00     0.061 C 
HETATM   42  C26 UNL     1      17.522  20.424  10.189  1.00  0.00     0.046 C 
HETATM   43  C27 UNL     1      15.334  21.432   9.715  1.00  0.00     0.046 C 
HETATM   44  C28 UNL     1      17.322  22.389   8.720  1.00  0.00     0.046 C 
ENDBRANCH  40  41
ENDBRANCH  37  40
ENDBRANCH  28  36
ENDBRANCH  25  28
ENDBRANCH  24  25
ENDBRANCH   1  24
TORSDOF 15
ENDMDL
