MODEL 2
REMARK VINA RESULT: -9.424347296      2.368      7.383
REMARK  15 active torsions:
REMARK  status: ('A' for Active; 'I' for Inactive)
REMARK    1  A    between atoms: C2_2  and  C4_4 
REMARK    2  A    between atoms: C4_4  and  N1_5 
REMARK    3  A    between atoms: C4_4  and  C29_38 
REMARK       I    between atoms: N1_5  and  C5_7 
REMARK    4  A    between atoms: C5_7  and  C6_9 
REMARK    5  A    between atoms: C6_9  and  C7_10 
REMARK    6  A    between atoms: C6_9  and  C14_17 
REMARK    7  A    between atoms: C7_10  and  C8_11 
REMARK    8  A    between atoms: C14_17  and  C15_18 
REMARK    9  A    between atoms: C15_18  and  O2_19 
REMARK   10  A    between atoms: C15_18  and  C16_21 
REMARK   11  A    between atoms: C16_21  and  C17_22 
REMARK   12  A    between atoms: C16_21  and  N2_29 
REMARK   13  A    between atoms: C17_22  and  C18_23 
REMARK       I    between atoms: N2_29  and  C24_31 
REMARK   14  A    between atoms: C24_31  and  O4_33 
REMARK   15  A    between atoms: O4_33  and  C25_34 
ROOT
HETATM    1  C6  UNL     1      12.265  24.193   4.154  1.00  0.00     0.084 C 
ENDROOT
BRANCH   1   2
HETATM    2  C5  UNL     1      11.432  24.314   5.337  1.00  0.00     0.222 C 
HETATM    3  N1  UNL     1      11.018  25.630   5.769  1.00  0.00    -0.349 N 
ATOM      4  H1  UNL     1      11.308  26.427   5.202  1.00  0.00     0.163 HD
HETATM    5  O1  UNL     1      11.082  23.337   6.025  1.00  0.00    -0.273 OA
BRANCH   3   6
HETATM    6  C4  UNL     1      10.228  25.898   6.936  1.00  0.00     0.155 C 
BRANCH   6   7
HETATM    7  C2  UNL     1      10.993  26.452   8.081  1.00  0.00     0.007 C 
HETATM    8  C1  UNL     1      12.463  26.110   7.981  1.00  0.00     0.012 C 
HETATM    9  C3  UNL     1      10.493  25.841   9.383  1.00  0.00     0.012 C 
ENDBRANCH   6   7
BRANCH   6  10
HETATM   10  C29 UNL     1       9.046  26.812   6.575  1.00  0.00     0.104 A 
HETATM   11  N3  UNL     1       8.745  27.999   7.090  1.00  0.00    -0.353 N 
HETATM   12  C30 UNL     1       7.605  28.457   6.490  1.00  0.00     0.106 A 
ATOM     13  H3  UNL     1       9.275  28.487   7.812  1.00  0.00     0.166 HD
HETATM   14  C31 UNL     1       7.196  27.510   5.580  1.00  0.00     0.106 A 
HETATM   15  N4  UNL     1       8.095  26.524   5.665  1.00  0.00    -0.353 N 
ATOM     16  H4  UNL     1       8.064  25.666   5.115  1.00  0.00     0.166 HD
ENDBRANCH   6  10
ENDBRANCH   3   6
ENDBRANCH   1   2
BRANCH   1  17
HETATM   17  C7  UNL     1      11.595  23.642   2.918  1.00  0.00     0.052 C 
BRANCH  17  18
HETATM   18  C8  UNL     1      10.292  24.125   2.551  1.00  0.00    -0.057 A 
HETATM   19  C9  UNL     1       9.110  23.453   2.739  1.00  0.00     0.007 A 
HETATM   20  C10 UNL     1       7.868  23.958   2.400  1.00  0.00     0.001 A 
HETATM   21  C11 UNL     1       7.749  25.221   1.830  1.00  0.00     0.000 A 
HETATM   22  C12 UNL     1       8.935  25.928   1.627  1.00  0.00     0.001 A 
HETATM   23  C13 UNL     1      10.146  25.399   1.971  1.00  0.00     0.007 A 
ENDBRANCH  17  18
ENDBRANCH   1  17
BRANCH   1  24
HETATM   24  C14 UNL     1      13.574  23.450   4.375  1.00  0.00     0.048 C 
BRANCH  24  25
HETATM   25  C15 UNL     1      14.508  24.044   5.370  1.00  0.00     0.142 C 
BRANCH  25  26
HETATM   26  O2  UNL     1      15.591  24.643   4.693  1.00  0.00    -0.393 OA
ATOM     27  H2  UNL     1      16.084  25.179   5.303  1.00  0.00     0.210 HD
ENDBRANCH  25  26
BRANCH  25  28
HETATM   28  C16 UNL     1      15.141  22.918   6.204  1.00  0.00     0.119 C 
BRANCH  28  29
HETATM   29  C17 UNL     1      15.942  23.442   7.368  1.00  0.00     0.066 C 
BRANCH  29  30
HETATM   30  C18 UNL     1      16.333  22.341   8.264  1.00  0.00    -0.056 A 
HETATM   31  C19 UNL     1      17.671  22.053   8.469  1.00  0.00     0.007 A 
HETATM   32  C20 UNL     1      18.065  21.031   9.291  1.00  0.00     0.001 A 
HETATM   33  C21 UNL     1      17.123  20.250   9.954  1.00  0.00     0.000 A 
HETATM   34  C22 UNL     1      15.791  20.542   9.749  1.00  0.00     0.001 A 
HETATM   35  C23 UNL     1      15.394  21.580   8.910  1.00  0.00     0.007 A 
ENDBRANCH  29  30
ENDBRANCH  28  29
BRANCH  28  36
HETATM   36  N2  UNL     1      15.915  22.099   5.330  1.00  0.00    -0.329 N 
HETATM   37  C24 UNL     1      15.735  20.716   5.105  1.00  0.00     0.361 C 
HETATM   38  O3  UNL     1      14.774  20.164   5.741  1.00  0.00    -0.238 OA
ATOM     39  H2  UNL     1      16.670  22.556   4.818  1.00  0.00     0.165 HD
BRANCH  37  40
HETATM   40  O4  UNL     1      16.506  19.960   4.276  1.00  0.00    -0.294 OA
BRANCH  40  41
HETATM   41  C25 UNL     1      16.081  19.198   3.169  1.00  0.00     0.061 C 
HETATM   42  C26 UNL     1      15.462  17.897   3.641  1.00  0.00     0.046 C 
HETATM   43  C27 UNL     1      17.296  18.840   2.309  1.00  0.00     0.046 C 
HETATM   44  C28 UNL     1      15.129  19.917   2.275  1.00  0.00     0.046 C 
ENDBRANCH  40  41
ENDBRANCH  37  40
ENDBRANCH  28  36
ENDBRANCH  25  28
ENDBRANCH  24  25
ENDBRANCH   1  24
TORSDOF 15
ENDMDL
