MODEL 4
REMARK VINA RESULT: -9.331508054      2.267      7.369
REMARK  15 active torsions:
REMARK  status: ('A' for Active; 'I' for Inactive)
REMARK    1  A    between atoms: C2_2  and  C4_4 
REMARK    2  A    between atoms: C4_4  and  N1_5 
REMARK    3  A    between atoms: C4_4  and  C29_38 
REMARK       I    between atoms: N1_5  and  C5_7 
REMARK    4  A    between atoms: C5_7  and  C6_9 
REMARK    5  A    between atoms: C6_9  and  C7_10 
REMARK    6  A    between atoms: C6_9  and  C14_17 
REMARK    7  A    between atoms: C7_10  and  C8_11 
REMARK    8  A    between atoms: C14_17  and  C15_18 
REMARK    9  A    between atoms: C15_18  and  O2_19 
REMARK   10  A    between atoms: C15_18  and  C16_21 
REMARK   11  A    between atoms: C16_21  and  C17_22 
REMARK   12  A    between atoms: C16_21  and  N2_29 
REMARK   13  A    between atoms: C17_22  and  C18_23 
REMARK       I    between atoms: N2_29  and  C24_31 
REMARK   14  A    between atoms: C24_31  and  O4_33 
REMARK   15  A    between atoms: O4_33  and  C25_34 
ROOT
HETATM    1  C6  UNL     1      11.427  22.873   5.194  1.00  0.00     0.084 C 
ENDROOT
BRANCH   1   2
HETATM    2  C5  UNL     1      11.037  24.120   4.561  1.00  0.00     0.222 C 
HETATM    3  N1  UNL     1       9.632  24.410   4.392  1.00  0.00    -0.349 N 
ATOM      4  H1  UNL     1       8.962  23.732   4.755  1.00  0.00     0.163 HD
HETATM    5  O1  UNL     1      11.860  24.944   4.119  1.00  0.00    -0.273 OA
BRANCH   3   6
HETATM    6  C4  UNL     1       9.108  25.583   3.752  1.00  0.00     0.155 C 
BRANCH   6   7
HETATM    7  C2  UNL     1       8.085  25.310   2.713  1.00  0.00     0.007 C 
HETATM    8  C1  UNL     1       8.096  23.856   2.294  1.00  0.00     0.012 C 
HETATM    9  C3  UNL     1       8.387  26.123   1.460  1.00  0.00     0.012 C 
ENDBRANCH   6   7
BRANCH   6  10
HETATM   10  C29 UNL     1       8.568  26.562   4.807  1.00  0.00     0.104 A 
HETATM   11  N3  UNL     1       9.191  27.602   5.351  1.00  0.00    -0.353 N 
HETATM   12  C30 UNL     1       8.349  28.191   6.252  1.00  0.00     0.106 A 
ATOM     13  H3  UNL     1      10.139  27.908   5.134  1.00  0.00     0.166 HD
HETATM   14  C31 UNL     1       7.171  27.480   6.258  1.00  0.00     0.106 A 
HETATM   15  N4  UNL     1       7.346  26.495   5.371  1.00  0.00    -0.353 N 
ATOM     16  H4  UNL     1       6.647  25.786   5.151  1.00  0.00     0.166 HD
ENDBRANCH   6  10
ENDBRANCH   3   6
ENDBRANCH   1   2
BRANCH   1  17
HETATM   17  C7  UNL     1      11.762  22.947   6.665  1.00  0.00     0.052 C 
BRANCH  17  18
HETATM   18  C8  UNL     1      11.473  24.153   7.392  1.00  0.00    -0.057 A 
HETATM   19  C9  UNL     1      10.225  24.570   7.780  1.00  0.00     0.007 A 
HETATM   20  C10 UNL     1       9.982  25.723   8.504  1.00  0.00     0.001 A 
HETATM   21  C11 UNL     1      11.031  26.550   8.892  1.00  0.00     0.000 A 
HETATM   22  C12 UNL     1      12.313  26.150   8.511  1.00  0.00     0.001 A 
HETATM   23  C13 UNL     1      12.517  25.006   7.793  1.00  0.00     0.007 A 
ENDBRANCH  17  18
ENDBRANCH   1  17
BRANCH   1  24
HETATM   24  C14 UNL     1      12.533  22.116   4.475  1.00  0.00     0.048 C 
BRANCH  24  25
HETATM   25  C15 UNL     1      13.927  22.482   4.845  1.00  0.00     0.142 C 
BRANCH  25  26
HETATM   26  O2  UNL     1      14.489  23.272   3.821  1.00  0.00    -0.393 OA
ATOM     27  H2  UNL     1      14.925  22.709   3.193  1.00  0.00     0.210 HD
ENDBRANCH  25  26
BRANCH  25  28
HETATM   28  C16 UNL     1      14.791  21.210   4.875  1.00  0.00     0.119 C 
BRANCH  28  29
HETATM   29  C17 UNL     1      14.164  20.066   4.121  1.00  0.00     0.066 C 
BRANCH  29  30
HETATM   30  C18 UNL     1      15.196  19.263   3.447  1.00  0.00    -0.056 A 
HETATM   31  C19 UNL     1      15.729  19.683   2.240  1.00  0.00     0.007 A 
HETATM   32  C20 UNL     1      16.685  18.954   1.586  1.00  0.00     0.001 A 
HETATM   33  C21 UNL     1      17.157  17.759   2.123  1.00  0.00     0.000 A 
HETATM   34  C22 UNL     1      16.626  17.345   3.327  1.00  0.00     0.001 A 
HETATM   35  C23 UNL     1      15.651  18.088   3.987  1.00  0.00     0.007 A 
ENDBRANCH  29  30
ENDBRANCH  28  29
BRANCH  28  36
HETATM   36  N2  UNL     1      15.058  20.886   6.239  1.00  0.00    -0.329 N 
HETATM   37  C24 UNL     1      16.308  20.506   6.777  1.00  0.00     0.361 C 
HETATM   38  O3  UNL     1      17.285  20.468   5.955  1.00  0.00    -0.238 OA
ATOM     39  H2  UNL     1      14.272  20.935   6.886  1.00  0.00     0.165 HD
BRANCH  37  40
HETATM   40  O4  UNL     1      16.523  20.186   8.082  1.00  0.00    -0.294 OA
BRANCH  40  41
HETATM   41  C25 UNL     1      16.645  21.071   9.172  1.00  0.00     0.061 C 
HETATM   42  C26 UNL     1      17.382  22.324   8.745  1.00  0.00     0.046 C 
HETATM   43  C27 UNL     1      17.478  20.403  10.271  1.00  0.00     0.046 C 
HETATM   44  C28 UNL     1      15.342  21.438   9.797  1.00  0.00     0.046 C 
ENDBRANCH  40  41
ENDBRANCH  37  40
ENDBRANCH  28  36
ENDBRANCH  25  28
ENDBRANCH  24  25
ENDBRANCH   1  24
TORSDOF 15
ENDMDL
