MODEL 1
REMARK VINA RESULT: -9.839843617      0.000      0.000
REMARK  15 active torsions:
REMARK  status: ('A' for Active; 'I' for Inactive)
REMARK    1  A    between atoms: C2_2  and  C4_4 
REMARK    2  A    between atoms: C4_4  and  N1_5 
REMARK    3  A    between atoms: C4_4  and  C29_38 
REMARK       I    between atoms: N1_5  and  C5_7 
REMARK    4  A    between atoms: C5_7  and  C6_9 
REMARK    5  A    between atoms: C6_9  and  C7_10 
REMARK    6  A    between atoms: C6_9  and  C14_17 
REMARK    7  A    between atoms: C7_10  and  C8_11 
REMARK    8  A    between atoms: C14_17  and  C15_18 
REMARK    9  A    between atoms: C15_18  and  O2_19 
REMARK   10  A    between atoms: C15_18  and  C16_21 
REMARK   11  A    between atoms: C16_21  and  C17_22 
REMARK   12  A    between atoms: C16_21  and  N2_29 
REMARK   13  A    between atoms: C17_22  and  C18_23 
REMARK       I    between atoms: N2_29  and  C24_31 
REMARK   14  A    between atoms: C24_31  and  O4_33 
REMARK   15  A    between atoms: O4_33  and  C25_34 
ROOT
HETATM    1  C6  UNL     1      14.417  24.029   7.129  1.00  0.00     0.084 C 
ENDROOT
BRANCH   1   2
HETATM    2  C5  UNL     1      15.605  23.363   7.631  1.00  0.00     0.222 C 
HETATM    3  N1  UNL     1      15.591  21.926   7.783  1.00  0.00    -0.349 N 
ATOM      4  H1  UNL     1      14.745  21.430   7.501  1.00  0.00     0.163 HD
HETATM    5  O1  UNL     1      16.634  23.975   7.976  1.00  0.00    -0.273 OA
BRANCH   3   6
HETATM    6  C4  UNL     1      16.677  21.146   8.302  1.00  0.00     0.155 C 
BRANCH   6   7
HETATM    7  C2  UNL     1      16.315  20.273   9.447  1.00  0.00     0.007 C 
HETATM    8  C1  UNL     1      15.231  20.898  10.297  1.00  0.00     0.012 C 
HETATM    9  C3  UNL     1      17.523  20.084  10.356  1.00  0.00     0.012 C 
ENDBRANCH   6   7
BRANCH   6  10
HETATM   10  C29 UNL     1      17.323  20.326   7.173  1.00  0.00     0.104 A 
HETATM   11  N3  UNL     1      17.674  19.045   7.192  1.00  0.00    -0.353 N 
HETATM   12  C30 UNL     1      18.224  18.726   5.983  1.00  0.00     0.106 A 
ATOM     13  H3  UNL     1      17.552  18.406   7.977  1.00  0.00     0.166 HD
HETATM   14  C31 UNL     1      18.212  19.858   5.200  1.00  0.00     0.106 A 
HETATM   15  N4  UNL     1      17.662  20.810   5.962  1.00  0.00    -0.353 N 
ATOM     16  H4  UNL     1      17.518  21.775   5.665  1.00  0.00     0.166 HD
ENDBRANCH   6  10
ENDBRANCH   3   6
ENDBRANCH   1   2
BRANCH   1  17
HETATM   17  C7  UNL     1      13.095  23.521   7.653  1.00  0.00     0.052 C 
BRANCH  17  18
HETATM   18  C8  UNL     1      12.041  24.458   7.927  1.00  0.00    -0.057 A 
HETATM   19  C9  UNL     1      10.717  24.285   7.606  1.00  0.00     0.007 A 
HETATM   20  C10 UNL     1       9.721  25.195   7.909  1.00  0.00     0.001 A 
HETATM   21  C11 UNL     1      10.020  26.376   8.581  1.00  0.00     0.000 A 
HETATM   22  C12 UNL     1      11.358  26.577   8.921  1.00  0.00     0.001 A 
HETATM   23  C13 UNL     1      12.318  25.659   8.604  1.00  0.00     0.007 A 
ENDBRANCH  17  18
ENDBRANCH   1  17
BRANCH   1  24
HETATM   24  C14 UNL     1      14.339  24.129   5.613  1.00  0.00     0.048 C 
BRANCH  24  25
HETATM   25  C15 UNL     1      14.991  23.032   4.848  1.00  0.00     0.142 C 
BRANCH  25  26
HETATM   26  O2  UNL     1      15.767  23.585   3.809  1.00  0.00    -0.393 OA
ATOM     27  H2  UNL     1      15.933  22.919   3.152  1.00  0.00     0.210 HD
ENDBRANCH  25  26
BRANCH  25  28
HETATM   28  C16 UNL     1      13.909  22.206   4.131  1.00  0.00     0.119 C 
BRANCH  28  29
HETATM   29  C17 UNL     1      14.411  21.581   2.855  1.00  0.00     0.066 C 
BRANCH  29  30
HETATM   30  C18 UNL     1      14.877  20.207   3.100  1.00  0.00    -0.056 A 
HETATM   31  C19 UNL     1      14.390  19.487   4.178  1.00  0.00     0.007 A 
HETATM   32  C20 UNL     1      14.810  18.210   4.435  1.00  0.00     0.001 A 
HETATM   33  C21 UNL     1      15.745  17.590   3.609  1.00  0.00     0.000 A 
HETATM   34  C22 UNL     1      16.226  18.310   2.535  1.00  0.00     0.001 A 
HETATM   35  C23 UNL     1      15.798  19.610   2.279  1.00  0.00     0.007 A 
ENDBRANCH  29  30
ENDBRANCH  28  29
BRANCH  28  36
HETATM   36  N2  UNL     1      12.775  23.045   3.921  1.00  0.00    -0.329 N 
HETATM   37  C24 UNL     1      11.466  22.814   4.401  1.00  0.00     0.361 C 
HETATM   38  O3  UNL     1      11.302  21.757   5.101  1.00  0.00    -0.238 OA
ATOM     39  H2  UNL     1      12.923  23.892   3.373  1.00  0.00     0.165 HD
BRANCH  37  40
HETATM   40  O4  UNL     1      10.401  23.628   4.167  1.00  0.00    -0.294 OA
BRANCH  40  41
HETATM   41  C25 UNL     1       9.690  23.783   2.960  1.00  0.00     0.061 C 
HETATM   42  C26 UNL     1      10.236  24.963   2.182  1.00  0.00     0.046 C 
HETATM   43  C27 UNL     1       8.222  24.084   3.277  1.00  0.00     0.046 C 
HETATM   44  C28 UNL     1       9.693  22.564   2.101  1.00  0.00     0.046 C 
ENDBRANCH  40  41
ENDBRANCH  37  40
ENDBRANCH  28  36
ENDBRANCH  25  28
ENDBRANCH  24  25
ENDBRANCH   1  24
TORSDOF 15
ENDMDL
