MODEL 1
REMARK VINA RESULT: -8.012892415      0.000      0.000
REMARK  4 active torsions:
REMARK  status: ('A' for Active; 'I' for Inactive)
REMARK    1  A    between atoms: C1_2  and  C2_4 
REMARK    2  A    between atoms: C6_10  and  N2_11 
REMARK    3  A    between atoms: N2_11  and  C7_13 
REMARK    4  A    between atoms: C11_17  and  C12_18 
ROOT
HETATM    1  N2  UNL     1       9.258  13.891   0.776  1.00  0.00    -0.342 N 
ATOM      2  H2  UNL     1       8.726  13.551  -0.026  1.00  0.00     0.167 HD
ENDROOT
BRANCH   1   3
HETATM    3  C6  UNL     1       9.083  13.296   2.051  1.00  0.00     0.122 A 
HETATM    4  C2  UNL     1       8.014  13.474   2.880  1.00  0.00     0.084 A 
HETATM    5  C3  UNL     1       8.000  12.846   4.137  1.00  0.00     0.024 A 
HETATM    6  C4  UNL     1       9.039  12.058   4.538  1.00  0.00     0.018 A 
HETATM    7  C5  UNL     1      10.113  11.885   3.694  1.00  0.00     0.090 A 
HETATM    8  N1  UNL     1      10.089  12.491   2.524  1.00  0.00    -0.351 N 
ATOM      9  H1  UNL     1      10.893  12.348   1.914  1.00  0.00     0.166 HD
BRANCH   4  10
HETATM   10  C1  UNL     1       6.886  14.273   2.496  1.00  0.00     0.213 C 
HETATM   11  O1  UNL     1       6.584  15.328   3.070  1.00  0.00    -0.644 OA
HETATM   12  O2  UNL     1       6.089  13.878   1.448  1.00  0.00    -0.644 OA
ENDBRANCH   4  10
ENDBRANCH   1   3
BRANCH   1  13
HETATM   13  C7  UNL     1      10.176  14.965   0.621  1.00  0.00     0.034 A 
HETATM   14  C8  UNL     1      10.453  15.444  -0.650  1.00  0.00     0.029 A 
HETATM   15  C9  UNL     1      11.321  16.465  -0.879  1.00  0.00     0.003 A 
HETATM   16  C10 UNL     1      11.948  17.042   0.211  1.00  0.00     0.016 A 
HETATM   17  C11 UNL     1      11.687  16.576   1.495  1.00  0.00     0.050 A 
HETATM   18  C13 UNL     1      10.794  15.526   1.708  1.00  0.00     0.045 A 
BRANCH  17  19
HETATM   19  C12 UNL     1      12.396  17.211   2.634  1.00  0.00     0.417 C 
HETATM   20  F1  UNL     1      13.511  17.885   2.178  1.00  0.00    -0.166 F 
HETATM   21  F2  UNL     1      11.517  18.067   3.304  1.00  0.00    -0.166 F 
HETATM   22  F3  UNL     1      12.774  16.231   3.543  1.00  0.00    -0.166 F 
ENDBRANCH  17  19
ENDBRANCH   1  13
TORSDOF 4
ENDMDL
