MODEL 4
REMARK VINA RESULT: -7.211198920      3.629      6.093
REMARK  4 active torsions:
REMARK  status: ('A' for Active; 'I' for Inactive)
REMARK    1  A    between atoms: C1_2  and  C2_4 
REMARK    2  A    between atoms: C6_10  and  N2_11 
REMARK    3  A    between atoms: N2_11  and  C7_13 
REMARK    4  A    between atoms: C11_17  and  C12_18 
ROOT
HETATM    1  N2  UNL     1      11.415  14.698   2.631  1.00  0.00    -0.342 N 
ATOM      2  H2  UNL     1      12.247  14.492   3.184  1.00  0.00     0.167 HD
ENDROOT
BRANCH   1   3
HETATM    3  C6  UNL     1      11.525  15.438   1.426  1.00  0.00     0.122 A 
HETATM    4  C2  UNL     1      12.308  16.538   1.229  1.00  0.00     0.084 A 
HETATM    5  C3  UNL     1      12.284  17.193  -0.014  1.00  0.00     0.024 A 
HETATM    6  C4  UNL     1      11.490  16.741  -1.028  1.00  0.00     0.018 A 
HETATM    7  C5  UNL     1      10.706  15.629  -0.819  1.00  0.00     0.090 A 
HETATM    8  N1  UNL     1      10.756  15.044   0.360  1.00  0.00    -0.351 N 
ATOM      9  H1  UNL     1      10.168  14.222   0.493  1.00  0.00     0.166 HD
BRANCH   4  10
HETATM   10  C1  UNL     1      13.177  17.040   2.255  1.00  0.00     0.213 C 
HETATM   11  O1  UNL     1      14.408  17.086   2.129  1.00  0.00    -0.644 OA
HETATM   12  O2  UNL     1      12.649  17.500   3.439  1.00  0.00    -0.644 OA
ENDBRANCH   4  10
ENDBRANCH   1   3
BRANCH   1  13
HETATM   13  C7  UNL     1      10.139  14.246   3.062  1.00  0.00     0.034 A 
HETATM   14  C8  UNL     1      10.055  13.375   4.137  1.00  0.00     0.029 A 
HETATM   15  C9  UNL     1       8.873  12.896   4.607  1.00  0.00     0.003 A 
HETATM   16  C10 UNL     1       7.710  13.304   3.977  1.00  0.00     0.016 A 
HETATM   17  C11 UNL     1       7.770  14.176   2.896  1.00  0.00     0.050 A 
HETATM   18  C13 UNL     1       8.995  14.654   2.428  1.00  0.00     0.045 A 
BRANCH  17  19
HETATM   19  C12 UNL     1       6.500  14.573   2.237  1.00  0.00     0.417 C 
HETATM   20  F1  UNL     1       6.049  15.767   2.765  1.00  0.00    -0.166 F 
HETATM   21  F2  UNL     1       6.706  14.666   0.858  1.00  0.00    -0.166 F 
HETATM   22  F3  UNL     1       5.550  13.579   2.437  1.00  0.00    -0.166 F 
ENDBRANCH  17  19
ENDBRANCH   1  13
TORSDOF 4
ENDMDL
