MODEL 2
REMARK VINA RESULT: -7.693283803      2.138      2.862
REMARK  4 active torsions:
REMARK  status: ('A' for Active; 'I' for Inactive)
REMARK    1  A    between atoms: C1_2  and  C2_4 
REMARK    2  A    between atoms: C6_10  and  N2_11 
REMARK    3  A    between atoms: N2_11  and  C7_13 
REMARK    4  A    between atoms: C11_17  and  C12_18 
ROOT
HETATM    1  N2  UNL     1       9.628  15.358   3.553  1.00  0.00    -0.342 N 
ATOM      2  H2  UNL     1       8.967  16.001   3.989  1.00  0.00     0.167 HD
ENDROOT
BRANCH   1   3
HETATM    3  C6  UNL     1       9.512  13.961   3.770  1.00  0.00     0.122 A 
HETATM    4  C2  UNL     1       8.538  13.150   3.266  1.00  0.00     0.084 A 
HETATM    5  C3  UNL     1       8.531  11.785   3.601  1.00  0.00     0.024 A 
HETATM    6  C4  UNL     1       9.486  11.261   4.422  1.00  0.00     0.018 A 
HETATM    7  C5  UNL     1      10.464  12.088   4.925  1.00  0.00     0.090 A 
HETATM    8  N1  UNL     1      10.437  13.361   4.588  1.00  0.00    -0.351 N 
ATOM      9  H1  UNL     1      11.171  13.956   4.970  1.00  0.00     0.166 HD
BRANCH   4  10
HETATM   10  C1  UNL     1       7.525  13.647   2.380  1.00  0.00     0.213 C 
HETATM   11  O1  UNL     1       7.226  13.083   1.318  1.00  0.00    -0.644 OA
HETATM   12  O2  UNL     1       6.837  14.794   2.698  1.00  0.00    -0.644 OA
ENDBRANCH   4  10
ENDBRANCH   1   3
BRANCH   1  13
HETATM   13  C7  UNL     1      10.671  15.856   2.726  1.00  0.00     0.034 A 
HETATM   14  C8  UNL     1      11.856  16.281   3.308  1.00  0.00     0.029 A 
HETATM   15  C9  UNL     1      12.897  16.771   2.585  1.00  0.00     0.003 A 
HETATM   16  C10 UNL     1      12.757  16.844   1.210  1.00  0.00     0.016 A 
HETATM   17  C11 UNL     1      11.577  16.425   0.605  1.00  0.00     0.050 A 
HETATM   18  C13 UNL     1      10.519  15.926   1.367  1.00  0.00     0.045 A 
BRANCH  17  19
HETATM   19  C12 UNL     1      11.461  16.538  -0.870  1.00  0.00     0.417 C 
HETATM   20  F1  UNL     1      12.719  16.590  -1.439  1.00  0.00    -0.166 F 
HETATM   21  F2  UNL     1      10.722  15.458  -1.359  1.00  0.00    -0.166 F 
HETATM   22  F3  UNL     1      10.752  17.689  -1.188  1.00  0.00    -0.166 F 
ENDBRANCH  17  19
ENDBRANCH   1  13
TORSDOF 4
ENDMDL
