MODEL 7
REMARK VINA RESULT: -5.549566831      4.453      5.598
REMARK  4 active torsions:
REMARK  status: ('A' for Active; 'I' for Inactive)
REMARK    1  A    between atoms: N1_1  and  C1_5 
REMARK    2  A    between atoms: C1_5  and  C2_6 
REMARK    3  A    between atoms: C1_5  and  C9_14 
REMARK    4  A    between atoms: C2_6  and  C3_7 
ROOT
HETATM    1  C1  UNL     1      18.102 -19.084 -59.337  1.00  0.00     0.287 C 
ENDROOT
BRANCH   1   2
HETATM    2  N1  UNL     1      17.291 -19.533 -60.415  1.00  0.00    -0.065 N 
ATOM      3  H13 UNL     1      17.453 -18.962 -61.244  1.00  0.00     0.275 HD
ATOM      4  H12 UNL     1      17.624 -20.435 -60.757  1.00  0.00     0.275 HD
ATOM      5  H11 UNL     1      16.294 -19.578 -60.203  1.00  0.00     0.275 HD
ENDBRANCH   1   2
BRANCH   1   6
HETATM    6  C2  UNL     1      17.600 -17.836 -58.659  1.00  0.00     0.082 C 
BRANCH   6   7
HETATM    7  C3  UNL     1      18.681 -16.876 -58.343  1.00  0.00    -0.056 A 
HETATM    8  C4  UNL     1      19.841 -17.258 -57.699  1.00  0.00     0.008 A 
HETATM    9  C5  UNL     1      20.849 -16.360 -57.404  1.00  0.00     0.019 A 
HETATM   10  C6  UNL     1      20.730 -15.034 -57.752  1.00  0.00     0.006 A 
HETATM   11  I1  UNL     1      22.283 -13.672 -57.295  1.00  0.00    -0.045 I 
HETATM   12  C7  UNL     1      19.587 -14.634 -58.392  1.00  0.00     0.019 A 
HETATM   13  C8  UNL     1      18.582 -15.533 -58.684  1.00  0.00     0.008 A 
ENDBRANCH   6   7
ENDBRANCH   1   6
BRANCH   1  14
HETATM   14  C9  UNL     1      18.244 -20.131 -58.309  1.00  0.00     0.204 C 
HETATM   15  O1  UNL     1      18.812 -21.211 -58.569  1.00  0.00    -0.646 OA
HETATM   16  O2  UNL     1      17.744 -19.918 -57.044  1.00  0.00    -0.646 OA
ENDBRANCH   1  14
TORSDOF 4
ENDMDL
