MODEL 10
REMARK VINA RESULT: -5.359294895      1.160      1.802
REMARK  4 active torsions:
REMARK  status: ('A' for Active; 'I' for Inactive)
REMARK    1  A    between atoms: N1_1  and  C1_5 
REMARK    2  A    between atoms: C1_5  and  C2_6 
REMARK    3  A    between atoms: C1_5  and  C9_14 
REMARK    4  A    between atoms: C2_6  and  C3_7 
ROOT
HETATM    1  C1  UNL     1      16.779 -14.122 -57.848  1.00  0.00     0.287 C 
ENDROOT
BRANCH   1   2
HETATM    2  N1  UNL     1      16.366 -13.042 -58.675  1.00  0.00    -0.065 N 
ATOM      3  H13 UNL     1      15.732 -13.374 -59.403  1.00  0.00     0.275 HD
ATOM      4  H12 UNL     1      15.736 -12.424 -58.164  1.00  0.00     0.275 HD
ATOM      5  H11 UNL     1      17.132 -12.509 -59.087  1.00  0.00     0.275 HD
ENDBRANCH   1   2
BRANCH   1   6
HETATM    6  C2  UNL     1      18.167 -14.631 -58.135  1.00  0.00     0.082 C 
BRANCH   6   7
HETATM    7  C3  UNL     1      18.252 -16.109 -58.126  1.00  0.00    -0.056 A 
HETATM    8  C4  UNL     1      18.833 -16.807 -57.087  1.00  0.00     0.008 A 
HETATM    9  C5  UNL     1      18.912 -18.187 -57.080  1.00  0.00     0.019 A 
HETATM   10  C6  UNL     1      18.404 -18.922 -58.127  1.00  0.00     0.006 A 
HETATM   11  I1  UNL     1      18.532 -21.034 -58.102  1.00  0.00    -0.045 I 
HETATM   12  C7  UNL     1      17.823 -18.249 -59.168  1.00  0.00     0.019 A 
HETATM   13  C8  UNL     1      17.747 -16.871 -59.172  1.00  0.00     0.008 A 
ENDBRANCH   6   7
ENDBRANCH   1   6
BRANCH   1  14
HETATM   14  C9  UNL     1      16.720 -13.748 -56.423  1.00  0.00     0.204 C 
HETATM   15  O1  UNL     1      17.734 -13.821 -55.700  1.00  0.00    -0.646 OA
HETATM   16  O2  UNL     1      15.532 -13.313 -55.879  1.00  0.00    -0.646 OA
ENDBRANCH   1  14
TORSDOF 4
ENDMDL
