MODEL 6
REMARK VINA RESULT: -5.701499088      1.947      2.278
REMARK  4 active torsions:
REMARK  status: ('A' for Active; 'I' for Inactive)
REMARK    1  A    between atoms: N1_1  and  C1_5 
REMARK    2  A    between atoms: C1_5  and  C2_6 
REMARK    3  A    between atoms: C1_5  and  C9_14 
REMARK    4  A    between atoms: C2_6  and  C3_7 
ROOT
HETATM    1  C1  UNL     1      16.682 -14.898 -57.586  1.00  0.00     0.287 C 
ENDROOT
BRANCH   1   2
HETATM    2  N1  UNL     1      15.575 -15.671 -57.143  1.00  0.00    -0.065 N 
ATOM      3  H13 UNL     1      14.782 -15.067 -56.929  1.00  0.00     0.275 HD
ATOM      4  H12 UNL     1      15.183 -16.206 -57.918  1.00  0.00     0.275 HD
ATOM      5  H11 UNL     1      15.778 -16.285 -56.353  1.00  0.00     0.275 HD
ENDBRANCH   1   2
BRANCH   1   6
HETATM    6  C2  UNL     1      17.457 -15.512 -58.723  1.00  0.00     0.082 C 
BRANCH   6   7
HETATM    7  C3  UNL     1      17.766 -16.942 -58.503  1.00  0.00    -0.056 A 
HETATM    8  C4  UNL     1      17.459 -17.914 -59.434  1.00  0.00     0.008 A 
HETATM    9  C5  UNL     1      17.748 -19.250 -59.227  1.00  0.00     0.019 A 
HETATM   10  C6  UNL     1      18.364 -19.661 -58.067  1.00  0.00     0.006 A 
HETATM   11  I1  UNL     1      18.801 -21.709 -57.765  1.00  0.00    -0.045 I 
HETATM   12  C7  UNL     1      18.678 -18.713 -57.130  1.00  0.00     0.019 A 
HETATM   13  C8  UNL     1      18.387 -17.380 -57.340  1.00  0.00     0.008 A 
ENDBRANCH   6   7
ENDBRANCH   1   6
BRANCH   1  14
HETATM   14  C9  UNL     1      16.252 -13.551 -58.007  1.00  0.00     0.204 C 
HETATM   15  O1  UNL     1      17.006 -12.820 -58.680  1.00  0.00    -0.646 OA
HETATM   16  O2  UNL     1      15.002 -13.092 -57.654  1.00  0.00    -0.646 OA
ENDBRANCH   1  14
TORSDOF 4
ENDMDL
