MODEL 1
REMARK VINA RESULT: -6.051712679      0.000      0.000
REMARK  4 active torsions:
REMARK  status: ('A' for Active; 'I' for Inactive)
REMARK    1  A    between atoms: N1_1  and  C1_5 
REMARK    2  A    between atoms: C1_5  and  C2_6 
REMARK    3  A    between atoms: C1_5  and  C9_14 
REMARK    4  A    between atoms: C2_6  and  C3_7 
ROOT
HETATM    1  C1  UNL     1      16.091 -14.012 -56.745  1.00  0.00     0.287 C 
ENDROOT
BRANCH   1   2
HETATM    2  N1  UNL     1      15.070 -13.148 -57.225  1.00  0.00    -0.065 N 
ATOM      3  H13 UNL     1      15.086 -13.109 -58.245  1.00  0.00     0.275 HD
ATOM      4  H12 UNL     1      14.152 -13.569 -57.082  1.00  0.00     0.275 HD
ATOM      5  H11 UNL     1      15.095 -12.206 -56.833  1.00  0.00     0.275 HD
ENDBRANCH   1   2
BRANCH   1   6
HETATM    6  C2  UNL     1      17.296 -14.112 -57.645  1.00  0.00     0.082 C 
BRANCH   6   7
HETATM    7  C3  UNL     1      17.655 -15.510 -57.973  1.00  0.00    -0.056 A 
HETATM    8  C4  UNL     1      17.312 -16.097 -59.174  1.00  0.00     0.008 A 
HETATM    9  C5  UNL     1      17.648 -17.403 -59.478  1.00  0.00     0.019 A 
HETATM   10  C6  UNL     1      18.350 -18.173 -58.578  1.00  0.00     0.006 A 
HETATM   11  I1  UNL     1      18.857 -20.170 -59.059  1.00  0.00    -0.045 I 
HETATM   12  C7  UNL     1      18.700 -17.610 -57.380  1.00  0.00     0.019 A 
HETATM   13  C8  UNL     1      18.362 -16.306 -57.080  1.00  0.00     0.008 A 
ENDBRANCH   6   7
ENDBRANCH   1   6
BRANCH   1  14
HETATM   14  C9  UNL     1      16.557 -13.590 -55.411  1.00  0.00     0.204 C 
HETATM   15  O1  UNL     1      16.630 -14.407 -54.471  1.00  0.00    -0.646 OA
HETATM   16  O2  UNL     1      16.917 -12.278 -55.197  1.00  0.00    -0.646 OA
ENDBRANCH   1  14
TORSDOF 4
ENDMDL
