MODEL 2
REMARK VINA RESULT: -6.025311937      0.108      1.582
REMARK  4 active torsions:
REMARK  status: ('A' for Active; 'I' for Inactive)
REMARK    1  A    between atoms: N1_1  and  C1_5 
REMARK    2  A    between atoms: C1_5  and  C2_6 
REMARK    3  A    between atoms: C1_5  and  C9_14 
REMARK    4  A    between atoms: C2_6  and  C3_7 
ROOT
HETATM    1  C1  UNL     1      16.162 -14.060 -56.656  1.00  0.00     0.287 C 
ENDROOT
BRANCH   1   2
HETATM    2  N1  UNL     1      15.117 -13.244 -57.168  1.00  0.00    -0.065 N 
ATOM      3  H13 UNL     1      14.958 -13.448 -58.155  1.00  0.00     0.275 HD
ATOM      4  H12 UNL     1      14.218 -13.534 -56.783  1.00  0.00     0.275 HD
ATOM      5  H11 UNL     1      15.257 -12.243 -57.030  1.00  0.00     0.275 HD
ENDBRANCH   1   2
BRANCH   1   6
HETATM    6  C2  UNL     1      17.369 -14.162 -57.552  1.00  0.00     0.082 C 
BRANCH   6   7
HETATM    7  C3  UNL     1      17.712 -15.559 -57.900  1.00  0.00    -0.056 A 
HETATM    8  C4  UNL     1      18.419 -16.379 -57.045  1.00  0.00     0.008 A 
HETATM    9  C5  UNL     1      18.739 -17.684 -57.373  1.00  0.00     0.019 A 
HETATM   10  C6  UNL     1      18.355 -18.216 -58.582  1.00  0.00     0.006 A 
HETATM   11  I1  UNL     1      18.853 -20.214 -59.068  1.00  0.00    -0.045 I 
HETATM   12  C7  UNL     1      17.652 -17.419 -59.445  1.00  0.00     0.019 A 
HETATM   13  C8  UNL     1      17.336 -16.117 -59.115  1.00  0.00     0.008 A 
ENDBRANCH   6   7
ENDBRANCH   1   6
BRANCH   1  14
HETATM   14  C9  UNL     1      16.616 -13.575 -55.340  1.00  0.00     0.204 C 
HETATM   15  O1  UNL     1      16.980 -12.392 -55.184  1.00  0.00    -0.646 OA
HETATM   16  O2  UNL     1      16.639 -14.436 -54.265  1.00  0.00    -0.646 OA
ENDBRANCH   1  14
TORSDOF 4
ENDMDL
