MODEL 5
REMARK VINA RESULT: -5.702727889      1.948      2.612
REMARK  4 active torsions:
REMARK  status: ('A' for Active; 'I' for Inactive)
REMARK    1  A    between atoms: N1_1  and  C1_5 
REMARK    2  A    between atoms: C1_5  and  C2_6 
REMARK    3  A    between atoms: C1_5  and  C9_14 
REMARK    4  A    between atoms: C2_6  and  C3_7 
ROOT
HETATM    1  C1  UNL     1      16.685 -14.898 -57.579  1.00  0.00     0.287 C 
ENDROOT
BRANCH   1   2
HETATM    2  N1  UNL     1      15.579 -15.672 -57.136  1.00  0.00    -0.065 N 
ATOM      3  H13 UNL     1      15.440 -16.477 -57.747  1.00  0.00     0.275 HD
ATOM      4  H12 UNL     1      15.808 -16.153 -56.265  1.00  0.00     0.275 HD
ATOM      5  H11 UNL     1      14.710 -15.148 -57.035  1.00  0.00     0.275 HD
ENDBRANCH   1   2
BRANCH   1   6
HETATM    6  C2  UNL     1      17.464 -15.515 -58.712  1.00  0.00     0.082 C 
BRANCH   6   7
HETATM    7  C3  UNL     1      17.771 -16.946 -58.488  1.00  0.00    -0.056 A 
HETATM    8  C4  UNL     1      18.375 -17.398 -57.332  1.00  0.00     0.008 A 
HETATM    9  C5  UNL     1      18.662 -18.734 -57.126  1.00  0.00     0.019 A 
HETATM   10  C6  UNL     1      18.347 -19.674 -58.081  1.00  0.00     0.006 A 
HETATM   11  I1  UNL     1      18.792 -21.715 -57.749  1.00  0.00    -0.045 I 
HETATM   12  C7  UNL     1      17.747 -19.246 -59.235  1.00  0.00     0.019 A 
HETATM   13  C8  UNL     1      17.464 -17.911 -59.438  1.00  0.00     0.008 A 
ENDBRANCH   6   7
ENDBRANCH   1   6
BRANCH   1  14
HETATM   14  C9  UNL     1      16.253 -13.555 -58.007  1.00  0.00     0.204 C 
HETATM   15  O1  UNL     1      17.005 -12.825 -58.684  1.00  0.00    -0.646 OA
HETATM   16  O2  UNL     1      15.003 -13.096 -57.656  1.00  0.00    -0.646 OA
ENDBRANCH   1  14
TORSDOF 4
ENDMDL
