MODEL 9
REMARK VINA RESULT: -5.462623894      4.341      5.725
REMARK  4 active torsions:
REMARK  status: ('A' for Active; 'I' for Inactive)
REMARK    1  A    between atoms: N1_1  and  C1_5 
REMARK    2  A    between atoms: C1_5  and  C2_6 
REMARK    3  A    between atoms: C1_5  and  C9_14 
REMARK    4  A    between atoms: C2_6  and  C3_7 
ROOT
HETATM    1  C1  UNL     1      18.580 -20.260 -59.074  1.00  0.00     0.287 C 
ENDROOT
BRANCH   1   2
HETATM    2  N1  UNL     1      17.280 -19.894 -59.515  1.00  0.00    -0.065 N 
ATOM      3  H13 UNL     1      16.582 -20.150 -58.816  1.00  0.00     0.275 HD
ATOM      4  H12 UNL     1      17.173 -18.880 -59.505  1.00  0.00     0.275 HD
ATOM      5  H11 UNL     1      17.023 -20.270 -60.429  1.00  0.00     0.275 HD
ENDBRANCH   1   2
BRANCH   1   6
HETATM    6  C2  UNL     1      19.502 -19.096 -58.819  1.00  0.00     0.082 C 
BRANCH   6   7
HETATM    7  C3  UNL     1      18.776 -17.839 -58.527  1.00  0.00    -0.056 A 
HETATM    8  C4  UNL     1      17.995 -17.203 -59.470  1.00  0.00     0.008 A 
HETATM    9  C5  UNL     1      17.318 -16.029 -59.194  1.00  0.00     0.019 A 
HETATM   10  C6  UNL     1      17.402 -15.448 -57.950  1.00  0.00     0.006 A 
HETATM   11  I1  UNL     1      16.361 -13.652 -57.544  1.00  0.00    -0.045 I 
HETATM   12  C7  UNL     1      18.173 -16.063 -57.000  1.00  0.00     0.019 A 
HETATM   13  C8  UNL     1      18.847 -17.234 -57.278  1.00  0.00     0.008 A 
ENDBRANCH   6   7
ENDBRANCH   1   6
BRANCH   1  14
HETATM   14  C9  UNL     1      18.513 -21.062 -57.838  1.00  0.00     0.204 C 
HETATM   15  O1  UNL     1      18.828 -22.269 -57.840  1.00  0.00    -0.646 OA
HETATM   16  O2  UNL     1      18.098 -20.473 -56.664  1.00  0.00    -0.646 OA
ENDBRANCH   1  14
TORSDOF 4
ENDMDL
