MODEL 1
REMARK VINA RESULT: -10.727746834      0.000      0.000
REMARK  7 active torsions:
REMARK  status: ('A' for Active; 'I' for Inactive)
REMARK    1  A    between atoms: O1_2  and  C2_3 
REMARK    2  A    between atoms: C5_6  and  C6_7 
REMARK    3  A    between atoms: C7_8  and  S1_9 
REMARK    4  A    between atoms: C11_15  and  C12_16 
REMARK    5  A    between atoms: C12_16  and  C13_18 
REMARK    6  A    between atoms: N2_22  and  C15_23 
REMARK    7  A    between atoms: C19_27  and  O5_28 
ROOT
HETATM    1  C6  UNL     1      42.455  38.902  53.103  1.00  0.00     0.003 A 
HETATM    2  C7  UNL     1      42.554  39.831  54.106  1.00  0.00     0.070 A 
HETATM    3  C9  UNL     1      43.820  40.341  54.439  1.00  0.00     0.025 A 
HETATM    4  C10 UNL     1      44.952  39.919  53.775  1.00  0.00     0.017 A 
HETATM    5  C11 UNL     1      44.855  38.984  52.765  1.00  0.00     0.022 A 
HETATM    6  C20 UNL     1      43.616  38.506  52.463  1.00  0.00    -0.035 A 
HETATM    7  C21 UNL     1      43.452  37.489  51.394  1.00  0.00     0.050 C 
ENDROOT
BRANCH   5   8
HETATM    8  C12 UNL     1      46.075  38.579  52.085  1.00  0.00     0.198 C 
HETATM    9  O4  UNL     1      46.280  39.198  50.976  1.00  0.00    -0.286 OA
BRANCH   8  10
HETATM   10  C13 UNL     1      46.999  37.591  52.551  1.00  0.00     0.084 A 
HETATM   11  C14 UNL     1      47.068  37.059  53.811  1.00  0.00     0.127 A 
HETATM   12  N1  UNL     1      48.072  36.163  53.804  1.00  0.00    -0.306 N 
HETATM   13  N2  UNL     1      48.649  36.089  52.619  1.00  0.00    -0.262 N 
ATOM     14  H1  UNL     1      48.351  35.609  54.613  1.00  0.00     0.186 HD
HETATM   15  C19 UNL     1      47.993  36.970  51.835  1.00  0.00     0.173 A 
BRANCH  13  16
HETATM   16  C15 UNL     1      49.763  35.220  52.281  1.00  0.00     0.045 C 
HETATM   17  C16 UNL     1      49.251  34.010  51.544  1.00  0.00     0.039 C 
HETATM   18  C17 UNL     1      50.471  34.827  53.562  1.00  0.00     0.039 C 
HETATM   19  C18 UNL     1      50.778  35.949  51.419  1.00  0.00     0.039 C 
ENDBRANCH  13  16
BRANCH  15  20
HETATM   20  O5  UNL     1      48.297  37.200  50.492  1.00  0.00    -0.344 OA
ATOM     21  H5  UNL     1      49.087  37.613  50.165  1.00  0.00     0.219 HD
ENDBRANCH  15  20
ENDBRANCH   8  10
ENDBRANCH   5   8
BRANCH   1  22
HETATM   22  C5  UNL     1      41.164  38.347  52.729  1.00  0.00    -0.024 A 
HETATM   23  C4  UNL     1      40.705  37.188  53.325  1.00  0.00     0.015 A 
HETATM   24  C3  UNL     1      39.487  36.618  53.006  1.00  0.00     0.037 A 
HETATM   25  C2  UNL     1      38.694  37.232  52.049  1.00  0.00     0.068 A 
HETATM   26  C23 UNL     1      39.173  38.393  51.464  1.00  0.00     0.037 A 
HETATM   27  C22 UNL     1      40.385  38.959  51.784  1.00  0.00     0.015 A 
BRANCH  25  28
HETATM   28  O1  UNL     1      37.462  36.710  51.685  1.00  0.00    -0.356 OA
HETATM   29  C1  UNL     1      37.126  36.409  50.347  1.00  0.00     0.210 C 
ENDBRANCH  25  28
ENDBRANCH   1  22
BRANCH   2  30
HETATM   30  S1  UNL     1      41.165  40.414  54.984  1.00  0.00     0.172 S 
HETATM   31  C8  UNL     1      40.318  39.163  55.881  1.00  0.00     0.167 C 
HETATM   32  O2  UNL     1      40.222  41.159  54.049  1.00  0.00    -0.223 OA
HETATM   33  O3  UNL     1      41.599  41.459  55.994  1.00  0.00    -0.223 OA
ENDBRANCH   2  30
TORSDOF 7
ENDMDL
