MODEL 13
REMARK VINA RESULT: -7.861295813      6.161      8.044
REMARK  7 active torsions:
REMARK  status: ('A' for Active; 'I' for Inactive)
REMARK    1  A    between atoms: O1_2  and  C2_3 
REMARK    2  A    between atoms: C5_6  and  C6_7 
REMARK    3  A    between atoms: C7_8  and  S1_9 
REMARK    4  A    between atoms: C11_15  and  C12_16 
REMARK    5  A    between atoms: C12_16  and  C13_18 
REMARK    6  A    between atoms: N2_22  and  C15_23 
REMARK    7  A    between atoms: C19_27  and  O5_28 
ROOT
HETATM    1  C6  UNL     1      39.321  38.967  54.607  1.00  0.00     0.003 A 
HETATM    2  C7  UNL     1      39.365  38.468  55.883  1.00  0.00     0.070 A 
HETATM    3  C9  UNL     1      39.579  37.092  56.070  1.00  0.00     0.025 A 
HETATM    4  C10 UNL     1      39.743  36.248  54.992  1.00  0.00     0.017 A 
HETATM    5  C11 UNL     1      39.700  36.747  53.707  1.00  0.00     0.022 A 
HETATM    6  C20 UNL     1      39.490  38.084  53.556  1.00  0.00    -0.035 A 
HETATM    7  C21 UNL     1      39.421  38.676  52.195  1.00  0.00     0.050 C 
ENDROOT
BRANCH   5   8
HETATM    8  C12 UNL     1      39.891  35.819  52.603  1.00  0.00     0.198 C 
HETATM    9  O4  UNL     1      41.105  35.421  52.465  1.00  0.00    -0.286 OA
BRANCH   8  10
HETATM   10  C13 UNL     1      38.866  35.357  51.718  1.00  0.00     0.084 A 
HETATM   11  C14 UNL     1      37.904  36.116  51.107  1.00  0.00     0.127 A 
HETATM   12  N1  UNL     1      37.162  35.280  50.358  1.00  0.00    -0.306 N 
HETATM   13  N2  UNL     1      37.589  34.034  50.452  1.00  0.00    -0.262 N 
ATOM     14  H1  UNL     1      36.368  35.572  49.788  1.00  0.00     0.186 HD
HETATM   15  C19 UNL     1      38.644  34.070  51.292  1.00  0.00     0.173 A 
BRANCH  13  16
HETATM   16  C15 UNL     1      37.005  32.893  49.770  1.00  0.00     0.045 C 
HETATM   17  C16 UNL     1      38.096  32.079  49.125  1.00  0.00     0.039 C 
HETATM   18  C17 UNL     1      36.016  33.403  48.741  1.00  0.00     0.039 C 
HETATM   19  C18 UNL     1      36.225  32.022  50.739  1.00  0.00     0.039 C 
ENDBRANCH  13  16
BRANCH  15  20
HETATM   20  O5  UNL     1      39.390  32.950  51.662  1.00  0.00    -0.344 OA
ATOM     21  H5  UNL     1      40.271  32.748  51.370  1.00  0.00     0.219 HD
ENDBRANCH  15  20
ENDBRANCH   8  10
ENDBRANCH   5   8
BRANCH   1  22
HETATM   22  C5  UNL     1      39.098  40.384  54.370  1.00  0.00    -0.024 A 
HETATM   23  C4  UNL     1      37.812  40.882  54.285  1.00  0.00     0.015 A 
HETATM   24  C3  UNL     1      37.545  42.220  54.060  1.00  0.00     0.037 A 
HETATM   25  C2  UNL     1      38.608  43.097  53.913  1.00  0.00     0.068 A 
HETATM   26  C23 UNL     1      39.890  42.576  54.002  1.00  0.00     0.037 A 
HETATM   27  C22 UNL     1      40.153  41.245  54.226  1.00  0.00     0.015 A 
BRANCH  25  28
HETATM   28  O1  UNL     1      38.406  44.450  53.686  1.00  0.00    -0.356 OA
HETATM   29  C1  UNL     1      37.497  45.222  54.441  1.00  0.00     0.210 C 
ENDBRANCH  25  28
ENDBRANCH   1  22
BRANCH   2  30
HETATM   30  S1  UNL     1      39.170  39.479  57.291  1.00  0.00     0.172 S 
HETATM   31  C8  UNL     1      37.553  40.142  57.469  1.00  0.00     0.167 C 
HETATM   32  O2  UNL     1      40.224  40.578  57.302  1.00  0.00    -0.223 OA
HETATM   33  O3  UNL     1      39.453  38.671  58.543  1.00  0.00    -0.223 OA
ENDBRANCH   2  30
TORSDOF 7
ENDMDL
