MODEL 3
REMARK VINA RESULT: -9.189677978      1.191      1.410
REMARK  7 active torsions:
REMARK  status: ('A' for Active; 'I' for Inactive)
REMARK    1  A    between atoms: O1_2  and  C2_3 
REMARK    2  A    between atoms: C5_6  and  C6_7 
REMARK    3  A    between atoms: C7_8  and  S1_9 
REMARK    4  A    between atoms: C11_15  and  C12_16 
REMARK    5  A    between atoms: C12_16  and  C13_18 
REMARK    6  A    between atoms: N2_22  and  C15_23 
REMARK    7  A    between atoms: C19_27  and  O5_28 
ROOT
HETATM    1  C6  UNL     1      42.034  38.830  53.707  1.00  0.00     0.003 A 
HETATM    2  C7  UNL     1      42.300  39.844  54.590  1.00  0.00     0.070 A 
HETATM    3  C9  UNL     1      43.591  40.399  54.621  1.00  0.00     0.025 A 
HETATM    4  C10 UNL     1      44.581  39.938  53.779  1.00  0.00     0.017 A 
HETATM    5  C11 UNL     1      44.314  38.918  52.889  1.00  0.00     0.022 A 
HETATM    6  C20 UNL     1      43.056  38.398  52.882  1.00  0.00    -0.035 A 
HETATM    7  C21 UNL     1      42.716  37.290  51.953  1.00  0.00     0.050 C 
ENDROOT
BRANCH   5   8
HETATM    8  C12 UNL     1      45.388  38.473  52.013  1.00  0.00     0.198 C 
HETATM    9  O4  UNL     1      45.496  39.165  50.935  1.00  0.00    -0.286 OA
BRANCH   8  10
HETATM   10  C13 UNL     1      46.272  37.378  52.270  1.00  0.00     0.084 A 
HETATM   11  C14 UNL     1      45.967  36.209  52.915  1.00  0.00     0.127 A 
HETATM   12  N1  UNL     1      47.086  35.462  52.923  1.00  0.00    -0.306 N 
HETATM   13  N2  UNL     1      48.087  36.080  52.324  1.00  0.00    -0.262 N 
ATOM     14  H1  UNL     1      47.152  34.534  53.340  1.00  0.00     0.186 HD
HETATM   15  C19 UNL     1      47.594  37.267  51.916  1.00  0.00     0.173 A 
BRANCH  13  16
HETATM   16  C15 UNL     1      49.428  35.545  52.165  1.00  0.00     0.045 C 
HETATM   17  C16 UNL     1      50.044  36.096  50.905  1.00  0.00     0.039 C 
HETATM   18  C17 UNL     1      49.340  34.033  52.121  1.00  0.00     0.039 C 
HETATM   19  C18 UNL     1      50.299  35.903  53.356  1.00  0.00     0.039 C 
ENDBRANCH  13  16
BRANCH  15  20
HETATM   20  O5  UNL     1      48.338  38.231  51.232  1.00  0.00    -0.344 OA
ATOM     21  H5  UNL     1      49.014  38.056  50.589  1.00  0.00     0.219 HD
ENDBRANCH  15  20
ENDBRANCH   8  10
ENDBRANCH   5   8
BRANCH   1  22
HETATM   22  C5  UNL     1      40.712  38.226  53.646  1.00  0.00    -0.024 A 
HETATM   23  C4  UNL     1      40.452  37.051  54.323  1.00  0.00     0.015 A 
HETATM   24  C3  UNL     1      39.215  36.434  54.297  1.00  0.00     0.037 A 
HETATM   25  C2  UNL     1      38.194  37.018  53.562  1.00  0.00     0.068 A 
HETATM   26  C23 UNL     1      38.477  38.196  52.890  1.00  0.00     0.037 A 
HETATM   27  C22 UNL     1      39.709  38.808  52.918  1.00  0.00     0.015 A 
BRANCH  25  28
HETATM   28  O1  UNL     1      36.931  36.449  53.497  1.00  0.00    -0.356 OA
HETATM   29  C1  UNL     1      36.130  36.238  54.640  1.00  0.00     0.210 C 
ENDBRANCH  25  28
ENDBRANCH   1  22
BRANCH   2  30
HETATM   30  S1  UNL     1      41.095  40.480  55.679  1.00  0.00     0.172 S 
HETATM   31  C8  UNL     1      40.353  39.261  56.703  1.00  0.00     0.167 C 
HETATM   32  O2  UNL     1      40.046  41.266  54.905  1.00  0.00    -0.223 OA
HETATM   33  O3  UNL     1      41.729  41.502  56.602  1.00  0.00    -0.223 OA
ENDBRANCH   2  30
TORSDOF 7
ENDMDL
