MODEL 2
REMARK VINA RESULT: -9.301938525      0.937      1.166
REMARK  7 active torsions:
REMARK  status: ('A' for Active; 'I' for Inactive)
REMARK    1  A    between atoms: O1_2  and  C2_3 
REMARK    2  A    between atoms: C5_6  and  C6_7 
REMARK    3  A    between atoms: C7_8  and  S1_9 
REMARK    4  A    between atoms: C11_15  and  C12_16 
REMARK    5  A    between atoms: C12_16  and  C13_18 
REMARK    6  A    between atoms: N2_22  and  C15_23 
REMARK    7  A    between atoms: C19_27  and  O5_28 
ROOT
HETATM    1  C6  UNL     1      41.966  38.234  53.204  1.00  0.00     0.003 A 
HETATM    2  C7  UNL     1      41.980  39.289  54.079  1.00  0.00     0.070 A 
HETATM    3  C9  UNL     1      43.167  40.023  54.243  1.00  0.00     0.025 A 
HETATM    4  C10 UNL     1      44.306  39.694  53.540  1.00  0.00     0.017 A 
HETATM    5  C11 UNL     1      44.295  38.632  52.659  1.00  0.00     0.022 A 
HETATM    6  C20 UNL     1      43.131  37.939  52.520  1.00  0.00    -0.035 A 
HETATM    7  C21 UNL     1      43.063  36.779  51.595  1.00  0.00     0.050 C 
ENDROOT
BRANCH   5   8
HETATM    8  C12 UNL     1      45.517  38.332  51.930  1.00  0.00     0.198 C 
HETATM    9  O4  UNL     1      45.700  39.073  50.896  1.00  0.00    -0.286 OA
BRANCH   8  10
HETATM   10  C13 UNL     1      46.466  37.319  52.280  1.00  0.00     0.084 A 
HETATM   11  C14 UNL     1      46.267  36.263  53.128  1.00  0.00     0.127 A 
HETATM   12  N1  UNL     1      47.414  35.560  53.157  1.00  0.00    -0.306 N 
HETATM   13  N2  UNL     1      48.335  36.102  52.380  1.00  0.00    -0.262 N 
ATOM     14  H1  UNL     1      47.555  34.715  53.709  1.00  0.00     0.186 HD
HETATM   15  C19 UNL     1      47.759  37.192  51.832  1.00  0.00     0.173 A 
BRANCH  13  16
HETATM   16  C15 UNL     1      49.680  35.588  52.191  1.00  0.00     0.045 C 
HETATM   17  C16 UNL     1      50.256  36.142  50.913  1.00  0.00     0.039 C 
HETATM   18  C17 UNL     1      49.616  34.074  52.157  1.00  0.00     0.039 C 
HETATM   19  C18 UNL     1      50.574  35.967  53.358  1.00  0.00     0.039 C 
ENDBRANCH  13  16
BRANCH  15  20
HETATM   20  O5  UNL     1      48.401  38.052  50.941  1.00  0.00    -0.344 OA
ATOM     21  H5  UNL     1      49.318  38.014  50.696  1.00  0.00     0.219 HD
ENDBRANCH  15  20
ENDBRANCH   8  10
ENDBRANCH   5   8
BRANCH   1  22
HETATM   22  C5  UNL     1      40.758  37.448  53.007  1.00  0.00    -0.024 A 
HETATM   23  C4  UNL     1      40.615  36.224  53.633  1.00  0.00     0.015 A 
HETATM   24  C3  UNL     1      39.490  35.436  53.479  1.00  0.00     0.037 A 
HETATM   25  C2  UNL     1      38.464  35.890  52.664  1.00  0.00     0.068 A 
HETATM   26  C23 UNL     1      38.628  37.121  52.047  1.00  0.00     0.037 A 
HETATM   27  C22 UNL     1      39.749  37.903  52.202  1.00  0.00     0.015 A 
BRANCH  25  28
HETATM   28  O1  UNL     1      37.309  35.147  52.470  1.00  0.00    -0.356 OA
HETATM   29  C1  UNL     1      36.776  34.889  51.189  1.00  0.00     0.210 C 
ENDBRANCH  25  28
ENDBRANCH   1  22
BRANCH   2  30
HETATM   30  S1  UNL     1      40.575  39.765  54.997  1.00  0.00     0.172 S 
HETATM   31  C8  UNL     1      39.972  38.511  56.069  1.00  0.00     0.167 C 
HETATM   32  O2  UNL     1      39.481  40.269  54.065  1.00  0.00    -0.223 OA
HETATM   33  O3  UNL     1      40.912  40.960  55.866  1.00  0.00    -0.223 OA
ENDBRANCH   2  30
TORSDOF 7
ENDMDL
