MODEL 10
REMARK VINA RESULT: -8.070704399      3.786      8.596
REMARK  7 active torsions:
REMARK  status: ('A' for Active; 'I' for Inactive)
REMARK    1  A    between atoms: O1_2  and  C2_3 
REMARK    2  A    between atoms: C5_6  and  C6_7 
REMARK    3  A    between atoms: C7_8  and  S1_9 
REMARK    4  A    between atoms: C11_15  and  C12_16 
REMARK    5  A    between atoms: C12_16  and  C13_18 
REMARK    6  A    between atoms: N2_22  and  C15_23 
REMARK    7  A    between atoms: C19_27  and  O5_28 
ROOT
HETATM    1  C6  UNL     1      44.223  36.366  52.893  1.00  0.00     0.003 A 
HETATM    2  C7  UNL     1      44.072  37.726  52.831  1.00  0.00     0.070 A 
HETATM    3  C9  UNL     1      42.781  38.273  52.922  1.00  0.00     0.025 A 
HETATM    4  C10 UNL     1      41.676  37.462  53.072  1.00  0.00     0.017 A 
HETATM    5  C11 UNL     1      41.826  36.092  53.135  1.00  0.00     0.022 A 
HETATM    6  C20 UNL     1      43.089  35.589  53.043  1.00  0.00    -0.035 A 
HETATM    7  C21 UNL     1      43.309  34.121  53.093  1.00  0.00     0.050 C 
ENDROOT
BRANCH   5   8
HETATM    8  C12 UNL     1      40.633  35.278  53.305  1.00  0.00     0.198 C 
HETATM    9  O4  UNL     1      40.576  34.672  54.438  1.00  0.00    -0.286 OA
BRANCH   8  10
HETATM   10  C13 UNL     1      39.586  35.123  52.342  1.00  0.00     0.084 A 
HETATM   11  C14 UNL     1      38.829  36.119  51.784  1.00  0.00     0.127 A 
HETATM   12  N1  UNL     1      37.977  35.529  50.926  1.00  0.00    -0.306 N 
HETATM   13  N2  UNL     1      38.140  34.218  50.902  1.00  0.00    -0.262 N 
ATOM     14  H1  UNL     1      37.290  36.031  50.364  1.00  0.00     0.186 HD
HETATM   15  C19 UNL     1      39.134  33.957  51.775  1.00  0.00     0.173 A 
BRANCH  13  16
HETATM   16  C15 UNL     1      37.377  33.293  50.083  1.00  0.00     0.045 C 
HETATM   17  C16 UNL     1      38.321  32.410  49.309  1.00  0.00     0.039 C 
HETATM   18  C17 UNL     1      36.485  34.095  49.156  1.00  0.00     0.039 C 
HETATM   19  C18 UNL     1      36.465  32.435  50.941  1.00  0.00     0.039 C 
ENDBRANCH  13  16
BRANCH  15  20
HETATM   20  O5  UNL     1      39.619  32.677  52.048  1.00  0.00    -0.344 OA
ATOM     21  H5  UNL     1      40.535  32.428  52.095  1.00  0.00     0.219 HD
ENDBRANCH  15  20
ENDBRANCH   8  10
ENDBRANCH   5   8
BRANCH   1  22
HETATM   22  C5  UNL     1      45.542  35.759  52.800  1.00  0.00    -0.024 A 
HETATM   23  C4  UNL     1      46.257  35.471  53.946  1.00  0.00     0.015 A 
HETATM   24  C3  UNL     1      47.515  34.897  53.915  1.00  0.00     0.037 A 
HETATM   25  C2  UNL     1      48.081  34.599  52.685  1.00  0.00     0.068 A 
HETATM   26  C23 UNL     1      47.346  34.896  51.549  1.00  0.00     0.037 A 
HETATM   27  C22 UNL     1      46.095  35.467  51.583  1.00  0.00     0.015 A 
BRANCH  25  28
HETATM   28  O1  UNL     1      49.338  34.021  52.587  1.00  0.00    -0.356 OA
HETATM   29  C1  UNL     1      50.524  34.720  52.899  1.00  0.00     0.210 C 
ENDBRANCH  25  28
ENDBRANCH   1  22
BRANCH   2  30
HETATM   30  S1  UNL     1      45.424  38.813  52.648  1.00  0.00     0.172 S 
HETATM   31  C8  UNL     1      45.137  40.417  53.303  1.00  0.00     0.167 C 
HETATM   32  O2  UNL     1      45.855  38.879  51.189  1.00  0.00    -0.223 OA
HETATM   33  O3  UNL     1      46.632  38.252  53.374  1.00  0.00    -0.223 OA
ENDBRANCH   2  30
TORSDOF 7
ENDMDL
