MODEL 6
REMARK VINA RESULT: -8.383294652      5.186      7.902
REMARK  7 active torsions:
REMARK  status: ('A' for Active; 'I' for Inactive)
REMARK    1  A    between atoms: O1_2  and  C2_3 
REMARK    2  A    between atoms: C5_6  and  C6_7 
REMARK    3  A    between atoms: C7_8  and  S1_9 
REMARK    4  A    between atoms: C11_15  and  C12_16 
REMARK    5  A    between atoms: C12_16  and  C13_18 
REMARK    6  A    between atoms: N2_22  and  C15_23 
REMARK    7  A    between atoms: C19_27  and  O5_28 
ROOT
HETATM    1  C6  UNL     1      40.364  38.530  55.047  1.00  0.00     0.003 A 
HETATM    2  C7  UNL     1      41.406  39.218  54.482  1.00  0.00     0.070 A 
HETATM    3  C9  UNL     1      42.094  38.644  53.400  1.00  0.00     0.025 A 
HETATM    4  C10 UNL     1      41.735  37.407  52.907  1.00  0.00     0.017 A 
HETATM    5  C11 UNL     1      40.686  36.713  53.474  1.00  0.00     0.022 A 
HETATM    6  C20 UNL     1      40.038  37.293  54.522  1.00  0.00    -0.035 A 
HETATM    7  C21 UNL     1      38.909  36.586  55.180  1.00  0.00     0.050 C 
ENDROOT
BRANCH   5   8
HETATM    8  C12 UNL     1      40.337  35.418  52.912  1.00  0.00     0.198 C 
HETATM    9  O4  UNL     1      41.111  34.463  53.289  1.00  0.00    -0.286 OA
BRANCH   8  10
HETATM   10  C13 UNL     1      39.248  35.165  52.018  1.00  0.00     0.084 A 
HETATM   11  C14 UNL     1      38.404  36.092  51.467  1.00  0.00     0.127 A 
HETATM   12  N1  UNL     1      37.541  35.420  50.684  1.00  0.00    -0.306 N 
HETATM   13  N2  UNL     1      37.780  34.121  50.700  1.00  0.00    -0.262 N 
ATOM     14  H1  UNL     1      36.795  35.859  50.144  1.00  0.00     0.186 HD
HETATM   15  C19 UNL     1      38.835  33.952  51.523  1.00  0.00     0.173 A 
BRANCH  13  16
HETATM   16  C15 UNL     1      37.027  33.121  49.963  1.00  0.00     0.045 C 
HETATM   17  C16 UNL     1      36.210  32.297  50.923  1.00  0.00     0.039 C 
HETATM   18  C17 UNL     1      38.004  32.259  49.189  1.00  0.00     0.039 C 
HETATM   19  C18 UNL     1      36.110  33.774  48.945  1.00  0.00     0.039 C 
ENDBRANCH  13  16
BRANCH  15  20
HETATM   20  O5  UNL     1      39.409  32.714  51.816  1.00  0.00    -0.344 OA
ATOM     21  H5  UNL     1      38.964  31.875  51.785  1.00  0.00     0.219 HD
ENDBRANCH  15  20
ENDBRANCH   8  10
ENDBRANCH   5   8
BRANCH   1  22
HETATM   22  C5  UNL     1      39.628  39.088  56.171  1.00  0.00    -0.024 A 
HETATM   23  C4  UNL     1      40.067  38.878  57.464  1.00  0.00     0.015 A 
HETATM   24  C3  UNL     1      39.405  39.383  58.567  1.00  0.00     0.037 A 
HETATM   25  C2  UNL     1      38.253  40.130  58.369  1.00  0.00     0.068 A 
HETATM   26  C23 UNL     1      37.831  40.328  57.064  1.00  0.00     0.037 A 
HETATM   27  C22 UNL     1      38.492  39.824  55.968  1.00  0.00     0.015 A 
BRANCH  25  28
HETATM   28  O1  UNL     1      37.544  40.665  59.433  1.00  0.00    -0.356 OA
HETATM   29  C1  UNL     1      36.479  41.575  59.260  1.00  0.00     0.210 C 
ENDBRANCH  25  28
ENDBRANCH   1  22
BRANCH   2  30
HETATM   30  S1  UNL     1      41.910  40.788  55.050  1.00  0.00     0.172 S 
HETATM   31  C8  UNL     1      40.759  42.069  54.707  1.00  0.00     0.167 C 
HETATM   32  O2  UNL     1      43.292  41.127  54.508  1.00  0.00    -0.223 OA
HETATM   33  O3  UNL     1      42.093  40.753  56.555  1.00  0.00    -0.223 OA
ENDBRANCH   2  30
TORSDOF 7
ENDMDL
