MODEL 4
REMARK VINA RESULT: -8.737810843      1.174      1.515
REMARK  7 active torsions:
REMARK  status: ('A' for Active; 'I' for Inactive)
REMARK    1  A    between atoms: O1_2  and  C2_3 
REMARK    2  A    between atoms: C5_6  and  C6_7 
REMARK    3  A    between atoms: C7_8  and  S1_9 
REMARK    4  A    between atoms: C11_15  and  C12_16 
REMARK    5  A    between atoms: C12_16  and  C13_18 
REMARK    6  A    between atoms: N2_22  and  C15_23 
REMARK    7  A    between atoms: C19_27  and  O5_28 
ROOT
HETATM    1  C6  UNL     1      42.434  38.776  53.075  1.00  0.00     0.003 A 
HETATM    2  C7  UNL     1      42.546  39.636  54.136  1.00  0.00     0.070 A 
HETATM    3  C9  UNL     1      43.812  40.143  54.472  1.00  0.00     0.025 A 
HETATM    4  C10 UNL     1      44.932  39.788  53.750  1.00  0.00     0.017 A 
HETATM    5  C11 UNL     1      44.822  38.924  52.680  1.00  0.00     0.022 A 
HETATM    6  C20 UNL     1      43.583  38.446  52.379  1.00  0.00    -0.035 A 
HETATM    7  C21 UNL     1      43.406  37.503  51.245  1.00  0.00     0.050 C 
ENDROOT
BRANCH   5   8
HETATM    8  C12 UNL     1      46.030  38.588  51.942  1.00  0.00     0.198 C 
HETATM    9  O4  UNL     1      46.362  39.468  51.065  1.00  0.00    -0.286 OA
BRANCH   8  10
HETATM   10  C13 UNL     1      46.816  37.407  52.125  1.00  0.00     0.084 A 
HETATM   11  C14 UNL     1      46.729  36.242  51.409  1.00  0.00     0.127 A 
HETATM   12  N1  UNL     1      47.658  35.405  51.907  1.00  0.00    -0.306 N 
HETATM   13  N2  UNL     1      48.332  35.961  52.897  1.00  0.00    -0.262 N 
ATOM     14  H1  UNL     1      47.821  34.460  51.563  1.00  0.00     0.186 HD
HETATM   15  C19 UNL     1      47.819  37.201  53.041  1.00  0.00     0.173 A 
BRANCH  13  16
HETATM   16  C15 UNL     1      49.399  35.323  53.647  1.00  0.00     0.045 C 
HETATM   17  C16 UNL     1      48.969  35.142  55.080  1.00  0.00     0.039 C 
HETATM   18  C17 UNL     1      50.639  36.189  53.549  1.00  0.00     0.039 C 
HETATM   19  C18 UNL     1      49.752  33.974  53.047  1.00  0.00     0.039 C 
ENDBRANCH  13  16
BRANCH  15  20
HETATM   20  O5  UNL     1      48.258  38.125  53.989  1.00  0.00    -0.344 OA
ATOM     21  H5  UNL     1      49.151  38.219  54.300  1.00  0.00     0.219 HD
ENDBRANCH  15  20
ENDBRANCH   8  10
ENDBRANCH   5   8
BRANCH   1  22
HETATM   22  C5  UNL     1      41.142  38.226  52.696  1.00  0.00    -0.024 A 
HETATM   23  C4  UNL     1      40.721  37.017  53.216  1.00  0.00     0.015 A 
HETATM   24  C3  UNL     1      39.504  36.449  52.889  1.00  0.00     0.037 A 
HETATM   25  C2  UNL     1      38.672  37.118  52.004  1.00  0.00     0.068 A 
HETATM   26  C23 UNL     1      39.114  38.329  51.495  1.00  0.00     0.037 A 
HETATM   27  C22 UNL     1      40.326  38.892  51.823  1.00  0.00     0.015 A 
BRANCH  25  28
HETATM   28  O1  UNL     1      37.439  36.601  51.637  1.00  0.00    -0.356 OA
HETATM   29  C1  UNL     1      37.203  36.017  50.374  1.00  0.00     0.210 C 
ENDBRANCH  25  28
ENDBRANCH   1  22
BRANCH   2  30
HETATM   30  S1  UNL     1      41.172  40.131  55.089  1.00  0.00     0.172 S 
HETATM   31  C8  UNL     1      41.579  41.225  56.403  1.00  0.00     0.167 C 
HETATM   32  O2  UNL     1      40.414  38.913  55.598  1.00  0.00    -0.223 OA
HETATM   33  O3  UNL     1      40.173  40.857  54.208  1.00  0.00    -0.223 OA
ENDBRANCH   2  30
TORSDOF 7
ENDMDL
