MODEL 7
REMARK VINA RESULT: -8.256963971      1.036      1.593
REMARK  7 active torsions:
REMARK  status: ('A' for Active; 'I' for Inactive)
REMARK    1  A    between atoms: O1_2  and  C2_3 
REMARK    2  A    between atoms: C5_6  and  C6_7 
REMARK    3  A    between atoms: C7_8  and  S1_9 
REMARK    4  A    between atoms: C11_15  and  C12_16 
REMARK    5  A    between atoms: C12_16  and  C13_18 
REMARK    6  A    between atoms: N2_22  and  C15_23 
REMARK    7  A    between atoms: C19_27  and  O5_28 
ROOT
HETATM    1  C6  UNL     1      42.315  38.691  53.108  1.00  0.00     0.003 A 
HETATM    2  C7  UNL     1      42.461  39.600  54.124  1.00  0.00     0.070 A 
HETATM    3  C9  UNL     1      43.741  40.105  54.408  1.00  0.00     0.025 A 
HETATM    4  C10 UNL     1      44.840  39.697  53.683  1.00  0.00     0.017 A 
HETATM    5  C11 UNL     1      44.696  38.783  52.660  1.00  0.00     0.022 A 
HETATM    6  C20 UNL     1      43.444  38.310  52.407  1.00  0.00    -0.035 A 
HETATM    7  C21 UNL     1      43.231  37.315  51.326  1.00  0.00     0.050 C 
ENDROOT
BRANCH   5   8
HETATM    8  C12 UNL     1      45.883  38.393  51.915  1.00  0.00     0.198 C 
HETATM    9  O4  UNL     1      46.230  39.240  51.012  1.00  0.00    -0.286 OA
BRANCH   8  10
HETATM   10  C13 UNL     1      46.637  37.194  52.118  1.00  0.00     0.084 A 
HETATM   11  C14 UNL     1      46.311  35.935  51.689  1.00  0.00     0.127 A 
HETATM   12  N1  UNL     1      47.301  35.115  52.088  1.00  0.00    -0.306 N 
HETATM   13  N2  UNL     1      48.239  35.771  52.747  1.00  0.00    -0.262 N 
ATOM     14  H1  UNL     1      47.324  34.113  51.904  1.00  0.00     0.186 HD
HETATM   15  C19 UNL     1      47.837  37.059  52.772  1.00  0.00     0.173 A 
BRANCH  13  16
HETATM   16  C15 UNL     1      49.438  35.178  53.310  1.00  0.00     0.045 C 
HETATM   17  C16 UNL     1      50.623  36.062  53.017  1.00  0.00     0.039 C 
HETATM   18  C17 UNL     1      49.618  33.797  52.712  1.00  0.00     0.039 C 
HETATM   19  C18 UNL     1      49.299  34.995  54.811  1.00  0.00     0.039 C 
ENDBRANCH  13  16
BRANCH  15  20
HETATM   20  O5  UNL     1      48.555  38.091  53.379  1.00  0.00    -0.344 OA
ATOM     21  H5  UNL     1      49.417  38.012  53.770  1.00  0.00     0.219 HD
ENDBRANCH  15  20
ENDBRANCH   8  10
ENDBRANCH   5   8
BRANCH   1  22
HETATM   22  C5  UNL     1      41.007  38.143  52.784  1.00  0.00    -0.024 A 
HETATM   23  C4  UNL     1      40.171  38.810  51.910  1.00  0.00     0.015 A 
HETATM   24  C3  UNL     1      38.918  38.335  51.568  1.00  0.00     0.037 A 
HETATM   25  C2  UNL     1      38.483  37.142  52.124  1.00  0.00     0.068 A 
HETATM   26  C23 UNL     1      39.339  36.489  52.998  1.00  0.00     0.037 A 
HETATM   27  C22 UNL     1      40.585  36.965  53.336  1.00  0.00     0.015 A 
BRANCH  25  28
HETATM   28  O1  UNL     1      37.238  36.612  51.821  1.00  0.00    -0.356 OA
HETATM   29  C1  UNL     1      36.093  36.857  52.610  1.00  0.00     0.210 C 
ENDBRANCH  25  28
ENDBRANCH   1  22
BRANCH   2  30
HETATM   30  S1  UNL     1      41.114  40.164  55.078  1.00  0.00     0.172 S 
HETATM   31  C8  UNL     1      40.185  38.873  55.824  1.00  0.00     0.167 C 
HETATM   32  O2  UNL     1      40.223  41.077  54.247  1.00  0.00    -0.223 OA
HETATM   33  O3  UNL     1      41.618  41.047  56.203  1.00  0.00    -0.223 OA
ENDBRANCH   2  30
TORSDOF 7
ENDMDL
