MODEL 4
REMARK VINA RESULT: -8.278013548      0.746      1.291
REMARK  9 active torsions:
REMARK  status: ('A' for Active; 'I' for Inactive)
REMARK    1  A    between atoms: O1_1  and  C1_3 
REMARK    2  A    between atoms: C6_8  and  N1_9 
REMARK    3  A    between atoms: N1_9  and  C7_11 
REMARK    4  A    between atoms: C7_11  and  O2_12 
REMARK    5  A    between atoms: C7_11  and  C8_14 
REMARK    6  A    between atoms: C8_14  and  O3_15 
REMARK    7  A    between atoms: C8_14  and  C9_17 
REMARK    8  A    between atoms: C9_17  and  O4_18 
REMARK    9  A    between atoms: O4_18  and  P1_19 
ROOT
HETATM    1  C7  UNL     1      48.748  27.991  13.728  1.00  0.00     0.249 C 
ENDROOT
BRANCH   1   2
HETATM    2  N1  UNL     1      49.138  27.360  14.977  1.00  0.00    -0.359 N 
ATOM      3  H1  UNL     1      48.747  27.715  15.849  1.00  0.00     0.162 HD
BRANCH   2   4
HETATM    4  C6  UNL     1      50.039  26.269  15.029  1.00  0.00     0.063 A 
HETATM    5  C1  UNL     1      51.397  26.514  15.117  1.00  0.00     0.092 A 
HETATM    6  C2  UNL     1      52.256  25.431  15.168  1.00  0.00     0.039 A 
HETATM    7  C3  UNL     1      51.826  24.129  15.135  1.00  0.00     0.003 A 
HETATM    8  C4  UNL     1      50.484  23.892  15.047  1.00  0.00     0.002 A 
HETATM    9  C5  UNL     1      49.597  24.965  14.995  1.00  0.00     0.032 A 
BRANCH   5  10
HETATM   10  O1  UNL     1      51.899  27.816  15.156  1.00  0.00    -0.358 OA
ATOM     11  H1  UNL     1      52.019  28.260  15.987  1.00  0.00     0.217 HD
ENDBRANCH   5  10
ENDBRANCH   2   4
ENDBRANCH   1   2
BRANCH   1  12
HETATM   12  O2  UNL     1      49.461  29.206  13.617  1.00  0.00    -0.374 OA
ATOM     13  H2  UNL     1      50.277  29.109  14.095  1.00  0.00     0.212 HD
ENDBRANCH   1  12
BRANCH   1  14
HETATM   14  C8  UNL     1      47.288  28.359  13.720  1.00  0.00     0.191 C 
BRANCH  14  15
HETATM   15  O3  UNL     1      46.625  27.494  14.563  1.00  0.00    -0.389 OA
ATOM     16  H3  UNL     1      45.697  27.691  14.517  1.00  0.00     0.210 HD
ENDBRANCH  14  15
BRANCH  14  17
HETATM   17  C9  UNL     1      46.719  28.405  12.335  1.00  0.00     0.218 C 
BRANCH  17  18
HETATM   18  O4  UNL     1      47.631  27.952  11.423  1.00  0.00    -0.280 OA
BRANCH  18  19
HETATM   19  P1  UNL     1      47.996  29.141  10.372  1.00  0.00     0.422 P 
HETATM   20  O5  UNL     1      46.904  29.585   9.200  1.00  0.00    -0.617 OA
HETATM   21  O6  UNL     1      49.356  30.071  10.608  1.00  0.00    -0.617 OA
HETATM   22  O7  UNL     1      48.722  28.190   9.431  1.00  0.00    -0.617 OA
ENDBRANCH  18  19
ENDBRANCH  17  18
ENDBRANCH  14  17
ENDBRANCH   1  14
TORSDOF 9
ENDMDL
