MODEL 2
REMARK VINA RESULT: -8.321719871      0.535      1.129
REMARK  9 active torsions:
REMARK  status: ('A' for Active; 'I' for Inactive)
REMARK    1  A    between atoms: O1_1  and  C1_3 
REMARK    2  A    between atoms: C6_8  and  N1_9 
REMARK    3  A    between atoms: N1_9  and  C7_11 
REMARK    4  A    between atoms: C7_11  and  O2_12 
REMARK    5  A    between atoms: C7_11  and  C8_14 
REMARK    6  A    between atoms: C8_14  and  O3_15 
REMARK    7  A    between atoms: C8_14  and  C9_17 
REMARK    8  A    between atoms: C9_17  and  O4_18 
REMARK    9  A    between atoms: O4_18  and  P1_19 
ROOT
HETATM    1  C7  UNL     1      49.237  27.994  13.984  1.00  0.00     0.249 C 
ENDROOT
BRANCH   1   2
HETATM    2  N1  UNL     1      49.312  27.113  15.138  1.00  0.00    -0.359 N 
ATOM      3  H1  UNL     1      48.816  27.375  15.989  1.00  0.00     0.162 HD
BRANCH   2   4
HETATM    4  C6  UNL     1      50.049  25.905  15.124  1.00  0.00     0.063 A 
HETATM    5  C1  UNL     1      51.432  25.952  15.129  1.00  0.00     0.092 A 
HETATM    6  C2  UNL     1      52.128  24.757  15.116  1.00  0.00     0.039 A 
HETATM    7  C3  UNL     1      51.514  23.530  15.100  1.00  0.00     0.003 A 
HETATM    8  C4  UNL     1      50.149  23.488  15.094  1.00  0.00     0.002 A 
HETATM    9  C5  UNL     1      49.423  24.678  15.107  1.00  0.00     0.032 A 
BRANCH   5  10
HETATM   10  O1  UNL     1      52.116  27.168  15.147  1.00  0.00    -0.358 OA
ATOM     11  H1  UNL     1      51.828  27.873  15.714  1.00  0.00     0.217 HD
ENDBRANCH   5  10
ENDBRANCH   2   4
ENDBRANCH   1   2
BRANCH   1  12
HETATM   12  O2  UNL     1      49.942  29.177  14.298  1.00  0.00    -0.374 OA
ATOM     13  H2  UNL     1      50.808  29.111  13.911  1.00  0.00     0.212 HD
ENDBRANCH   1  12
BRANCH   1  14
HETATM   14  C8  UNL     1      47.820  28.414  13.696  1.00  0.00     0.191 C 
BRANCH  14  15
HETATM   15  O3  UNL     1      46.975  27.554  14.361  1.00  0.00    -0.389 OA
ATOM     16  H3  UNL     1      46.087  27.731  14.074  1.00  0.00     0.210 HD
ENDBRANCH  14  15
BRANCH  14  17
HETATM   17  C9  UNL     1      47.543  28.515  12.227  1.00  0.00     0.218 C 
BRANCH  17  18
HETATM   18  O4  UNL     1      48.286  29.514  11.663  1.00  0.00    -0.280 OA
BRANCH  18  19
HETATM   19  P1  UNL     1      48.010  29.566  10.058  1.00  0.00     0.422 P 
HETATM   20  O5  UNL     1      47.229  30.871   9.386  1.00  0.00    -0.617 OA
HETATM   21  O6  UNL     1      48.708  28.434   9.057  1.00  0.00    -0.617 OA
HETATM   22  O7  UNL     1      46.719  28.769  10.178  1.00  0.00    -0.617 OA
ENDBRANCH  18  19
ENDBRANCH  17  18
ENDBRANCH  14  17
ENDBRANCH   1  14
TORSDOF 9
ENDMDL
