MODEL 1
REMARK VINA RESULT: -8.508432661      0.000      0.000
REMARK  9 active torsions:
REMARK  status: ('A' for Active; 'I' for Inactive)
REMARK    1  A    between atoms: O1_1  and  C1_3 
REMARK    2  A    between atoms: C6_8  and  N1_9 
REMARK    3  A    between atoms: N1_9  and  C7_11 
REMARK    4  A    between atoms: C7_11  and  O2_12 
REMARK    5  A    between atoms: C7_11  and  C8_14 
REMARK    6  A    between atoms: C8_14  and  O3_15 
REMARK    7  A    between atoms: C8_14  and  C9_17 
REMARK    8  A    between atoms: C9_17  and  O4_18 
REMARK    9  A    between atoms: O4_18  and  P1_19 
ROOT
HETATM    1  C7  UNL     1      48.915  28.032  13.837  1.00  0.00     0.249 C 
ENDROOT
BRANCH   1   2
HETATM    2  N1  UNL     1      49.174  27.275  15.050  1.00  0.00    -0.359 N 
ATOM      3  H1  UNL     1      48.716  27.563  15.915  1.00  0.00     0.162 HD
BRANCH   2   4
HETATM    4  C6  UNL     1      50.037  26.154  15.077  1.00  0.00     0.063 A 
HETATM    5  C1  UNL     1      51.405  26.350  15.120  1.00  0.00     0.092 A 
HETATM    6  C2  UNL     1      52.226  25.237  15.146  1.00  0.00     0.039 A 
HETATM    7  C3  UNL     1      51.749  23.951  15.133  1.00  0.00     0.003 A 
HETATM    8  C4  UNL     1      50.397  23.762  15.090  1.00  0.00     0.002 A 
HETATM    9  C5  UNL     1      49.548  24.866  15.064  1.00  0.00     0.032 A 
BRANCH   5  10
HETATM   10  O1  UNL     1      51.954  27.633  15.137  1.00  0.00    -0.358 OA
ATOM     11  H1  UNL     1      51.519  28.348  14.688  1.00  0.00     0.217 HD
ENDBRANCH   5  10
ENDBRANCH   2   4
ENDBRANCH   1   2
BRANCH   1  12
HETATM   12  O2  UNL     1      49.634  29.245  13.924  1.00  0.00    -0.374 OA
ATOM     13  H2  UNL     1      49.006  29.958  13.884  1.00  0.00     0.212 HD
ENDBRANCH   1  12
BRANCH   1  14
HETATM   14  C8  UNL     1      47.464  28.412  13.715  1.00  0.00     0.191 C 
BRANCH  14  15
HETATM   15  O3  UNL     1      46.733  27.573  14.529  1.00  0.00    -0.389 OA
ATOM     16  H3  UNL     1      46.147  27.066  13.979  1.00  0.00     0.210 HD
ENDBRANCH  14  15
BRANCH  14  17
HETATM   17  C9  UNL     1      46.996  28.429  12.292  1.00  0.00     0.218 C 
BRANCH  17  18
HETATM   18  O4  UNL     1      47.642  29.403  11.583  1.00  0.00    -0.280 OA
BRANCH  18  19
HETATM   19  P1  UNL     1      47.316  29.236   9.996  1.00  0.00     0.422 P 
HETATM   20  O5  UNL     1      48.542  28.908   8.922  1.00  0.00    -0.617 OA
HETATM   21  O6  UNL     1      45.738  29.161   9.474  1.00  0.00    -0.617 OA
HETATM   22  O7  UNL     1      47.404  30.734   9.743  1.00  0.00    -0.617 OA
ENDBRANCH  18  19
ENDBRANCH  17  18
ENDBRANCH  14  17
ENDBRANCH   1  14
TORSDOF 9
ENDMDL
