MODEL 14
REMARK VINA RESULT: -6.255896507      3.034      6.402
REMARK  9 active torsions:
REMARK  status: ('A' for Active; 'I' for Inactive)
REMARK    1  A    between atoms: O1_1  and  C1_3 
REMARK    2  A    between atoms: C6_8  and  N1_9 
REMARK    3  A    between atoms: N1_9  and  C7_11 
REMARK    4  A    between atoms: C7_11  and  O2_12 
REMARK    5  A    between atoms: C7_11  and  C8_14 
REMARK    6  A    between atoms: C8_14  and  O3_15 
REMARK    7  A    between atoms: C8_14  and  C9_17 
REMARK    8  A    between atoms: C9_17  and  O4_18 
REMARK    9  A    between atoms: O4_18  and  P1_19 
ROOT
HETATM    1  C7  UNL     1      49.324  28.373  14.388  1.00  0.00     0.249 C 
ENDROOT
BRANCH   1   2
HETATM    2  N1  UNL     1      49.399  28.852  13.018  1.00  0.00    -0.359 N 
ATOM      3  H1  UNL     1      50.298  29.171  12.658  1.00  0.00     0.162 HD
BRANCH   2   4
HETATM    4  C6  UNL     1      48.270  28.893  12.165  1.00  0.00     0.063 A 
HETATM    5  C1  UNL     1      48.420  29.330  10.861  1.00  0.00     0.092 A 
HETATM    6  C2  UNL     1      47.302  29.359  10.047  1.00  0.00     0.039 A 
HETATM    7  C3  UNL     1      46.054  28.978  10.471  1.00  0.00     0.003 A 
HETATM    8  C4  UNL     1      45.911  28.549  11.760  1.00  0.00     0.002 A 
HETATM    9  C5  UNL     1      47.022  28.508  12.600  1.00  0.00     0.032 A 
BRANCH   5  10
HETATM   10  O1  UNL     1      49.663  29.730  10.368  1.00  0.00    -0.358 OA
ATOM     11  H1  UNL     1      49.855  30.651  10.240  1.00  0.00     0.217 HD
ENDBRANCH   5  10
ENDBRANCH   2   4
ENDBRANCH   1   2
BRANCH   1  12
HETATM   12  O2  UNL     1      50.513  28.761  15.046  1.00  0.00    -0.374 OA
ATOM     13  H2  UNL     1      50.396  28.598  15.975  1.00  0.00     0.212 HD
ENDBRANCH   1  12
BRANCH   1  14
HETATM   14  C8  UNL     1      49.283  26.869  14.450  1.00  0.00     0.191 C 
BRANCH  14  15
HETATM   15  O3  UNL     1      48.191  26.503  15.207  1.00  0.00    -0.389 OA
ATOM     16  H3  UNL     1      48.500  25.974  15.934  1.00  0.00     0.210 HD
ENDBRANCH  14  15
BRANCH  14  17
HETATM   17  C9  UNL     1      50.574  26.282  14.932  1.00  0.00     0.218 C 
BRANCH  17  18
HETATM   18  O4  UNL     1      50.414  24.966  15.262  1.00  0.00    -0.280 OA
BRANCH  18  19
HETATM   19  P1  UNL     1      51.843  24.191  15.145  1.00  0.00     0.422 P 
HETATM   20  O5  UNL     1      53.238  24.930  15.667  1.00  0.00    -0.617 OA
HETATM   21  O6  UNL     1      51.885  22.582  14.724  1.00  0.00    -0.617 OA
HETATM   22  O7  UNL     1      52.059  24.647  13.710  1.00  0.00    -0.617 OA
ENDBRANCH  18  19
ENDBRANCH  17  18
ENDBRANCH  14  17
ENDBRANCH   1  14
TORSDOF 9
ENDMDL
