MODEL 16
REMARK VINA RESULT: -6.195452749      3.058      6.639
REMARK  9 active torsions:
REMARK  status: ('A' for Active; 'I' for Inactive)
REMARK    1  A    between atoms: O1_1  and  C1_3 
REMARK    2  A    between atoms: C6_8  and  N1_9 
REMARK    3  A    between atoms: N1_9  and  C7_11 
REMARK    4  A    between atoms: C7_11  and  O2_12 
REMARK    5  A    between atoms: C7_11  and  C8_14 
REMARK    6  A    between atoms: C8_14  and  O3_15 
REMARK    7  A    between atoms: C8_14  and  C9_17 
REMARK    8  A    between atoms: C9_17  and  O4_18 
REMARK    9  A    between atoms: O4_18  and  P1_19 
ROOT
HETATM    1  C7  UNL     1      48.560  27.938  13.585  1.00  0.00     0.249 C 
ENDROOT
BRANCH   1   2
HETATM    2  N1  UNL     1      48.394  27.512  12.205  1.00  0.00    -0.359 N 
ATOM      3  H1  UNL     1      48.678  26.567  11.946  1.00  0.00     0.162 HD
BRANCH   2   4
HETATM    4  C6  UNL     1      47.854  28.358  11.208  1.00  0.00     0.063 A 
HETATM    5  C1  UNL     1      46.485  28.553  11.151  1.00  0.00     0.092 A 
HETATM    6  C2  UNL     1      45.983  29.386  10.168  1.00  0.00     0.039 A 
HETATM    7  C3  UNL     1      46.775  30.026   9.248  1.00  0.00     0.003 A 
HETATM    8  C4  UNL     1      48.125  29.830   9.308  1.00  0.00     0.002 A 
HETATM    9  C5  UNL     1      48.657  28.996  10.289  1.00  0.00     0.032 A 
BRANCH   5  10
HETATM   10  O1  UNL     1      45.626  27.932  12.058  1.00  0.00    -0.358 OA
ATOM     11  H1  UNL     1      44.764  28.294  12.229  1.00  0.00     0.217 HD
ENDBRANCH   5  10
ENDBRANCH   2   4
ENDBRANCH   1   2
BRANCH   1  12
HETATM   12  O2  UNL     1      49.605  28.887  13.621  1.00  0.00    -0.374 OA
ATOM     13  H2  UNL     1      49.538  29.361  14.442  1.00  0.00     0.212 HD
ENDBRANCH   1  12
BRANCH   1  14
HETATM   14  C8  UNL     1      48.994  26.801  14.471  1.00  0.00     0.191 C 
BRANCH  14  15
HETATM   15  O3  UNL     1      47.954  26.502  15.324  1.00  0.00    -0.389 OA
ATOM     16  H3  UNL     1      47.830  27.241  15.908  1.00  0.00     0.210 HD
ENDBRANCH  14  15
BRANCH  14  17
HETATM   17  C9  UNL     1      50.286  27.088  15.174  1.00  0.00     0.218 C 
BRANCH  17  18
HETATM   18  O4  UNL     1      51.344  26.606  14.455  1.00  0.00    -0.280 OA
BRANCH  18  19
HETATM   19  P1  UNL     1      51.876  25.218  15.122  1.00  0.00     0.422 P 
HETATM   20  O5  UNL     1      53.443  25.098  15.663  1.00  0.00    -0.617 OA
HETATM   21  O6  UNL     1      50.800  24.000  15.476  1.00  0.00    -0.617 OA
HETATM   22  O7  UNL     1      52.225  24.614  13.770  1.00  0.00    -0.617 OA
ENDBRANCH  18  19
ENDBRANCH  17  18
ENDBRANCH  14  17
ENDBRANCH   1  14
TORSDOF 9
ENDMDL
