MODEL 5
REMARK VINA RESULT: -8.020522390      0.652      1.326
REMARK  9 active torsions:
REMARK  status: ('A' for Active; 'I' for Inactive)
REMARK    1  A    between atoms: O1_1  and  C1_3 
REMARK    2  A    between atoms: C6_8  and  N1_9 
REMARK    3  A    between atoms: N1_9  and  C7_11 
REMARK    4  A    between atoms: C7_11  and  O2_12 
REMARK    5  A    between atoms: C7_11  and  C8_14 
REMARK    6  A    between atoms: C8_14  and  O3_15 
REMARK    7  A    between atoms: C8_14  and  C9_17 
REMARK    8  A    between atoms: C9_17  and  O4_18 
REMARK    9  A    between atoms: O4_18  and  P1_19 
ROOT
HETATM    1  C7  UNL     1      48.244  28.440  14.416  1.00  0.00     0.249 C 
ENDROOT
BRANCH   1   2
HETATM    2  N1  UNL     1      49.244  28.020  15.383  1.00  0.00    -0.359 N 
ATOM      3  H1  UNL     1      49.418  28.610  16.196  1.00  0.00     0.162 HD
BRANCH   2   4
HETATM    4  C6  UNL     1      49.984  26.823  15.239  1.00  0.00     0.063 A 
HETATM    5  C1  UNL     1      51.366  26.879  15.199  1.00  0.00     0.092 A 
HETATM    6  C2  UNL     1      52.066  25.695  15.059  1.00  0.00     0.039 A 
HETATM    7  C3  UNL     1      51.457  24.469  14.957  1.00  0.00     0.003 A 
HETATM    8  C4  UNL     1      50.093  24.419  14.996  1.00  0.00     0.002 A 
HETATM    9  C5  UNL     1      49.364  25.597  15.138  1.00  0.00     0.032 A 
BRANCH   5  10
HETATM   10  O1  UNL     1      52.046  28.094  15.298  1.00  0.00    -0.358 OA
ATOM     11  H1  UNL     1      51.702  28.794  15.840  1.00  0.00     0.217 HD
ENDBRANCH   5  10
ENDBRANCH   2   4
ENDBRANCH   1   2
BRANCH   1  12
HETATM   12  O2  UNL     1      47.174  27.519  14.474  1.00  0.00    -0.374 OA
ATOM     13  H2  UNL     1      47.324  26.945  15.216  1.00  0.00     0.212 HD
ENDBRANCH   1  12
BRANCH   1  14
HETATM   14  C8  UNL     1      48.772  28.382  13.007  1.00  0.00     0.191 C 
BRANCH  14  15
HETATM   15  O3  UNL     1      49.639  29.438  12.832  1.00  0.00    -0.389 OA
ATOM     16  H3  UNL     1      50.525  29.096  12.835  1.00  0.00     0.210 HD
ENDBRANCH  14  15
BRANCH  14  17
HETATM   17  C9  UNL     1      47.674  28.328  11.989  1.00  0.00     0.218 C 
BRANCH  17  18
HETATM   18  O4  UNL     1      47.478  29.557  11.423  1.00  0.00    -0.280 OA
BRANCH  18  19
HETATM   19  P1  UNL     1      47.174  29.388   9.832  1.00  0.00     0.422 P 
HETATM   20  O5  UNL     1      48.422  29.123   8.766  1.00  0.00    -0.617 OA
HETATM   21  O6  UNL     1      45.605  29.246   9.296  1.00  0.00    -0.617 OA
HETATM   22  O7  UNL     1      47.197  30.890   9.591  1.00  0.00    -0.617 OA
ENDBRANCH  18  19
ENDBRANCH  17  18
ENDBRANCH  14  17
ENDBRANCH   1  14
TORSDOF 9
ENDMDL
