MODEL 15
REMARK VINA RESULT: -6.240489903      3.105      6.566
REMARK  9 active torsions:
REMARK  status: ('A' for Active; 'I' for Inactive)
REMARK    1  A    between atoms: O1_1  and  C1_3 
REMARK    2  A    between atoms: C6_8  and  N1_9 
REMARK    3  A    between atoms: N1_9  and  C7_11 
REMARK    4  A    between atoms: C7_11  and  O2_12 
REMARK    5  A    between atoms: C7_11  and  C8_14 
REMARK    6  A    between atoms: C8_14  and  O3_15 
REMARK    7  A    between atoms: C8_14  and  C9_17 
REMARK    8  A    between atoms: C9_17  and  O4_18 
REMARK    9  A    between atoms: O4_18  and  P1_19 
ROOT
HETATM    1  C7  UNL     1      48.845  27.343  14.269  1.00  0.00     0.249 C 
ENDROOT
BRANCH   1   2
HETATM    2  N1  UNL     1      47.980  28.411  13.798  1.00  0.00    -0.359 N 
ATOM      3  H1  UNL     1      47.417  28.923  14.477  1.00  0.00     0.162 HD
BRANCH   2   4
HETATM    4  C6  UNL     1      47.891  28.769  12.432  1.00  0.00     0.063 A 
HETATM    5  C1  UNL     1      46.723  28.509  11.736  1.00  0.00     0.092 A 
HETATM    6  C2  UNL     1      46.661  28.870  10.403  1.00  0.00     0.039 A 
HETATM    7  C3  UNL     1      47.699  29.472   9.737  1.00  0.00     0.003 A 
HETATM    8  C4  UNL     1      48.850  29.725  10.428  1.00  0.00     0.002 A 
HETATM    9  C5  UNL     1      48.939  29.373  11.773  1.00  0.00     0.032 A 
BRANCH   5  10
HETATM   10  O1  UNL     1      45.630  27.901  12.355  1.00  0.00    -0.358 OA
ATOM     11  H1  UNL     1      44.790  27.861  11.916  1.00  0.00     0.217 HD
ENDBRANCH   5  10
ENDBRANCH   2   4
ENDBRANCH   1   2
BRANCH   1  12
HETATM   12  O2  UNL     1      48.077  26.504  15.108  1.00  0.00    -0.374 OA
ATOM     13  H2  UNL     1      48.407  26.598  15.994  1.00  0.00     0.212 HD
ENDBRANCH   1  12
BRANCH   1  14
HETATM   14  C8  UNL     1      49.970  27.870  15.121  1.00  0.00     0.191 C 
BRANCH  14  15
HETATM   15  O3  UNL     1      50.364  29.085  14.603  1.00  0.00    -0.389 OA
ATOM     16  H3  UNL     1      51.309  29.071  14.504  1.00  0.00     0.210 HD
ENDBRANCH  14  15
BRANCH  14  17
HETATM   17  C9  UNL     1      51.088  26.884  15.262  1.00  0.00     0.218 C 
BRANCH  17  18
HETATM   18  O4  UNL     1      50.704  25.650  14.817  1.00  0.00    -0.280 OA
BRANCH  18  19
HETATM   19  P1  UNL     1      51.869  24.559  15.142  1.00  0.00     0.422 P 
HETATM   20  O5  UNL     1      53.392  25.068  15.573  1.00  0.00    -0.617 OA
HETATM   21  O6  UNL     1      51.485  22.946  15.271  1.00  0.00    -0.617 OA
HETATM   22  O7  UNL     1      52.256  24.424  13.676  1.00  0.00    -0.617 OA
ENDBRANCH  18  19
ENDBRANCH  17  18
ENDBRANCH  14  17
ENDBRANCH   1  14
TORSDOF 9
ENDMDL
