MODEL 3
REMARK VINA RESULT: -8.284942216      1.192      1.682
REMARK  9 active torsions:
REMARK  status: ('A' for Active; 'I' for Inactive)
REMARK    1  A    between atoms: O1_1  and  C1_3 
REMARK    2  A    between atoms: C6_8  and  N1_9 
REMARK    3  A    between atoms: N1_9  and  C7_11 
REMARK    4  A    between atoms: C7_11  and  O2_12 
REMARK    5  A    between atoms: C7_11  and  C8_14 
REMARK    6  A    between atoms: C8_14  and  O3_15 
REMARK    7  A    between atoms: C8_14  and  C9_17 
REMARK    8  A    between atoms: C9_17  and  O4_18 
REMARK    9  A    between atoms: O4_18  and  P1_19 
ROOT
HETATM    1  C7  UNL     1      49.617  27.860  14.508  1.00  0.00     0.249 C 
ENDROOT
BRANCH   1   2
HETATM    2  N1  UNL     1      49.712  26.842  15.540  1.00  0.00    -0.359 N 
ATOM      3  H1  UNL     1      49.365  27.058  16.475  1.00  0.00     0.162 HD
BRANCH   2   4
HETATM    4  C6  UNL     1      50.266  25.563  15.298  1.00  0.00     0.063 A 
HETATM    5  C1  UNL     1      51.635  25.434  15.146  1.00  0.00     0.092 A 
HETATM    6  C2  UNL     1      52.152  24.172  14.911  1.00  0.00     0.039 A 
HETATM    7  C3  UNL     1      51.373  23.046  14.821  1.00  0.00     0.003 A 
HETATM    8  C4  UNL     1      50.022  23.179  14.971  1.00  0.00     0.002 A 
HETATM    9  C5  UNL     1      49.476  24.438  15.210  1.00  0.00     0.032 A 
BRANCH   5  10
HETATM   10  O1  UNL     1      52.482  26.540  15.227  1.00  0.00    -0.358 OA
ATOM     11  H1  UNL     1      52.577  27.128  14.487  1.00  0.00     0.217 HD
ENDBRANCH   5  10
ENDBRANCH   2   4
ENDBRANCH   1   2
BRANCH   1  12
HETATM   12  O2  UNL     1      50.550  28.875  14.815  1.00  0.00    -0.374 OA
ATOM     13  H2  UNL     1      50.067  29.624  15.146  1.00  0.00     0.212 HD
ENDBRANCH   1  12
BRANCH   1  14
HETATM   14  C8  UNL     1      48.265  28.522  14.500  1.00  0.00     0.191 C 
BRANCH  14  15
HETATM   15  O3  UNL     1      47.305  27.534  14.489  1.00  0.00    -0.389 OA
ATOM     16  H3  UNL     1      46.504  27.896  14.851  1.00  0.00     0.210 HD
ENDBRANCH  14  15
BRANCH  14  17
HETATM   17  C9  UNL     1      48.122  29.514  13.386  1.00  0.00     0.218 C 
BRANCH  17  18
HETATM   18  O4  UNL     1      48.890  29.151  12.315  1.00  0.00    -0.280 OA
BRANCH  18  19
HETATM   19  P1  UNL     1      47.936  28.855  11.028  1.00  0.00     0.422 P 
HETATM   20  O5  UNL     1      46.309  29.186  11.102  1.00  0.00    -0.617 OA
HETATM   21  O6  UNL     1      48.615  28.443   9.566  1.00  0.00    -0.617 OA
HETATM   22  O7  UNL     1      47.726  27.400  11.423  1.00  0.00    -0.617 OA
ENDBRANCH  18  19
ENDBRANCH  17  18
ENDBRANCH  14  17
ENDBRANCH   1  14
TORSDOF 9
ENDMDL
