MODEL 2
REMARK VINA RESULT: -9.647017490      0.533      1.094
REMARK  5 active torsions:
REMARK  status: ('A' for Active; 'I' for Inactive)
REMARK    1  A    between atoms: N4_10  and  C5_11 
REMARK    2  A    between atoms: C7_13  and  O1_14 
REMARK    3  A    between atoms: C8_16  and  C9_17 
REMARK    4  A    between atoms: C9_17  and  O2_18 
REMARK    5  A    between atoms: O2_18  and  P1_19 
ROOT
HETATM    1  N1  UNL     1      18.607  20.744  34.109  1.00  0.00    -0.063 NA
HETATM    2  C1  UNL     1      18.187  19.639  33.343  1.00  0.00     0.196 A 
HETATM    3  N2  UNL     1      17.092  19.673  32.530  1.00  0.00    -0.314 N 
ATOM      4  H2  UNL     1      16.537  20.526  32.459  1.00  0.00     0.170 HD
HETATM    5  C2  UNL     1      16.742  18.586  31.823  1.00  0.00     0.145 A 
HETATM    6  C3  UNL     1      17.469  17.409  31.891  1.00  0.00     0.146 A 
HETATM    7  N3  UNL     1      16.874  16.507  31.074  1.00  0.00    -0.345 N 
ATOM      8  H3  UNL     1      17.172  15.547  30.907  1.00  0.00     0.167 HD
HETATM    9  C4  UNL     1      15.799  17.134  30.518  1.00  0.00     0.188 A 
HETATM   10  N4  UNL     1      15.723  18.388  30.973  1.00  0.00    -0.300 N 
HETATM   11  C10 UNL     1      18.579  17.388  32.720  1.00  0.00     0.278 A 
HETATM   12  O7  UNL     1      19.263  16.331  32.807  1.00  0.00    -0.265 OA
HETATM   13  N5  UNL     1      18.900  18.501  33.417  1.00  0.00    -0.295 N 
ATOM     14  H5  UNL     1      19.718  18.477  34.026  1.00  0.00     0.171 HD
ENDROOT
BRANCH  10  15
HETATM   15  C5  UNL     1      14.739  19.349  30.620  1.00  0.00     0.233 C 
HETATM   16  C6  UNL     1      13.854  19.779  31.741  1.00  0.00     0.088 C 
HETATM   17  C7  UNL     1      13.193  21.025  31.133  1.00  0.00     0.153 C 
HETATM   18  C8  UNL     1      14.096  21.285  29.946  1.00  0.00     0.177 C 
HETATM   19  O6  UNL     1      15.283  20.580  30.203  1.00  0.00    -0.356 OA
BRANCH  17  20
HETATM   20  O1  UNL     1      11.936  20.670  30.643  1.00  0.00    -0.393 OA
ATOM     21  H1  UNL     1      11.707  21.261  29.935  1.00  0.00     0.210 HD
ENDBRANCH  17  20
BRANCH  18  22
HETATM   22  C9  UNL     1      14.362  22.761  29.758  1.00  0.00     0.217 C 
BRANCH  22  23
HETATM   23  O2  UNL     1      15.537  22.874  29.022  1.00  0.00    -0.280 OA
BRANCH  23  24
HETATM   24  P1  UNL     1      15.187  23.259  27.394  1.00  0.00     0.422 P 
HETATM   25  O3  UNL     1      13.701  23.235  27.199  1.00  0.00    -0.617 OA
HETATM   26  O4  UNL     1      15.770  24.780  27.010  1.00  0.00    -0.617 OA
HETATM   27  O5  UNL     1      15.969  22.107  26.401  1.00  0.00    -0.617 OA
ENDBRANCH  23  24
ENDBRANCH  22  23
ENDBRANCH  18  22
ENDBRANCH  10  15
TORSDOF 5
ENDMDL
