MODEL 1
REMARK VINA RESULT: -9.748184939      0.000      0.000
REMARK  5 active torsions:
REMARK  status: ('A' for Active; 'I' for Inactive)
REMARK    1  A    between atoms: N4_10  and  C5_11 
REMARK    2  A    between atoms: C7_13  and  O1_14 
REMARK    3  A    between atoms: C8_16  and  C9_17 
REMARK    4  A    between atoms: C9_17  and  O2_18 
REMARK    5  A    between atoms: O2_18  and  P1_19 
ROOT
HETATM    1  N1  UNL     1      18.649  20.746  33.861  1.00  0.00    -0.063 NA
HETATM    2  C1  UNL     1      18.166  19.625  33.158  1.00  0.00     0.196 A 
HETATM    3  N2  UNL     1      17.063  19.671  32.356  1.00  0.00    -0.314 N 
ATOM      4  H2  UNL     1      16.549  20.546  32.246  1.00  0.00     0.170 HD
HETATM    5  C2  UNL     1      16.651  18.568  31.711  1.00  0.00     0.145 A 
HETATM    6  C3  UNL     1      17.320  17.361  31.832  1.00  0.00     0.146 A 
HETATM    7  N3  UNL     1      16.670  16.449  31.070  1.00  0.00    -0.345 N 
ATOM      8  H3  UNL     1      16.919  15.467  30.951  1.00  0.00     0.167 HD
HETATM    9  C4  UNL     1      15.620  17.099  30.494  1.00  0.00     0.188 A 
HETATM   10  N4  UNL     1      15.612  18.377  30.883  1.00  0.00    -0.300 N 
HETATM   11  C10 UNL     1      18.438  17.328  32.650  1.00  0.00     0.278 A 
HETATM   12  O7  UNL     1      19.071  16.245  32.785  1.00  0.00    -0.265 OA
HETATM   13  N5  UNL     1      18.823  18.458  33.284  1.00  0.00    -0.295 N 
ATOM     14  H5  UNL     1      19.647  18.425  33.884  1.00  0.00     0.171 HD
ENDROOT
BRANCH  10  15
HETATM   15  C5  UNL     1      14.671  19.366  30.491  1.00  0.00     0.233 C 
HETATM   16  C6  UNL     1      13.907  19.983  31.613  1.00  0.00     0.088 C 
HETATM   17  C7  UNL     1      13.288  21.202  30.913  1.00  0.00     0.153 C 
HETATM   18  C8  UNL     1      14.113  21.260  29.645  1.00  0.00     0.177 C 
HETATM   19  O6  UNL     1      15.265  20.499  29.899  1.00  0.00    -0.356 OA
BRANCH  17  20
HETATM   20  O1  UNL     1      11.975  20.892  30.555  1.00  0.00    -0.393 OA
ATOM     21  H1  UNL     1      11.547  21.686  30.256  1.00  0.00     0.210 HD
ENDBRANCH  17  20
BRANCH  18  22
HETATM   22  C9  UNL     1      14.463  22.682  29.272  1.00  0.00     0.217 C 
BRANCH  22  23
HETATM   23  O2  UNL     1      13.849  22.947  28.052  1.00  0.00    -0.280 OA
BRANCH  23  24
HETATM   24  P1  UNL     1      15.021  23.197  26.834  1.00  0.00     0.422 P 
HETATM   25  O3  UNL     1      16.086  22.151  26.964  1.00  0.00    -0.617 OA
HETATM   26  O4  UNL     1      14.325  23.091  25.316  1.00  0.00    -0.617 OA
HETATM   27  O5  UNL     1      15.660  24.771  27.034  1.00  0.00    -0.617 OA
ENDBRANCH  23  24
ENDBRANCH  22  23
ENDBRANCH  18  22
ENDBRANCH  10  15
TORSDOF 5
ENDMDL
