MODEL 13
REMARK VINA RESULT: -9.111933987      3.460      6.976
REMARK  5 active torsions:
REMARK  status: ('A' for Active; 'I' for Inactive)
REMARK    1  A    between atoms: N4_10  and  C5_11 
REMARK    2  A    between atoms: C7_13  and  O1_14 
REMARK    3  A    between atoms: C8_16  and  C9_17 
REMARK    4  A    between atoms: C9_17  and  O2_18 
REMARK    5  A    between atoms: O2_18  and  P1_19 
ROOT
HETATM    1  N1  UNL     1      16.024  23.352  27.611  1.00  0.00    -0.063 NA
HETATM    2  C1  UNL     1      15.293  22.546  28.505  1.00  0.00     0.196 A 
HETATM    3  N2  UNL     1      15.879  21.836  29.513  1.00  0.00    -0.314 N 
ATOM      4  H2  UNL     1      16.890  21.875  29.642  1.00  0.00     0.170 HD
HETATM    5  C2  UNL     1      15.127  21.086  30.335  1.00  0.00     0.145 A 
HETATM    6  C3  UNL     1      13.751  21.006  30.193  1.00  0.00     0.146 A 
HETATM    7  N3  UNL     1      13.283  20.181  31.160  1.00  0.00    -0.345 N 
ATOM      8  H3  UNL     1      12.311  19.920  31.319  1.00  0.00     0.167 HD
HETATM    9  C4  UNL     1      14.366  19.767  31.878  1.00  0.00     0.188 A 
HETATM   10  N4  UNL     1      15.476  20.316  31.376  1.00  0.00    -0.300 N 
HETATM   11  C10 UNL     1      13.170  21.732  29.166  1.00  0.00     0.278 A 
HETATM   12  O7  UNL     1      11.919  21.681  29.008  1.00  0.00    -0.265 OA
HETATM   13  N5  UNL     1      13.958  22.476  28.358  1.00  0.00    -0.295 N 
ATOM     14  H5  UNL     1      13.522  23.007  27.605  1.00  0.00     0.171 HD
ENDROOT
BRANCH  10  15
HETATM   15  C5  UNL     1      16.797  20.122  31.859  1.00  0.00     0.233 C 
HETATM   16  C6  UNL     1      16.885  19.474  33.199  1.00  0.00     0.088 C 
HETATM   17  C7  UNL     1      18.373  19.095  33.247  1.00  0.00     0.153 C 
HETATM   18  C8  UNL     1      18.760  19.251  31.791  1.00  0.00     0.177 C 
HETATM   19  O6  UNL     1      17.557  19.235  31.068  1.00  0.00    -0.356 OA
BRANCH  17  20
HETATM   20  O1  UNL     1      19.058  20.067  33.977  1.00  0.00    -0.393 OA
ATOM     21  H1  UNL     1      18.451  20.479  34.580  1.00  0.00     0.210 HD
ENDBRANCH  17  20
BRANCH  18  22
HETATM   22  C9  UNL     1      19.688  18.147  31.339  1.00  0.00     0.217 C 
BRANCH  22  23
HETATM   23  O2  UNL     1      19.409  17.032  32.124  1.00  0.00    -0.280 OA
BRANCH  23  24
HETATM   24  P1  UNL     1      19.723  15.595  31.254  1.00  0.00     0.422 P 
HETATM   25  O3  UNL     1      20.885  14.890  31.886  1.00  0.00    -0.617 OA
HETATM   26  O4  UNL     1      18.386  14.588  31.278  1.00  0.00    -0.617 OA
HETATM   27  O5  UNL     1      20.056  16.024  29.632  1.00  0.00    -0.617 OA
ENDBRANCH  23  24
ENDBRANCH  22  23
ENDBRANCH  18  22
ENDBRANCH  10  15
TORSDOF 5
ENDMDL
