MODEL 18
REMARK VINA RESULT: -8.762943413      3.279      6.484
REMARK  5 active torsions:
REMARK  status: ('A' for Active; 'I' for Inactive)
REMARK    1  A    between atoms: N4_10  and  C5_11 
REMARK    2  A    between atoms: C7_13  and  O1_14 
REMARK    3  A    between atoms: C8_16  and  C9_17 
REMARK    4  A    between atoms: C9_17  and  O2_18 
REMARK    5  A    between atoms: O2_18  and  P1_19 
ROOT
HETATM    1  N1  UNL     1      16.185  23.180  31.318  1.00  0.00    -0.063 NA
HETATM    2  C1  UNL     1      15.150  22.306  30.932  1.00  0.00     0.196 A 
HETATM    3  N2  UNL     1      15.035  21.034  31.413  1.00  0.00    -0.314 N 
ATOM      4  H2  UNL     1      15.718  20.680  32.083  1.00  0.00     0.170 HD
HETATM    5  C2  UNL     1      14.025  20.248  31.007  1.00  0.00     0.145 A 
HETATM    6  C3  UNL     1      13.077  20.692  30.099  1.00  0.00     0.146 A 
HETATM    7  N3  UNL     1      12.198  19.682  29.892  1.00  0.00    -0.345 N 
ATOM      8  H3  UNL     1      11.386  19.699  29.276  1.00  0.00     0.167 HD
HETATM    9  C4  UNL     1      12.611  18.639  30.667  1.00  0.00     0.188 A 
HETATM   10  N4  UNL     1      13.714  18.986  31.338  1.00  0.00    -0.300 N 
HETATM   11  C10 UNL     1      13.206  21.985  29.619  1.00  0.00     0.278 A 
HETATM   12  O7  UNL     1      12.361  22.421  28.790  1.00  0.00    -0.265 OA
HETATM   13  N5  UNL     1      14.236  22.747  30.050  1.00  0.00    -0.295 N 
ATOM     14  H5  UNL     1      14.324  23.698  29.691  1.00  0.00     0.171 HD
ENDROOT
BRANCH  10  15
HETATM   15  C5  UNL     1      14.434  18.164  32.245  1.00  0.00     0.233 C 
HETATM   16  C6  UNL     1      14.224  16.699  32.065  1.00  0.00     0.088 C 
HETATM   17  C7  UNL     1      15.373  16.131  32.911  1.00  0.00     0.153 C 
HETATM   18  C8  UNL     1      16.235  17.361  33.097  1.00  0.00     0.177 C 
HETATM   19  O6  UNL     1      15.833  18.268  32.104  1.00  0.00    -0.356 OA
BRANCH  17  20
HETATM   20  O1  UNL     1      14.870  15.769  34.162  1.00  0.00    -0.393 OA
ATOM     21  H1  UNL     1      15.061  16.466  34.780  1.00  0.00     0.210 HD
ENDBRANCH  17  20
BRANCH  18  22
HETATM   22  C9  UNL     1      17.706  17.034  32.981  1.00  0.00     0.217 C 
BRANCH  22  23
HETATM   23  O2  UNL     1      17.901  16.467  31.726  1.00  0.00    -0.280 OA
BRANCH  23  24
HETATM   24  P1  UNL     1      19.482  16.790  31.163  1.00  0.00     0.422 P 
HETATM   25  O3  UNL     1      19.437  16.983  29.677  1.00  0.00    -0.617 OA
HETATM   26  O4  UNL     1      20.092  18.173  31.881  1.00  0.00    -0.617 OA
HETATM   27  O5  UNL     1      20.475  15.466  31.595  1.00  0.00    -0.617 OA
ENDBRANCH  23  24
ENDBRANCH  22  23
ENDBRANCH  18  22
ENDBRANCH  10  15
TORSDOF 5
ENDMDL
