MODEL 2
REMARK VINA RESULT: -4.784927806      1.282      3.677
REMARK  6 active torsions:
REMARK  status: ('A' for Active; 'I' for Inactive)
REMARK    1  A    between atoms: O1_1  and  C1_3 
REMARK    2  A    between atoms: C1_3  and  C2_4 
REMARK    3  A    between atoms: C3_6  and  O3_7 
REMARK    4  A    between atoms: C4_9  and  O4_10 
REMARK    5  A    between atoms: C5_12  and  O5_13 
REMARK    6  A    between atoms: C6_15  and  O6_16 
ROOT
HETATM    1  C2  UNL     1       7.976  37.593  11.660  1.00  0.00     0.179 C 
HETATM    2  O2  UNL     1       7.648  38.664  10.895  1.00  0.00    -0.349 OA
HETATM    3  C3  UNL     1       7.359  38.422   9.575  1.00  0.00     0.288 C 
HETATM    4  C4  UNL     1       6.318  37.375   9.342  1.00  0.00     0.204 C 
HETATM    5  C5  UNL     1       5.959  36.735  10.665  1.00  0.00     0.183 C 
HETATM    6  C6  UNL     1       7.295  36.302  11.254  1.00  0.00     0.180 C 
ENDROOT
BRANCH   1   7
HETATM    7  C1  UNL     1       9.468  37.399  11.834  1.00  0.00     0.198 C 
BRANCH   7   8
HETATM    8  O1  UNL     1       9.710  36.451  12.828  1.00  0.00    -0.398 OA
ATOM      9  H1  UNL     1       9.154  36.621  13.579  1.00  0.00     0.209 HD
ENDBRANCH   7   8
ENDBRANCH   1   7
BRANCH   6  10
HETATM   10  O6  UNL     1       8.064  35.743  10.233  1.00  0.00    -0.390 OA
ATOM     11  H6  UNL     1       8.058  34.803  10.368  1.00  0.00     0.210 HD
ENDBRANCH   6  10
BRANCH   3  12
HETATM   12  O3  UNL     1       8.544  38.156   8.852  1.00  0.00    -0.369 OA
ATOM     13  H3  UNL     1       8.413  38.328   7.927  1.00  0.00     0.212 HD
ENDBRANCH   3  12
BRANCH   5  14
HETATM   14  O5  UNL     1       5.079  35.682  10.537  1.00  0.00    -0.390 OA
ATOM     15  H5  UNL     1       4.435  35.813   9.851  1.00  0.00     0.210 HD
ENDBRANCH   5  14
BRANCH   4  16
HETATM   16  O4  UNL     1       5.213  37.826   8.653  1.00  0.00    -0.388 OA
ATOM     17  H4  UNL     1       4.710  38.486   9.115  1.00  0.00     0.210 HD
ENDBRANCH   4  16
TORSDOF 6
ENDMDL
