MODEL 5
REMARK VINA RESULT: -8.892915298      4.259     10.486
REMARK  14 active torsions:
REMARK  status: ('A' for Active; 'I' for Inactive)
REMARK    1  A    between atoms: C2_2  and  C4_4 
REMARK    2  A    between atoms: C4_4  and  C5_5 
REMARK    3  A    between atoms: C5_5  and  N1_6 
REMARK    4  A    between atoms: C5_5  and  C12_25 
REMARK    5  A    between atoms: N1_6  and  P1_8 
REMARK    6  A    between atoms: P1_8  and  O3_11 
REMARK    7  A    between atoms: O3_11  and  C6_12 
REMARK    8  A    between atoms: C9_16  and  O5_17 
REMARK    9  A    between atoms: C10_19  and  O6_20 
REMARK   10  A    between atoms: C11_22  and  O7_23 
REMARK       I    between atoms: C12_25  and  N2_27 
REMARK   11  A    between atoms: N2_27  and  C13_29 
REMARK   12  A    between atoms: C13_29  and  C14_30 
REMARK   13  A    between atoms: C13_29  and  C23_41 
REMARK   14  A    between atoms: C14_30  and  C15_31 
ROOT
HETATM    1  C5  UNL     1      53.225  18.254  -4.216  1.00  0.00     0.180 C 
ENDROOT
BRANCH   1   2
HETATM    2  C4  UNL     1      53.466  19.052  -3.005  1.00  0.00     0.038 C 
BRANCH   2   3
HETATM    3  C2  UNL     1      53.166  18.553  -1.662  1.00  0.00    -0.020 C 
HETATM    4  C1  UNL     1      51.750  18.774  -1.174  1.00  0.00     0.009 C 
HETATM    5  C3  UNL     1      54.132  18.850  -0.563  1.00  0.00     0.009 C 
ENDBRANCH   2   3
ENDBRANCH   1   2
BRANCH   1   6
HETATM    6  N1  UNL     1      51.805  18.303  -4.582  1.00  0.00    -0.312 N 
ATOM      7  H1  UNL     1      51.095  18.067  -3.888  1.00  0.00     0.166 HD
BRANCH   6   8
HETATM    8  P1  UNL     1      51.347  18.737  -6.113  1.00  0.00     0.362 P 
HETATM    9  O1  UNL     1      52.142  20.068  -6.831  1.00  0.00    -0.630 OA
HETATM   10  O2  UNL     1      52.356  17.851  -6.869  1.00  0.00    -0.630 OA
BRANCH   8  11
HETATM   11  O3  UNL     1      50.099  18.089  -6.927  1.00  0.00    -0.261 OA
BRANCH  11  12
HETATM   12  C6  UNL     1      50.219  17.043  -7.731  1.00  0.00     0.303 C 
HETATM   13  O4  UNL     1      49.264  17.143  -8.754  1.00  0.00    -0.350 OA
HETATM   14  C7  UNL     1      48.047  17.399  -8.113  1.00  0.00     0.152 C 
HETATM   15  C8  UNL     1      46.904  17.517  -9.094  1.00  0.00     0.042 C 
HETATM   16  C9  UNL     1      47.734  16.425  -7.023  1.00  0.00     0.178 C 
HETATM   17  C10 UNL     1      48.608  15.203  -7.206  1.00  0.00     0.183 C 
HETATM   18  C11 UNL     1      50.050  15.682  -7.119  1.00  0.00     0.205 C 
BRANCH  16  19
HETATM   19  O5  UNL     1      48.032  16.952  -5.752  1.00  0.00    -0.390 OA
ATOM     20  H5  UNL     1      48.652  16.407  -5.282  1.00  0.00     0.210 HD
ENDBRANCH  16  19
BRANCH  17  21
HETATM   21  O6  UNL     1      48.321  14.654  -8.451  1.00  0.00    -0.390 OA
ATOM     22  H6  UNL     1      48.984  14.002  -8.643  1.00  0.00     0.210 HD
ENDBRANCH  17  21
BRANCH  18  23
HETATM   23  O7  UNL     1      50.833  14.746  -7.793  1.00  0.00    -0.388 OA
ATOM     24  H7  UNL     1      50.840  13.919  -7.323  1.00  0.00     0.210 HD
ENDBRANCH  18  23
ENDBRANCH  11  12
ENDBRANCH   8  11
ENDBRANCH   6   8
ENDBRANCH   1   6
BRANCH   1  25
HETATM   25  C12 UNL     1      53.526  16.828  -4.070  1.00  0.00     0.241 C 
HETATM   26  O8  UNL     1      54.694  16.457  -3.685  1.00  0.00    -0.271 OA
HETATM   27  N2  UNL     1      52.627  15.740  -4.306  1.00  0.00    -0.344 N 
ATOM     28  H2  UNL     1      51.676  15.929  -4.625  1.00  0.00     0.163 HD
BRANCH  27  29
HETATM   29  C13 UNL     1      53.054  14.389  -4.099  1.00  0.00     0.190 C 
BRANCH  29  30
HETATM   30  C14 UNL     1      52.505  13.958  -2.740  1.00  0.00     0.077 C 
BRANCH  30  31
HETATM   31  C15 UNL     1      53.171  12.732  -2.234  1.00  0.00    -0.028 A 
HETATM   32  C16 UNL     1      54.435  12.247  -2.510  1.00  0.00     0.096 A 
HETATM   33  N3  UNL     1      54.639  11.098  -1.839  1.00  0.00    -0.365 N 
HETATM   34  C17 UNL     1      53.544  10.800  -1.123  1.00  0.00     0.042 A 
ATOM     35  H3  UNL     1      55.493  10.540  -1.871  1.00  0.00     0.165 HD
HETATM   36  C18 UNL     1      53.276   9.739  -0.288  1.00  0.00     0.030 A 
HETATM   37  C22 UNL     1      52.618  11.814  -1.362  1.00  0.00    -0.002 A 
HETATM   38  C19 UNL     1      52.045   9.687   0.329  1.00  0.00     0.002 A 
HETATM   39  C20 UNL     1      51.123  10.677   0.106  1.00  0.00     0.001 A 
HETATM   40  C21 UNL     1      51.402  11.729  -0.729  1.00  0.00     0.014 A 
ENDBRANCH  30  31
ENDBRANCH  29  30
BRANCH  29  41
HETATM   41  C23 UNL     1      52.693  13.434  -5.152  1.00  0.00     0.197 C 
HETATM   42  O9  UNL     1      53.467  12.890  -5.964  1.00  0.00    -0.646 OA
HETATM   43  O10 UNL     1      51.340  13.071  -5.286  1.00  0.00    -0.646 OA
ENDBRANCH  29  41
ENDBRANCH  27  29
ENDBRANCH   1  25
TORSDOF 14
ENDMDL
