MODEL 7
REMARK VINA RESULT: -8.743529641      1.101      1.636
REMARK  14 active torsions:
REMARK  status: ('A' for Active; 'I' for Inactive)
REMARK    1  A    between atoms: C2_2  and  C4_4 
REMARK    2  A    between atoms: C4_4  and  C5_5 
REMARK    3  A    between atoms: C5_5  and  N1_6 
REMARK    4  A    between atoms: C5_5  and  C12_25 
REMARK    5  A    between atoms: N1_6  and  P1_8 
REMARK    6  A    between atoms: P1_8  and  O3_11 
REMARK    7  A    between atoms: O3_11  and  C6_12 
REMARK    8  A    between atoms: C9_16  and  O5_17 
REMARK    9  A    between atoms: C10_19  and  O6_20 
REMARK   10  A    between atoms: C11_22  and  O7_23 
REMARK       I    between atoms: C12_25  and  N2_27 
REMARK   11  A    between atoms: N2_27  and  C13_29 
REMARK   12  A    between atoms: C13_29  and  C14_30 
REMARK   13  A    between atoms: C13_29  and  C23_41 
REMARK   14  A    between atoms: C14_30  and  C15_31 
ROOT
HETATM    1  C5  UNL     1      50.926  17.429  -7.234  1.00  0.00     0.180 C 
ENDROOT
BRANCH   1   2
HETATM    2  C4  UNL     1      50.208  16.243  -6.747  1.00  0.00     0.038 C 
BRANCH   2   3
HETATM    3  C2  UNL     1      50.334  14.931  -7.384  1.00  0.00    -0.020 C 
HETATM    4  C1  UNL     1      49.049  14.322  -7.906  1.00  0.00     0.009 C 
HETATM    5  C3  UNL     1      51.148  13.884  -6.698  1.00  0.00     0.009 C 
ENDBRANCH   2   3
ENDBRANCH   1   2
BRANCH   1   6
HETATM    6  N1  UNL     1      51.244  18.325  -6.116  1.00  0.00    -0.312 N 
ATOM      7  H1  UNL     1      50.775  19.228  -6.042  1.00  0.00     0.166 HD
BRANCH   6   8
HETATM    8  P1  UNL     1      52.358  17.881  -4.974  1.00  0.00     0.362 P 
HETATM    9  O1  UNL     1      53.055  16.327  -5.109  1.00  0.00    -0.630 OA
HETATM   10  O2  UNL     1      53.605  18.398  -5.718  1.00  0.00    -0.630 OA
BRANCH   8  11
HETATM   11  O3  UNL     1      52.729  18.750  -3.653  1.00  0.00    -0.261 OA
BRANCH  11  12
HETATM   12  C6  UNL     1      53.861  18.603  -2.980  1.00  0.00     0.303 C 
HETATM   13  O4  UNL     1      53.807  17.403  -2.256  1.00  0.00    -0.350 OA
HETATM   14  C7  UNL     1      52.584  17.424  -1.576  1.00  0.00     0.152 C 
HETATM   15  C8  UNL     1      52.386  16.189  -0.728  1.00  0.00     0.042 C 
HETATM   16  C9  UNL     1      52.368  18.673  -0.783  1.00  0.00     0.178 C 
HETATM   17  C10 UNL     1      53.703  19.363  -0.602  1.00  0.00     0.183 C 
HETATM   18  C11 UNL     1      54.222  19.680  -1.997  1.00  0.00     0.205 C 
BRANCH  16  19
HETATM   19  O5  UNL     1      51.528  19.580  -1.458  1.00  0.00    -0.390 OA
ATOM     20  H5  UNL     1      51.472  20.411  -1.003  1.00  0.00     0.210 HD
ENDBRANCH  16  19
BRANCH  17  21
HETATM   21  O6  UNL     1      54.547  18.492   0.077  1.00  0.00    -0.390 OA
ATOM     22  H6  UNL     1      55.262  19.000   0.441  1.00  0.00     0.210 HD
ENDBRANCH  17  21
BRANCH  18  23
HETATM   23  O7  UNL     1      55.607  19.804  -1.899  1.00  0.00    -0.388 OA
ATOM     24  H7  UNL     1      55.838  20.606  -1.444  1.00  0.00     0.210 HD
ENDBRANCH  18  23
ENDBRANCH  11  12
ENDBRANCH   8  11
ENDBRANCH   6   8
ENDBRANCH   1   6
BRANCH   1  25
HETATM   25  C12 UNL     1      50.163  18.256  -8.172  1.00  0.00     0.241 C 
HETATM   26  O8  UNL     1      50.329  19.529  -8.185  1.00  0.00    -0.271 OA
HETATM   27  N2  UNL     1      49.214  17.791  -9.137  1.00  0.00    -0.344 N 
ATOM     28  H2  UNL     1      49.004  16.795  -9.203  1.00  0.00     0.163 HD
BRANCH  27  29
HETATM   29  C13 UNL     1      48.558  18.716 -10.012  1.00  0.00     0.190 C 
BRANCH  29  30
HETATM   30  C14 UNL     1      48.891  18.285 -11.439  1.00  0.00     0.077 C 
BRANCH  30  31
HETATM   31  C15 UNL     1      48.913  19.434 -12.377  1.00  0.00    -0.028 A 
HETATM   32  C16 UNL     1      48.103  19.688 -13.468  1.00  0.00     0.096 A 
HETATM   33  N3  UNL     1      48.468  20.847 -14.047  1.00  0.00    -0.365 N 
HETATM   34  C17 UNL     1      49.502  21.375 -13.374  1.00  0.00     0.042 A 
ATOM     35  H3  UNL     1      48.027  21.259 -14.870  1.00  0.00     0.165 HD
HETATM   36  C18 UNL     1      50.212  22.535 -13.580  1.00  0.00     0.030 A 
HETATM   37  C22 UNL     1      49.790  20.501 -12.327  1.00  0.00    -0.002 A 
HETATM   38  C19 UNL     1      51.244  22.835 -12.717  1.00  0.00     0.002 A 
HETATM   39  C20 UNL     1      51.540  21.985 -11.681  1.00  0.00     0.001 A 
HETATM   40  C21 UNL     1      50.824  20.832 -11.486  1.00  0.00     0.014 A 
ENDBRANCH  30  31
ENDBRANCH  29  30
BRANCH  29  41
HETATM   41  C23 UNL     1      47.112  18.865  -9.818  1.00  0.00     0.197 C 
HETATM   42  O9  UNL     1      46.397  19.805 -10.218  1.00  0.00    -0.646 OA
HETATM   43  O10 UNL     1      46.427  17.857  -9.112  1.00  0.00    -0.646 OA
ENDBRANCH  29  41
ENDBRANCH  27  29
ENDBRANCH   1  25
TORSDOF 14
ENDMDL
