MODEL 6
REMARK VINA RESULT: -8.825100830      2.085      3.798
REMARK  14 active torsions:
REMARK  status: ('A' for Active; 'I' for Inactive)
REMARK    1  A    between atoms: C2_2  and  C4_4 
REMARK    2  A    between atoms: C4_4  and  C5_5 
REMARK    3  A    between atoms: C5_5  and  N1_6 
REMARK    4  A    between atoms: C5_5  and  C12_25 
REMARK    5  A    between atoms: N1_6  and  P1_8 
REMARK    6  A    between atoms: P1_8  and  O3_11 
REMARK    7  A    between atoms: O3_11  and  C6_12 
REMARK    8  A    between atoms: C9_16  and  O5_17 
REMARK    9  A    between atoms: C10_19  and  O6_20 
REMARK   10  A    between atoms: C11_22  and  O7_23 
REMARK       I    between atoms: C12_25  and  N2_27 
REMARK   11  A    between atoms: N2_27  and  C13_29 
REMARK   12  A    between atoms: C13_29  and  C14_30 
REMARK   13  A    between atoms: C13_29  and  C23_41 
REMARK   14  A    between atoms: C14_30  and  C15_31 
ROOT
HETATM    1  C5  UNL     1      50.784  18.175  -7.268  1.00  0.00     0.180 C 
ENDROOT
BRANCH   1   2
HETATM    2  C4  UNL     1      49.408  17.863  -6.853  1.00  0.00     0.038 C 
BRANCH   2   3
HETATM    3  C2  UNL     1      48.842  16.517  -6.960  1.00  0.00    -0.020 C 
HETATM    4  C1  UNL     1      49.040  15.820  -8.289  1.00  0.00     0.009 C 
HETATM    5  C3  UNL     1      47.449  16.294  -6.473  1.00  0.00     0.009 C 
ENDBRANCH   2   3
ENDBRANCH   1   2
BRANCH   1   6
HETATM    6  N1  UNL     1      51.464  18.954  -6.226  1.00  0.00    -0.312 N 
ATOM      7  H1  UNL     1      51.385  19.971  -6.222  1.00  0.00     0.166 HD
BRANCH   6   8
HETATM    8  P1  UNL     1      52.359  18.193  -5.059  1.00  0.00     0.362 P 
HETATM    9  O1  UNL     1      52.786  16.560  -5.325  1.00  0.00    -0.630 OA
HETATM   10  O2  UNL     1      53.747  18.548  -5.626  1.00  0.00    -0.630 OA
BRANCH   8  11
HETATM   11  O3  UNL     1      52.735  18.834  -3.614  1.00  0.00    -0.261 OA
BRANCH  11  12
HETATM   12  C6  UNL     1      53.876  18.591  -2.986  1.00  0.00     0.303 C 
HETATM   13  O4  UNL     1      53.762  17.381  -2.286  1.00  0.00    -0.350 OA
HETATM   14  C7  UNL     1      52.568  17.472  -1.562  1.00  0.00     0.152 C 
HETATM   15  C8  UNL     1      52.312  16.234  -0.733  1.00  0.00     0.042 C 
HETATM   16  C9  UNL     1      52.469  18.714  -0.735  1.00  0.00     0.178 C 
HETATM   17  C10 UNL     1      53.856  19.303  -0.589  1.00  0.00     0.183 C 
HETATM   18  C11 UNL     1      54.347  19.617  -1.994  1.00  0.00     0.205 C 
BRANCH  16  19
HETATM   19  O5  UNL     1      51.674  19.693  -1.359  1.00  0.00    -0.390 OA
ATOM     20  H5  UNL     1      52.188  20.446  -1.626  1.00  0.00     0.210 HD
ENDBRANCH  16  19
BRANCH  17  21
HETATM   21  O6  UNL     1      54.659  18.359   0.041  1.00  0.00    -0.390 OA
ATOM     22  H6  UNL     1      54.478  17.513  -0.350  1.00  0.00     0.210 HD
ENDBRANCH  17  21
BRANCH  18  23
HETATM   23  O7  UNL     1      55.740  19.640  -1.944  1.00  0.00    -0.388 OA
ATOM     24  H7  UNL     1      56.081  20.335  -2.496  1.00  0.00     0.210 HD
ENDBRANCH  18  23
ENDBRANCH  11  12
ENDBRANCH   8  11
ENDBRANCH   6   8
ENDBRANCH   1   6
BRANCH   1  25
HETATM   25  C12 UNL     1      50.879  18.999  -8.475  1.00  0.00     0.241 C 
HETATM   26  O8  UNL     1      51.945  19.679  -8.704  1.00  0.00    -0.271 OA
HETATM   27  N2  UNL     1      49.881  19.137  -9.491  1.00  0.00    -0.344 N 
ATOM     28  H2  UNL     1      48.993  18.645  -9.400  1.00  0.00     0.163 HD
BRANCH  27  29
HETATM   29  C13 UNL     1      50.122  19.963 -10.636  1.00  0.00     0.190 C 
BRANCH  29  30
HETATM   30  C14 UNL     1      48.860  19.905 -11.495  1.00  0.00     0.077 C 
BRANCH  30  31
HETATM   31  C15 UNL     1      48.321  18.527 -11.599  1.00  0.00    -0.028 A 
HETATM   32  C16 UNL     1      48.708  17.498 -12.437  1.00  0.00     0.096 A 
HETATM   33  N3  UNL     1      47.951  16.410 -12.204  1.00  0.00    -0.365 N 
HETATM   34  C17 UNL     1      47.066  16.683 -11.232  1.00  0.00     0.042 A 
ATOM     35  H3  UNL     1      48.036  15.517 -12.690  1.00  0.00     0.165 HD
HETATM   36  C18 UNL     1      46.094  15.900 -10.654  1.00  0.00     0.030 A 
HETATM   37  C22 UNL     1      47.287  18.004 -10.846  1.00  0.00    -0.002 A 
HETATM   38  C19 UNL     1      45.316  16.450  -9.658  1.00  0.00     0.002 A 
HETATM   39  C20 UNL     1      45.521  17.748  -9.265  1.00  0.00     0.001 A 
HETATM   40  C21 UNL     1      46.493  18.518  -9.850  1.00  0.00     0.014 A 
ENDBRANCH  30  31
ENDBRANCH  29  30
BRANCH  29  41
HETATM   41  C23 UNL     1      50.519  21.347 -10.356  1.00  0.00     0.197 C 
HETATM   42  O9  UNL     1      50.052  22.094  -9.474  1.00  0.00    -0.646 OA
HETATM   43  O10 UNL     1      51.530  21.923 -11.148  1.00  0.00    -0.646 OA
ENDBRANCH  29  41
ENDBRANCH  27  29
ENDBRANCH   1  25
TORSDOF 14
ENDMDL
