MODEL 1
REMARK VINA RESULT: -9.342181848      0.000      0.000
REMARK  14 active torsions:
REMARK  status: ('A' for Active; 'I' for Inactive)
REMARK    1  A    between atoms: C2_2  and  C4_4 
REMARK    2  A    between atoms: C4_4  and  C5_5 
REMARK    3  A    between atoms: C5_5  and  N1_6 
REMARK    4  A    between atoms: C5_5  and  C12_25 
REMARK    5  A    between atoms: N1_6  and  P1_8 
REMARK    6  A    between atoms: P1_8  and  O3_11 
REMARK    7  A    between atoms: O3_11  and  C6_12 
REMARK    8  A    between atoms: C9_16  and  O5_17 
REMARK    9  A    between atoms: C10_19  and  O6_20 
REMARK   10  A    between atoms: C11_22  and  O7_23 
REMARK       I    between atoms: C12_25  and  N2_27 
REMARK   11  A    between atoms: N2_27  and  C13_29 
REMARK   12  A    between atoms: C13_29  and  C14_30 
REMARK   13  A    between atoms: C13_29  and  C23_41 
REMARK   14  A    between atoms: C14_30  and  C15_31 
ROOT
HETATM    1  C5  UNL     1      50.775  17.812  -7.216  1.00  0.00     0.180 C 
ENDROOT
BRANCH   1   2
HETATM    2  C4  UNL     1      49.879  16.926  -6.458  1.00  0.00     0.038 C 
BRANCH   2   3
HETATM    3  C2  UNL     1      48.771  16.204  -7.087  1.00  0.00    -0.020 C 
HETATM    4  C1  UNL     1      47.424  16.342  -6.411  1.00  0.00     0.009 C 
HETATM    5  C3  UNL     1      48.990  14.785  -7.495  1.00  0.00     0.009 C 
ENDBRANCH   2   3
ENDBRANCH   1   2
BRANCH   1   6
HETATM    6  N1  UNL     1      51.519  18.685  -6.302  1.00  0.00    -0.312 N 
ATOM      7  H1  UNL     1      51.481  19.697  -6.425  1.00  0.00     0.166 HD
BRANCH   6   8
HETATM    8  P1  UNL     1      52.421  18.039  -5.072  1.00  0.00     0.362 P 
HETATM    9  O1  UNL     1      52.911  16.409  -5.220  1.00  0.00    -0.630 OA
HETATM   10  O2  UNL     1      53.805  18.406  -5.641  1.00  0.00    -0.630 OA
BRANCH   8  11
HETATM   11  O3  UNL     1      52.748  18.789  -3.668  1.00  0.00    -0.261 OA
BRANCH  11  12
HETATM   12  C6  UNL     1      53.881  18.624  -3.002  1.00  0.00     0.303 C 
HETATM   13  O4  UNL     1      53.822  17.412  -2.298  1.00  0.00    -0.350 OA
HETATM   14  C7  UNL     1      52.602  17.430  -1.613  1.00  0.00     0.152 C 
HETATM   15  C8  UNL     1      52.399  16.183  -0.784  1.00  0.00     0.042 C 
HETATM   16  C9  UNL     1      52.397  18.667  -0.799  1.00  0.00     0.178 C 
HETATM   17  C10 UNL     1      53.737  19.345  -0.612  1.00  0.00     0.183 C 
HETATM   18  C11 UNL     1      54.253  19.682  -2.004  1.00  0.00     0.205 C 
BRANCH  16  19
HETATM   19  O5  UNL     1      51.561  19.590  -1.456  1.00  0.00    -0.390 OA
ATOM     20  H5  UNL     1      51.695  20.475  -1.137  1.00  0.00     0.210 HD
ENDBRANCH  16  19
BRANCH  17  21
HETATM   21  O6  UNL     1      54.578  18.458   0.050  1.00  0.00    -0.390 OA
ATOM     22  H6  UNL     1      55.084  18.952   0.684  1.00  0.00     0.210 HD
ENDBRANCH  17  21
BRANCH  18  23
HETATM   23  O7  UNL     1      55.639  19.795  -1.909  1.00  0.00    -0.388 OA
ATOM     24  H7  UNL     1      55.875  20.469  -1.282  1.00  0.00     0.210 HD
ENDBRANCH  18  23
ENDBRANCH  11  12
ENDBRANCH   8  11
ENDBRANCH   6   8
ENDBRANCH   1   6
BRANCH   1  25
HETATM   25  C12 UNL     1      50.088  18.725  -8.133  1.00  0.00     0.241 C 
HETATM   26  O8  UNL     1      50.174  19.995  -7.955  1.00  0.00    -0.271 OA
HETATM   27  N2  UNL     1      49.301  18.357  -9.270  1.00  0.00    -0.344 N 
ATOM     28  H2  UNL     1      49.163  17.372  -9.493  1.00  0.00     0.163 HD
BRANCH  27  29
HETATM   29  C13 UNL     1      48.706  19.365 -10.096  1.00  0.00     0.190 C 
BRANCH  29  30
HETATM   30  C14 UNL     1      49.327  19.220 -11.484  1.00  0.00     0.077 C 
BRANCH  30  31
HETATM   31  C15 UNL     1      50.176  20.384 -11.839  1.00  0.00    -0.028 A 
HETATM   32  C16 UNL     1      51.045  21.106 -11.043  1.00  0.00     0.096 A 
HETATM   33  N3  UNL     1      51.616  22.088 -11.765  1.00  0.00    -0.365 N 
HETATM   34  C17 UNL     1      51.151  22.043 -13.023  1.00  0.00     0.042 A 
ATOM     35  H3  UNL     1      52.296  22.761 -11.411  1.00  0.00     0.165 HD
HETATM   36  C18 UNL     1      51.434  22.830 -14.116  1.00  0.00     0.030 A 
HETATM   37  C22 UNL     1      50.249  20.982 -13.082  1.00  0.00    -0.002 A 
HETATM   38  C19 UNL     1      50.798  22.551 -15.306  1.00  0.00     0.002 A 
HETATM   39  C20 UNL     1      49.909  21.510 -15.382  1.00  0.00     0.001 A 
HETATM   40  C21 UNL     1      49.635  20.733 -14.285  1.00  0.00     0.014 A 
ENDBRANCH  30  31
ENDBRANCH  29  30
BRANCH  29  41
HETATM   41  C23 UNL     1      47.241  19.358 -10.159  1.00  0.00     0.197 C 
HETATM   42  O9  UNL     1      46.520  20.091 -10.864  1.00  0.00    -0.646 OA
HETATM   43  O10 UNL     1      46.544  18.440  -9.351  1.00  0.00    -0.646 OA
ENDBRANCH  29  41
ENDBRANCH  27  29
ENDBRANCH   1  25
TORSDOF 14
ENDMDL
