MODEL 3
REMARK VINA RESULT: -8.071252164      2.336      4.266
REMARK  13 active torsions:
REMARK  status: ('A' for Active; 'I' for Inactive)
REMARK    1  A    between atoms: C2_2  and  C4_4 
REMARK    2  A    between atoms: C4_4  and  C5_5 
REMARK    3  A    between atoms: C5_5  and  N1_6 
REMARK    4  A    between atoms: C5_5  and  C16_21 
REMARK    5  A    between atoms: N1_6  and  C6_9 
REMARK    6  A    between atoms: C6_9  and  C7_10 
REMARK    7  A    between atoms: C6_9  and  C15_18 
REMARK    8  A    between atoms: C7_10  and  C8_11 
REMARK    9  A    between atoms: C8_11  and  C9_12 
REMARK       I    between atoms: C16_21  and  N2_23 
REMARK   10  A    between atoms: N2_23  and  C17_25 
REMARK   11  A    between atoms: C17_25  and  C18_26 
REMARK   12  A    between atoms: C17_25  and  C27_37 
REMARK   13  A    between atoms: C18_26  and  C19_27 
ROOT
HETATM    1  C5  UNL     1      50.307  18.285  -7.589  1.00  0.00     0.278 C 
ENDROOT
BRANCH   1   2
HETATM    2  C4  UNL     1      49.509  17.021  -7.367  1.00  0.00     0.046 C 
BRANCH   2   3
HETATM    3  C2  UNL     1      48.104  16.990  -7.808  1.00  0.00    -0.020 C 
HETATM    4  C1  UNL     1      47.341  16.315  -6.614  1.00  0.00     0.009 C 
HETATM    5  C3  UNL     1      47.777  16.056  -8.953  1.00  0.00     0.009 C 
ENDBRANCH   2   3
ENDBRANCH   1   2
BRANCH   1   6
HETATM    6  N1  UNL     1      50.725  18.541  -8.916  1.00  0.00    -0.048 N 
ATOM      7  H12 UNL     1      51.741  18.582  -8.998  1.00  0.00     0.279 HD
ATOM      8  H11 UNL     1      50.562  17.744  -9.531  1.00  0.00     0.279 HD
BRANCH   6   9
HETATM    9  C6  UNL     1      50.056  19.809  -9.427  1.00  0.00     0.287 C 
BRANCH   9  10
HETATM   10  C7  UNL     1      51.127  20.580 -10.128  1.00  0.00     0.049 C 
BRANCH  10  11
HETATM   11  C8  UNL     1      50.694  21.789 -10.843  1.00  0.00     0.041 C 
BRANCH  11  12
HETATM   12  C9  UNL     1      50.837  21.897 -12.289  1.00  0.00    -0.058 A 
HETATM   13  C10 UNL     1      50.032  21.272 -13.217  1.00  0.00     0.007 A 
HETATM   14  C11 UNL     1      50.244  21.432 -14.561  1.00  0.00     0.001 A 
HETATM   15  C12 UNL     1      51.266  22.220 -15.051  1.00  0.00     0.000 A 
HETATM   16  C13 UNL     1      52.085  22.855 -14.148  1.00  0.00     0.001 A 
HETATM   17  C14 UNL     1      51.864  22.688 -12.799  1.00  0.00     0.007 A 
ENDBRANCH  11  12
ENDBRANCH  10  11
ENDBRANCH   9  10
BRANCH   9  18
HETATM   18  C15 UNL     1      49.113  19.239 -10.411  1.00  0.00     0.204 C 
HETATM   19  O1  UNL     1      49.531  18.375 -11.216  1.00  0.00    -0.646 OA
HETATM   20  O2  UNL     1      47.805  19.627 -10.451  1.00  0.00    -0.646 OA
ENDBRANCH   9  18
ENDBRANCH   6   9
ENDBRANCH   1   6
BRANCH   1  21
HETATM   21  C16 UNL     1      51.489  18.147  -6.699  1.00  0.00     0.249 C 
HETATM   22  O3  UNL     1      52.609  18.479  -7.182  1.00  0.00    -0.271 OA
HETATM   23  N2  UNL     1      51.406  17.677  -5.381  1.00  0.00    -0.344 N 
ATOM     24  H2  UNL     1      50.501  17.414  -4.990  1.00  0.00     0.163 HD
BRANCH  23  25
HETATM   25  C17 UNL     1      52.634  17.561  -4.552  1.00  0.00     0.190 C 
BRANCH  25  26
HETATM   26  C18 UNL     1      52.256  18.062  -3.180  1.00  0.00     0.077 C 
BRANCH  26  27
HETATM   27  C19 UNL     1      53.389  18.494  -2.370  1.00  0.00    -0.028 A 
HETATM   28  C20 UNL     1      54.498  19.165  -2.831  1.00  0.00     0.096 A 
HETATM   29  N3  UNL     1      55.312  19.378  -1.761  1.00  0.00    -0.365 N 
HETATM   30  C21 UNL     1      54.754  18.866  -0.648  1.00  0.00     0.042 A 
ATOM     31  H3  UNL     1      56.212  19.856  -1.797  1.00  0.00     0.165 HD
HETATM   32  C22 UNL     1      55.204  18.841   0.661  1.00  0.00     0.030 A 
HETATM   33  C26 UNL     1      53.530  18.298  -1.014  1.00  0.00    -0.002 A 
HETATM   34  C23 UNL     1      54.451  18.251   1.646  1.00  0.00     0.002 A 
HETATM   35  C24 UNL     1      53.251  17.695   1.289  1.00  0.00     0.001 A 
HETATM   36  C25 UNL     1      52.791  17.712  -0.006  1.00  0.00     0.014 A 
ENDBRANCH  26  27
ENDBRANCH  25  26
BRANCH  25  37
HETATM   37  C27 UNL     1      53.005  16.137  -4.415  1.00  0.00     0.197 C 
HETATM   38  O4  UNL     1      54.137  15.839  -3.982  1.00  0.00    -0.646 OA
HETATM   39  O5  UNL     1      52.092  15.165  -4.768  1.00  0.00    -0.646 OA
ENDBRANCH  25  37
ENDBRANCH  23  25
ENDBRANCH   1  21
TORSDOF 13
ENDMDL
