MODEL 1
REMARK VINA RESULT: -8.156178051      0.000      0.000
REMARK  13 active torsions:
REMARK  status: ('A' for Active; 'I' for Inactive)
REMARK    1  A    between atoms: C2_2  and  C4_4 
REMARK    2  A    between atoms: C4_4  and  C5_5 
REMARK    3  A    between atoms: C5_5  and  N1_6 
REMARK    4  A    between atoms: C5_5  and  C16_21 
REMARK    5  A    between atoms: N1_6  and  C6_9 
REMARK    6  A    between atoms: C6_9  and  C7_10 
REMARK    7  A    between atoms: C6_9  and  C15_18 
REMARK    8  A    between atoms: C7_10  and  C8_11 
REMARK    9  A    between atoms: C8_11  and  C9_12 
REMARK       I    between atoms: C16_21  and  N2_23 
REMARK   10  A    between atoms: N2_23  and  C17_25 
REMARK   11  A    between atoms: C17_25  and  C18_26 
REMARK   12  A    between atoms: C17_25  and  C27_37 
REMARK   13  A    between atoms: C18_26  and  C19_27 
ROOT
HETATM    1  C5  UNL     1      50.255  17.631  -7.681  1.00  0.00     0.278 C 
ENDROOT
BRANCH   1   2
HETATM    2  C4  UNL     1      50.773  16.981  -8.944  1.00  0.00     0.046 C 
BRANCH   2   3
HETATM    3  C2  UNL     1      50.522  15.543  -9.147  1.00  0.00    -0.020 C 
HETATM    4  C1  UNL     1      49.656  15.486 -10.455  1.00  0.00     0.009 C 
HETATM    5  C3  UNL     1      49.614  14.868  -8.142  1.00  0.00     0.009 C 
ENDBRANCH   2   3
ENDBRANCH   1   2
BRANCH   1   6
HETATM    6  N1  UNL     1      49.656  18.905  -7.830  1.00  0.00    -0.048 N 
ATOM      7  H12 UNL     1      48.721  18.939  -7.425  1.00  0.00     0.279 HD
ATOM      8  H11 UNL     1      50.097  19.608  -7.237  1.00  0.00     0.279 HD
BRANCH   6   9
HETATM    9  C6  UNL     1      49.663  19.304  -9.298  1.00  0.00     0.287 C 
BRANCH   9  10
HETATM   10  C7  UNL     1      48.231  19.526  -9.665  1.00  0.00     0.049 C 
BRANCH  10  11
HETATM   11  C8  UNL     1      47.505  18.357 -10.182  1.00  0.00     0.041 C 
BRANCH  11  12
HETATM   12  C9  UNL     1      46.451  17.723  -9.400  1.00  0.00    -0.058 A 
HETATM   13  C10 UNL     1      46.650  16.946  -8.279  1.00  0.00     0.007 A 
HETATM   14  C11 UNL     1      45.594  16.389  -7.607  1.00  0.00     0.001 A 
HETATM   15  C12 UNL     1      44.287  16.575  -8.015  1.00  0.00     0.000 A 
HETATM   16  C13 UNL     1      44.060  17.345  -9.130  1.00  0.00     0.001 A 
HETATM   17  C14 UNL     1      45.127  17.901  -9.799  1.00  0.00     0.007 A 
ENDBRANCH  11  12
ENDBRANCH  10  11
ENDBRANCH   9  10
BRANCH   9  18
HETATM   18  C15 UNL     1      50.375  20.597  -9.224  1.00  0.00     0.204 C 
HETATM   19  O1  UNL     1      49.960  21.468  -8.427  1.00  0.00    -0.646 OA
HETATM   20  O2  UNL     1      51.471  20.850  -9.997  1.00  0.00    -0.646 OA
ENDBRANCH   9  18
ENDBRANCH   6   9
ENDBRANCH   1   6
BRANCH   1  21
HETATM   21  C16 UNL     1      51.441  17.726  -6.792  1.00  0.00     0.249 C 
HETATM   22  O3  UNL     1      52.465  18.296  -7.265  1.00  0.00    -0.271 OA
HETATM   23  N2  UNL     1      51.461  17.221  -5.484  1.00  0.00    -0.344 N 
ATOM     24  H2  UNL     1      50.632  16.766  -5.101  1.00  0.00     0.163 HD
BRANCH  23  25
HETATM   25  C17 UNL     1      52.688  17.349  -4.654  1.00  0.00     0.190 C 
BRANCH  25  26
HETATM   26  C18 UNL     1      52.254  18.024  -3.376  1.00  0.00     0.077 C 
BRANCH  26  27
HETATM   27  C19 UNL     1      53.358  18.469  -2.534  1.00  0.00    -0.028 A 
HETATM   28  C20 UNL     1      54.466  19.165  -2.960  1.00  0.00     0.096 A 
HETATM   29  N3  UNL     1      55.248  19.383  -1.868  1.00  0.00    -0.365 N 
HETATM   30  C21 UNL     1      54.671  18.850  -0.773  1.00  0.00     0.042 A 
ATOM     31  H3  UNL     1      56.140  19.878  -1.876  1.00  0.00     0.165 HD
HETATM   32  C22 UNL     1      55.088  18.821   0.547  1.00  0.00     0.030 A 
HETATM   33  C26 UNL     1      53.468  18.263  -1.176  1.00  0.00    -0.002 A 
HETATM   34  C23 UNL     1      54.321  18.209   1.506  1.00  0.00     0.002 A 
HETATM   35  C24 UNL     1      53.141  17.634   1.114  1.00  0.00     0.001 A 
HETATM   36  C25 UNL     1      52.714  17.654  -0.192  1.00  0.00     0.014 A 
ENDBRANCH  26  27
ENDBRANCH  25  26
BRANCH  25  37
HETATM   37  C27 UNL     1      53.184  16.003  -4.296  1.00  0.00     0.197 C 
HETATM   38  O4  UNL     1      54.414  15.807  -4.218  1.00  0.00    -0.646 OA
HETATM   39  O5  UNL     1      52.278  14.992  -4.056  1.00  0.00    -0.646 OA
ENDBRANCH  25  37
ENDBRANCH  23  25
ENDBRANCH   1  21
TORSDOF 13
ENDMDL
