MODEL 19
REMARK VINA RESULT: -7.453818066      3.652      5.657
REMARK  13 active torsions:
REMARK  status: ('A' for Active; 'I' for Inactive)
REMARK    1  A    between atoms: C2_2  and  C4_4 
REMARK    2  A    between atoms: C4_4  and  C5_5 
REMARK    3  A    between atoms: C5_5  and  N1_6 
REMARK    4  A    between atoms: C5_5  and  C16_21 
REMARK    5  A    between atoms: N1_6  and  C6_9 
REMARK    6  A    between atoms: C6_9  and  C7_10 
REMARK    7  A    between atoms: C6_9  and  C15_18 
REMARK    8  A    between atoms: C7_10  and  C8_11 
REMARK    9  A    between atoms: C8_11  and  C9_12 
REMARK       I    between atoms: C16_21  and  N2_23 
REMARK   10  A    between atoms: N2_23  and  C17_25 
REMARK   11  A    between atoms: C17_25  and  C18_26 
REMARK   12  A    between atoms: C17_25  and  C27_37 
REMARK   13  A    between atoms: C18_26  and  C19_27 
ROOT
HETATM    1  C5  UNL     1      52.942  17.990  -4.306  1.00  0.00     0.278 C 
ENDROOT
BRANCH   1   2
HETATM    2  C4  UNL     1      53.277  18.862  -3.117  1.00  0.00     0.046 C 
BRANCH   2   3
HETATM    3  C2  UNL     1      53.091  18.308  -1.764  1.00  0.00    -0.020 C 
HETATM    4  C1  UNL     1      51.702  18.876  -1.304  1.00  0.00     0.009 C 
HETATM    5  C3  UNL     1      54.015  18.834  -0.687  1.00  0.00     0.009 C 
ENDBRANCH   2   3
ENDBRANCH   1   2
BRANCH   1   6
HETATM    6  N1  UNL     1      51.575  17.907  -4.659  1.00  0.00    -0.048 N 
ATOM      7  H12 UNL     1      51.060  17.267  -4.055  1.00  0.00     0.279 HD
ATOM      8  H11 UNL     1      51.066  18.761  -4.434  1.00  0.00     0.279 HD
BRANCH   6   9
HETATM    9  C6  UNL     1      51.450  17.534  -6.130  1.00  0.00     0.287 C 
BRANCH   9  10
HETATM   10  C7  UNL     1      50.084  16.948  -6.285  1.00  0.00     0.049 C 
BRANCH  10  11
HETATM   11  C8  UNL     1      49.575  16.846  -7.661  1.00  0.00     0.041 C 
BRANCH  11  12
HETATM   12  C9  UNL     1      48.144  16.885  -7.935  1.00  0.00    -0.058 A 
HETATM   13  C10 UNL     1      47.173  16.256  -7.185  1.00  0.00     0.007 A 
HETATM   14  C11 UNL     1      45.848  16.349  -7.522  1.00  0.00     0.001 A 
HETATM   15  C12 UNL     1      45.421  17.070  -8.619  1.00  0.00     0.000 A 
HETATM   16  C13 UNL     1      46.368  17.706  -9.385  1.00  0.00     0.001 A 
HETATM   17  C14 UNL     1      47.697  17.608  -9.040  1.00  0.00     0.007 A 
ENDBRANCH  11  12
ENDBRANCH  10  11
ENDBRANCH   9  10
BRANCH   9  18
HETATM   18  C15 UNL     1      51.502  18.873  -6.753  1.00  0.00     0.204 C 
HETATM   19  O1  UNL     1      50.607  19.703  -6.475  1.00  0.00    -0.646 OA
HETATM   20  O2  UNL     1      52.506  19.218  -7.611  1.00  0.00    -0.646 OA
ENDBRANCH   9  18
ENDBRANCH   6   9
ENDBRANCH   1   6
BRANCH   1  21
HETATM   21  C16 UNL     1      53.459  16.645  -3.945  1.00  0.00     0.249 C 
HETATM   22  O3  UNL     1      54.702  16.548  -3.738  1.00  0.00    -0.271 OA
HETATM   23  N2  UNL     1      52.639  15.515  -3.827  1.00  0.00    -0.344 N 
ATOM     24  H2  UNL     1      51.634  15.595  -3.988  1.00  0.00     0.163 HD
BRANCH  23  25
HETATM   25  C17 UNL     1      53.230  14.199  -3.467  1.00  0.00     0.190 C 
BRANCH  25  26
HETATM   26  C18 UNL     1      52.062  13.267  -3.249  1.00  0.00     0.077 C 
BRANCH  26  27
HETATM   27  C19 UNL     1      52.127  12.513  -2.002  1.00  0.00    -0.028 A 
HETATM   28  C20 UNL     1      53.178  12.515  -1.115  1.00  0.00     0.096 A 
HETATM   29  N3  UNL     1      52.839  11.685  -0.091  1.00  0.00    -0.365 N 
HETATM   30  C21 UNL     1      51.616  11.165  -0.303  1.00  0.00     0.042 A 
ATOM     31  H3  UNL     1      53.426  11.487   0.720  1.00  0.00     0.165 HD
HETATM   32  C22 UNL     1      50.863  10.283   0.454  1.00  0.00     0.030 A 
HETATM   33  C26 UNL     1      51.145  11.679  -1.515  1.00  0.00    -0.002 A 
HETATM   34  C23 UNL     1      49.620   9.885   0.029  1.00  0.00     0.002 A 
HETATM   35  C24 UNL     1      49.157  10.388  -1.158  1.00  0.00     0.001 A 
HETATM   36  C25 UNL     1      49.892  11.265  -1.920  1.00  0.00     0.014 A 
ENDBRANCH  26  27
ENDBRANCH  25  26
BRANCH  25  37
HETATM   37  C27 UNL     1      54.004  13.675  -4.612  1.00  0.00     0.197 C 
HETATM   38  O4  UNL     1      53.443  13.539  -5.718  1.00  0.00    -0.646 OA
HETATM   39  O5  UNL     1      55.331  13.346  -4.434  1.00  0.00    -0.646 OA
ENDBRANCH  25  37
ENDBRANCH  23  25
ENDBRANCH   1  21
TORSDOF 13
ENDMDL
