MODEL 2
REMARK VINA RESULT: -8.092751107      1.806      8.924
REMARK  13 active torsions:
REMARK  status: ('A' for Active; 'I' for Inactive)
REMARK    1  A    between atoms: C2_2  and  C4_4 
REMARK    2  A    between atoms: C4_4  and  C5_5 
REMARK    3  A    between atoms: C5_5  and  N1_6 
REMARK    4  A    between atoms: C5_5  and  C16_21 
REMARK    5  A    between atoms: N1_6  and  C6_9 
REMARK    6  A    between atoms: C6_9  and  C7_10 
REMARK    7  A    between atoms: C6_9  and  C15_18 
REMARK    8  A    between atoms: C7_10  and  C8_11 
REMARK    9  A    between atoms: C8_11  and  C9_12 
REMARK       I    between atoms: C16_21  and  N2_23 
REMARK   10  A    between atoms: N2_23  and  C17_25 
REMARK   11  A    between atoms: C17_25  and  C18_26 
REMARK   12  A    between atoms: C17_25  and  C27_37 
REMARK   13  A    between atoms: C18_26  and  C19_27 
ROOT
HETATM    1  C5  UNL     1      50.892  16.926  -6.630  1.00  0.00     0.278 C 
ENDROOT
BRANCH   1   2
HETATM    2  C4  UNL     1      49.863  15.819  -6.648  1.00  0.00     0.046 C 
BRANCH   2   3
HETATM    3  C2  UNL     1      48.617  16.030  -7.406  1.00  0.00    -0.020 C 
HETATM    4  C1  UNL     1      47.576  16.475  -6.319  1.00  0.00     0.009 C 
HETATM    5  C3  UNL     1      47.959  14.793  -7.979  1.00  0.00     0.009 C 
ENDBRANCH   2   3
ENDBRANCH   1   2
BRANCH   1   6
HETATM    6  N1  UNL     1      50.775  17.877  -5.590  1.00  0.00    -0.048 N 
ATOM      7  H12 UNL     1      50.526  18.802  -5.941  1.00  0.00     0.279 HD
ATOM      8  H11 UNL     1      49.951  17.715  -5.011  1.00  0.00     0.279 HD
BRANCH   6   9
HETATM    9  C6  UNL     1      52.058  17.899  -4.772  1.00  0.00     0.287 C 
BRANCH   9  10
HETATM   10  C7  UNL     1      52.556  16.490  -4.761  1.00  0.00     0.049 C 
BRANCH  10  11
HETATM   11  C8  UNL     1      53.266  16.063  -3.546  1.00  0.00     0.041 C 
BRANCH  11  12
HETATM   12  C9  UNL     1      53.418  16.963  -2.410  1.00  0.00    -0.058 A 
HETATM   13  C10 UNL     1      52.531  17.077  -1.361  1.00  0.00     0.007 A 
HETATM   14  C11 UNL     1      52.758  17.955  -0.334  1.00  0.00     0.001 A 
HETATM   15  C12 UNL     1      53.877  18.764  -0.297  1.00  0.00     0.000 A 
HETATM   16  C13 UNL     1      54.777  18.671  -1.331  1.00  0.00     0.001 A 
HETATM   17  C14 UNL     1      54.542  17.786  -2.359  1.00  0.00     0.007 A 
ENDBRANCH  11  12
ENDBRANCH  10  11
ENDBRANCH   9  10
BRANCH   9  18
HETATM   18  C15 UNL     1      52.917  18.734  -5.637  1.00  0.00     0.204 C 
HETATM   19  O1  UNL     1      54.109  18.395  -5.811  1.00  0.00    -0.646 OA
HETATM   20  O2  UNL     1      52.433  19.853  -6.250  1.00  0.00    -0.646 OA
ENDBRANCH   9  18
ENDBRANCH   6   9
ENDBRANCH   1   6
BRANCH   1  21
HETATM   21  C16 UNL     1      50.752  17.593  -7.950  1.00  0.00     0.249 C 
HETATM   22  O3  UNL     1      51.192  16.966  -8.956  1.00  0.00    -0.271 OA
HETATM   23  N2  UNL     1      50.164  18.854  -8.113  1.00  0.00    -0.344 N 
ATOM     24  H2  UNL     1      49.804  19.357  -7.302  1.00  0.00     0.163 HD
BRANCH  23  25
HETATM   25  C17 UNL     1      50.063  19.461  -9.467  1.00  0.00     0.190 C 
BRANCH  25  26
HETATM   26  C18 UNL     1      48.590  19.502  -9.793  1.00  0.00     0.077 C 
BRANCH  26  27
HETATM   27  C19 UNL     1      48.089  18.295 -10.440  1.00  0.00    -0.028 A 
HETATM   28  C20 UNL     1      48.719  17.602 -11.448  1.00  0.00     0.096 A 
HETATM   29  N3  UNL     1      47.923  16.545 -11.765  1.00  0.00    -0.365 N 
HETATM   30  C21 UNL     1      46.819  16.549 -10.994  1.00  0.00     0.042 A 
ATOM     31  H3  UNL     1      48.132  15.850 -12.482  1.00  0.00     0.165 HD
HETATM   32  C22 UNL     1      45.738  15.685 -10.955  1.00  0.00     0.030 A 
HETATM   33  C26 UNL     1      46.905  17.656 -10.143  1.00  0.00    -0.002 A 
HETATM   34  C23 UNL     1      44.710  15.894 -10.069  1.00  0.00     0.002 A 
HETATM   35  C24 UNL     1      44.793  16.978  -9.235  1.00  0.00     0.001 A 
HETATM   36  C25 UNL     1      45.860  17.844  -9.262  1.00  0.00     0.014 A 
ENDBRANCH  26  27
ENDBRANCH  25  26
BRANCH  25  37
HETATM   37  C27 UNL     1      50.544  20.858  -9.420  1.00  0.00     0.197 C 
HETATM   38  O4  UNL     1      50.104  21.626  -8.540  1.00  0.00    -0.646 OA
HETATM   39  O5  UNL     1      51.469  21.285 -10.349  1.00  0.00    -0.646 OA
ENDBRANCH  25  37
ENDBRANCH  23  25
ENDBRANCH   1  21
TORSDOF 13
ENDMDL
