MODEL 6
REMARK VINA RESULT: -7.882629782      3.700      5.738
REMARK  13 active torsions:
REMARK  status: ('A' for Active; 'I' for Inactive)
REMARK    1  A    between atoms: C2_2  and  C4_4 
REMARK    2  A    between atoms: C4_4  and  C5_5 
REMARK    3  A    between atoms: C5_5  and  N1_6 
REMARK    4  A    between atoms: C5_5  and  C16_21 
REMARK    5  A    between atoms: N1_6  and  C6_9 
REMARK    6  A    between atoms: C6_9  and  C7_10 
REMARK    7  A    between atoms: C6_9  and  C15_18 
REMARK    8  A    between atoms: C7_10  and  C8_11 
REMARK    9  A    between atoms: C8_11  and  C9_12 
REMARK       I    between atoms: C16_21  and  N2_23 
REMARK   10  A    between atoms: N2_23  and  C17_25 
REMARK   11  A    between atoms: C17_25  and  C18_26 
REMARK   12  A    between atoms: C17_25  and  C27_37 
REMARK   13  A    between atoms: C18_26  and  C19_27 
ROOT
HETATM    1  C5  UNL     1      52.746  18.102  -3.778  1.00  0.00     0.278 C 
ENDROOT
BRANCH   1   2
HETATM    2  C4  UNL     1      52.672  18.418  -2.302  1.00  0.00     0.046 C 
BRANCH   2   3
HETATM    3  C2  UNL     1      53.894  18.874  -1.618  1.00  0.00    -0.020 C 
HETATM    4  C1  UNL     1      53.672  18.464  -0.120  1.00  0.00     0.009 C 
HETATM    5  C3  UNL     1      54.084  20.372  -1.505  1.00  0.00     0.009 C 
ENDBRANCH   2   3
ENDBRANCH   1   2
BRANCH   1   6
HETATM    6  N1  UNL     1      51.525  18.136  -4.492  1.00  0.00    -0.048 N 
ATOM      7  H12 UNL     1      50.785  17.625  -4.012  1.00  0.00     0.279 HD
ATOM      8  H11 UNL     1      51.096  19.061  -4.477  1.00  0.00     0.279 HD
BRANCH   6   9
HETATM    9  C6  UNL     1      51.748  17.628  -5.909  1.00  0.00     0.287 C 
BRANCH   9  10
HETATM   10  C7  UNL     1      50.585  16.737  -6.208  1.00  0.00     0.049 C 
BRANCH  10  11
HETATM   11  C8  UNL     1      50.128  16.716  -7.605  1.00  0.00     0.041 C 
BRANCH  11  12
HETATM   12  C9  UNL     1      48.716  16.872  -7.934  1.00  0.00    -0.058 A 
HETATM   13  C10 UNL     1      48.224  17.577  -9.012  1.00  0.00     0.007 A 
HETATM   14  C11 UNL     1      46.877  17.670  -9.242  1.00  0.00     0.001 A 
HETATM   15  C12 UNL     1      45.950  17.068  -8.413  1.00  0.00     0.000 A 
HETATM   16  C13 UNL     1      46.414  16.360  -7.330  1.00  0.00     0.001 A 
HETATM   17  C14 UNL     1      47.769  16.271  -7.107  1.00  0.00     0.007 A 
ENDBRANCH  11  12
ENDBRANCH  10  11
ENDBRANCH   9  10
BRANCH   9  18
HETATM   18  C15 UNL     1      51.631  18.889  -6.670  1.00  0.00     0.204 C 
HETATM   19  O1  UNL     1      50.653  19.638  -6.448  1.00  0.00    -0.646 OA
HETATM   20  O2  UNL     1      52.567  19.250  -7.595  1.00  0.00    -0.646 OA
ENDBRANCH   9  18
ENDBRANCH   6   9
ENDBRANCH   1   6
BRANCH   1  21
HETATM   21  C16 UNL     1      53.337  16.740  -3.843  1.00  0.00     0.249 C 
HETATM   22  O3  UNL     1      54.529  16.654  -4.254  1.00  0.00    -0.271 OA
HETATM   23  N2  UNL     1      52.638  15.583  -3.473  1.00  0.00    -0.344 N 
ATOM     24  H2  UNL     1      51.678  15.653  -3.136  1.00  0.00     0.163 HD
BRANCH  23  25
HETATM   25  C17 UNL     1      53.295  14.252  -3.570  1.00  0.00     0.190 C 
BRANCH  25  26
HETATM   26  C18 UNL     1      52.833  13.474  -2.362  1.00  0.00     0.077 C 
BRANCH  26  27
HETATM   27  C19 UNL     1      53.715  12.374  -1.989  1.00  0.00    -0.028 A 
HETATM   28  C20 UNL     1      54.904  12.054  -2.601  1.00  0.00     0.096 A 
HETATM   29  N3  UNL     1      55.410  10.970  -1.952  1.00  0.00    -0.365 N 
HETATM   30  C21 UNL     1      54.582  10.599  -0.957  1.00  0.00     0.042 A 
ATOM     31  H3  UNL     1      56.288  10.506  -2.185  1.00  0.00     0.165 HD
HETATM   32  C22 UNL     1      54.675   9.567  -0.039  1.00  0.00     0.030 A 
HETATM   33  C26 UNL     1      53.496  11.481  -0.963  1.00  0.00    -0.002 A 
HETATM   34  C23 UNL     1      53.691   9.380   0.901  1.00  0.00     0.002 A 
HETATM   35  C24 UNL     1      52.627  10.242   0.896  1.00  0.00     0.001 A 
HETATM   36  C25 UNL     1      52.522  11.271  -0.009  1.00  0.00     0.014 A 
ENDBRANCH  26  27
ENDBRANCH  25  26
BRANCH  25  37
HETATM   37  C27 UNL     1      52.800  13.543  -4.768  1.00  0.00     0.197 C 
HETATM   38  O4  UNL     1      53.604  13.233  -5.671  1.00  0.00    -0.646 OA
HETATM   39  O5  UNL     1      51.459  13.238  -4.865  1.00  0.00    -0.646 OA
ENDBRANCH  25  37
ENDBRANCH  23  25
ENDBRANCH   1  21
TORSDOF 13
ENDMDL
