MODEL 3
REMARK VINA RESULT: -4.197133460      1.289      1.289
REMARK  2 active torsions:
REMARK  status: ('A' for Active; 'I' for Inactive)
REMARK    1  A    between atoms: N1_1  and  C1_5 
REMARK    2  A    between atoms: C1_5  and  C2_6 
ROOT
HETATM    1  C2  UNL     1      28.625  14.773  17.111  1.00  0.00     0.011 C 
HETATM    2  C3  UNL     1      29.234  13.492  16.671  1.00  0.00     0.006 C 
HETATM    3  C4  UNL     1      30.201  12.887  17.634  1.00  0.00     0.000 C 
HETATM    4  C5  UNL     1      29.797  12.945  19.060  1.00  0.00     0.000 C 
HETATM    5  C6  UNL     1      28.914  14.112  19.412  1.00  0.00     0.000 C 
HETATM    6  C7  UNL     1      29.245  15.232  18.414  1.00  0.00     0.006 C 
ENDROOT
BRANCH   1   7
HETATM    7  C1  UNL     1      28.710  15.844  16.046  1.00  0.00     0.234 C 
BRANCH   7   8
HETATM    8  N1  UNL     1      27.628  16.785  16.279  1.00  0.00    -0.079 N 
ATOM      9  H13 UNL     1      26.858  16.676  15.619  1.00  0.00     0.274 HD
ATOM     10  H12 UNL     1      27.104  16.583  17.131  1.00  0.00     0.274 HD
ATOM     11  H11 UNL     1      28.027  17.724  16.270  1.00  0.00     0.274 HD
ENDBRANCH   7   8
ENDBRANCH   1   7
TORSDOF 2
ENDMDL
