MODEL 1
REMARK VINA RESULT: -4.606049528      0.000      0.000
REMARK  2 active torsions:
REMARK  status: ('A' for Active; 'I' for Inactive)
REMARK    1  A    between atoms: N1_1  and  C1_5 
REMARK    2  A    between atoms: C1_5  and  C2_6 
ROOT
HETATM    1  C2  UNL     1      28.817  14.864  16.808  1.00  0.00     0.011 C 
HETATM    2  C3  UNL     1      29.346  13.480  16.718  1.00  0.00     0.006 C 
HETATM    3  C4  UNL     1      30.104  13.013  17.916  1.00  0.00     0.000 C 
HETATM    4  C5  UNL     1      29.516  13.388  19.225  1.00  0.00     0.000 C 
HETATM    5  C6  UNL     1      28.718  14.664  19.209  1.00  0.00     0.000 C 
HETATM    6  C7  UNL     1      29.296  15.531  18.081  1.00  0.00     0.006 C 
ENDROOT
BRANCH   1   7
HETATM    7  C1  UNL     1      29.157  15.689  15.586  1.00  0.00     0.234 C 
BRANCH   7   8
HETATM    8  N1  UNL     1      30.457  15.254  15.107  1.00  0.00    -0.079 N 
ATOM      9  H13 UNL     1      31.164  15.234  15.842  1.00  0.00     0.274 HD
ATOM     10  H12 UNL     1      30.480  14.261  14.870  1.00  0.00     0.274 HD
ATOM     11  H11 UNL     1      30.716  15.855  14.324  1.00  0.00     0.274 HD
ENDBRANCH   7   8
ENDBRANCH   1   7
TORSDOF 2
ENDMDL
