MODEL 2
REMARK VINA RESULT: -4.588721442      0.721      1.876
REMARK  2 active torsions:
REMARK  status: ('A' for Active; 'I' for Inactive)
REMARK    1  A    between atoms: N1_1  and  C1_5 
REMARK    2  A    between atoms: C1_5  and  C2_6 
ROOT
HETATM    1  C2  UNL     1      29.736  14.629  16.870  1.00  0.00     0.011 C 
HETATM    2  C3  UNL     1      29.322  15.512  17.989  1.00  0.00     0.006 C 
HETATM    3  C4  UNL     1      28.708  14.811  19.156  1.00  0.00     0.000 C 
HETATM    4  C5  UNL     1      29.368  13.544  19.553  1.00  0.00     0.000 C 
HETATM    5  C6  UNL     1      30.050  12.814  18.427  1.00  0.00     0.000 C 
HETATM    6  C7  UNL     1      29.309  13.201  17.139  1.00  0.00     0.006 C 
ENDROOT
BRANCH   1   7
HETATM    7  C1  UNL     1      29.227  15.120  15.532  1.00  0.00     0.234 C 
BRANCH   7   8
HETATM    8  N1  UNL     1      29.688  16.486  15.359  1.00  0.00    -0.079 N 
ATOM      9  H13 UNL     1      28.987  17.178  15.625  1.00  0.00     0.274 HD
ATOM     10  H12 UNL     1      30.403  16.752  16.037  1.00  0.00     0.274 HD
ATOM     11  H11 UNL     1      29.999  16.588  14.393  1.00  0.00     0.274 HD
ENDBRANCH   7   8
ENDBRANCH   1   7
TORSDOF 2
ENDMDL
