MODEL 7
REMARK VINA RESULT: -4.045404747      1.420      2.280
REMARK  2 active torsions:
REMARK  status: ('A' for Active; 'I' for Inactive)
REMARK    1  A    between atoms: N1_1  and  C1_5 
REMARK    2  A    between atoms: C1_5  and  C2_6 
ROOT
HETATM    1  C2  UNL     1      29.011  14.894  17.941  1.00  0.00     0.011 C 
HETATM    2  C3  UNL     1      28.953  14.501  19.371  1.00  0.00     0.006 C 
HETATM    3  C4  UNL     1      29.096  13.038  19.634  1.00  0.00     0.000 C 
HETATM    4  C5  UNL     1      30.127  12.346  18.823  1.00  0.00     0.000 C 
HETATM    5  C6  UNL     1      30.380  12.964  17.474  1.00  0.00     0.000 C 
HETATM    6  C7  UNL     1      29.078  13.664  17.059  1.00  0.00     0.006 C 
ENDROOT
BRANCH   1   7
HETATM    7  C1  UNL     1      27.865  15.800  17.547  1.00  0.00     0.234 C 
BRANCH   7   8
HETATM    8  N1  UNL     1      28.127  16.284  16.204  1.00  0.00    -0.079 N 
ATOM      9  H13 UNL     1      28.764  15.681  15.682  1.00  0.00     0.274 HD
ATOM     10  H12 UNL     1      27.319  16.193  15.586  1.00  0.00     0.274 HD
ATOM     11  H11 UNL     1      28.463  17.244  16.280  1.00  0.00     0.274 HD
ENDBRANCH   7   8
ENDBRANCH   1   7
TORSDOF 2
ENDMDL
