MODEL 1
REMARK VINA RESULT: -5.069355535      0.000      0.000
REMARK  2 active torsions:
REMARK  status: ('A' for Active; 'I' for Inactive)
REMARK    1  A    between atoms: N1_1  and  C1_5 
REMARK    2  A    between atoms: C1_5  and  C2_6 
ROOT
HETATM    1  C2  UNL     1      28.981  15.060  16.728  1.00  0.00    -0.033 A 
HETATM    2  C3  UNL     1      29.824  13.967  16.917  1.00  0.00     0.012 A 
HETATM    3  C4  UNL     1      29.811  13.275  18.112  1.00  0.00     0.043 A 
HETATM    4  C5  UNL     1      28.978  13.627  19.155  1.00  0.00     0.116 A 
HETATM    5  F1  UNL     1      28.987  12.929  20.320  1.00  0.00    -0.206 F 
HETATM    6  C6  UNL     1      28.147  14.711  18.957  1.00  0.00     0.043 A 
HETATM    7  C7  UNL     1      28.155  15.408  17.763  1.00  0.00     0.012 A 
ENDROOT
BRANCH   1   8
HETATM    8  C1  UNL     1      29.026  15.777  15.427  1.00  0.00     0.268 C 
BRANCH   8   9
HETATM    9  N1  UNL     1      30.209  15.315  14.687  1.00  0.00    -0.075 N 
ATOM     10  H13 UNL     1      30.941  16.023  14.634  1.00  0.00     0.274 HD
ATOM     11  H12 UNL     1      30.738  14.606  15.194  1.00  0.00     0.274 HD
ATOM     12  H11 UNL     1      29.905  14.995  13.767  1.00  0.00     0.274 HD
ENDBRANCH   8   9
ENDBRANCH   1   8
TORSDOF 2
ENDMDL
