MODEL 20
REMARK VINA RESULT: -3.503409882      5.947      6.703
REMARK  2 active torsions:
REMARK  status: ('A' for Active; 'I' for Inactive)
REMARK    1  A    between atoms: N1_1  and  C1_5 
REMARK    2  A    between atoms: C1_5  and  C2_6 
ROOT
HETATM    1  C2  UNL     1      25.981  10.608  19.015  1.00  0.00    -0.033 A 
HETATM    2  C3  UNL     1      25.210  10.686  20.173  1.00  0.00     0.012 A 
HETATM    3  C4  UNL     1      24.163   9.809  20.374  1.00  0.00     0.043 A 
HETATM    4  C5  UNL     1      23.838   8.830  19.456  1.00  0.00     0.116 A 
HETATM    5  F1  UNL     1      22.803   7.980  19.681  1.00  0.00    -0.206 F 
HETATM    6  C6  UNL     1      24.608   8.761  18.313  1.00  0.00     0.043 A 
HETATM    7  C7  UNL     1      25.657   9.637  18.105  1.00  0.00     0.012 A 
ENDROOT
BRANCH   1   8
HETATM    8  C1  UNL     1      27.098  11.572  18.836  1.00  0.00     0.268 C 
BRANCH   8   9
HETATM    9  N1  UNL     1      27.019  12.573  19.910  1.00  0.00    -0.075 N 
ATOM     10  H13 UNL     1      26.265  13.245  19.766  1.00  0.00     0.274 HD
ATOM     11  H12 UNL     1      26.687  12.180  20.790  1.00  0.00     0.274 HD
ATOM     12  H11 UNL     1      27.931  13.019  19.998  1.00  0.00     0.274 HD
ENDBRANCH   8   9
ENDBRANCH   1   8
TORSDOF 2
ENDMDL
