MODEL 2
REMARK VINA RESULT: -5.050025796      0.087      1.575
REMARK  2 active torsions:
REMARK  status: ('A' for Active; 'I' for Inactive)
REMARK    1  A    between atoms: N1_1  and  C1_5 
REMARK    2  A    between atoms: C1_5  and  C2_6 
ROOT
HETATM    1  C2  UNL     1      29.015  15.041  16.691  1.00  0.00    -0.033 A 
HETATM    2  C3  UNL     1      28.183  15.411  17.746  1.00  0.00     0.012 A 
HETATM    3  C4  UNL     1      28.200  14.701  18.929  1.00  0.00     0.043 A 
HETATM    4  C5  UNL     1      29.028  13.612  19.121  1.00  0.00     0.116 A 
HETATM    5  F1  UNL     1      29.023  12.932  20.297  1.00  0.00    -0.206 F 
HETATM    6  C6  UNL     1      29.847  13.254  18.070  1.00  0.00     0.043 A 
HETATM    7  C7  UNL     1      29.835  13.961  16.882  1.00  0.00     0.012 A 
ENDROOT
BRANCH   1   8
HETATM    8  C1  UNL     1      28.966  15.831  15.433  1.00  0.00     0.268 C 
BRANCH   8   9
HETATM    9  N1  UNL     1      30.162  15.511  14.641  1.00  0.00    -0.075 N 
ATOM     10  H13 UNL     1      31.022  15.575  15.184  1.00  0.00     0.274 HD
ATOM     11  H12 UNL     1      30.222  14.520  14.404  1.00  0.00     0.274 HD
ATOM     12  H11 UNL     1      30.171  16.113  13.818  1.00  0.00     0.274 HD
ENDBRANCH   8   9
ENDBRANCH   1   8
TORSDOF 2
ENDMDL
