MODEL 7
REMARK VINA RESULT: -4.307557061      1.614      2.288
REMARK  2 active torsions:
REMARK  status: ('A' for Active; 'I' for Inactive)
REMARK    1  A    between atoms: N1_1  and  C1_5 
REMARK    2  A    between atoms: C1_5  and  C2_6 
ROOT
HETATM    1  C2  UNL     1      28.605  14.689  17.750  1.00  0.00    -0.033 A 
HETATM    2  C3  UNL     1      28.349  14.077  18.975  1.00  0.00     0.012 A 
HETATM    3  C4  UNL     1      29.011  12.918  19.327  1.00  0.00     0.043 A 
HETATM    4  C5  UNL     1      29.940  12.322  18.498  1.00  0.00     0.116 A 
HETATM    5  F1  UNL     1      30.576  11.181  18.870  1.00  0.00    -0.206 F 
HETATM    6  C6  UNL     1      30.187  12.936  17.287  1.00  0.00     0.043 A 
HETATM    7  C7  UNL     1      29.527  14.097  16.928  1.00  0.00     0.012 A 
ENDROOT
BRANCH   1   8
HETATM    8  C1  UNL     1      27.871  15.936  17.408  1.00  0.00     0.268 C 
BRANCH   8   9
HETATM    9  N1  UNL     1      28.262  16.343  16.051  1.00  0.00    -0.075 N 
ATOM     10  H13 UNL     1      28.297  17.356  15.939  1.00  0.00     0.274 HD
ATOM     11  H12 UNL     1      29.243  16.148  15.849  1.00  0.00     0.274 HD
ATOM     12  H11 UNL     1      27.629  15.896  15.389  1.00  0.00     0.274 HD
ENDBRANCH   8   9
ENDBRANCH   1   8
TORSDOF 2
ENDMDL
