MODEL 14
REMARK VINA RESULT: -4.312006198      2.678      4.678
REMARK  5 active torsions:
REMARK  status: ('A' for Active; 'I' for Inactive)
REMARK    1  A    between atoms: N1_1  and  C1_5 
REMARK    2  A    between atoms: C1_5  and  C2_6 
REMARK    3  A    between atoms: C2_6  and  C3_7 
REMARK    4  A    between atoms: C3_7  and  C4_8 
REMARK    5  A    between atoms: C4_8  and  C5_9 
ROOT
HETATM    1  C3  UNL     1      28.856  11.585  19.107  1.00  0.00     0.006 C 
ENDROOT
BRANCH   1   2
HETATM    2  C2  UNL     1      27.401  11.412  18.687  1.00  0.00     0.027 C 
BRANCH   2   3
HETATM    3  C1  UNL     1      26.584  11.432  19.964  1.00  0.00     0.229 C 
BRANCH   3   4
HETATM    4  N1  UNL     1      25.187  11.126  19.721  1.00  0.00    -0.079 N 
ATOM      5  H13 UNL     1      24.806  11.703  18.971  1.00  0.00     0.274 HD
ATOM      6  H12 UNL     1      25.079  10.208  19.288  1.00  0.00     0.274 HD
ATOM      7  H11 UNL     1      24.626  11.203  20.569  1.00  0.00     0.274 HD
ENDBRANCH   3   4
ENDBRANCH   2   3
ENDBRANCH   1   2
BRANCH   1   8
HETATM    8  C4  UNL     1      29.031  12.982  19.679  1.00  0.00     0.038 C 
BRANCH   8   9
HETATM    9  C5  UNL     1      28.980  13.922  18.536  1.00  0.00    -0.058 A 
HETATM   10  C6  UNL     1      29.878  13.779  17.501  1.00  0.00     0.007 A 
HETATM   11  C7  UNL     1      29.866  14.625  16.427  1.00  0.00     0.001 A 
HETATM   12  C8  UNL     1      28.946  15.634  16.376  1.00  0.00     0.000 A 
HETATM   13  C9  UNL     1      28.033  15.792  17.413  1.00  0.00     0.001 A 
HETATM   14  C10 UNL     1      28.060  14.928  18.491  1.00  0.00     0.007 A 
ENDBRANCH   8   9
ENDBRANCH   1   8
TORSDOF 5
ENDMDL
