MODEL 20
REMARK VINA RESULT: -4.214391269      1.497      2.407
REMARK  5 active torsions:
REMARK  status: ('A' for Active; 'I' for Inactive)
REMARK    1  A    between atoms: N1_1  and  C1_5 
REMARK    2  A    between atoms: C1_5  and  C2_6 
REMARK    3  A    between atoms: C2_6  and  C3_7 
REMARK    4  A    between atoms: C3_7  and  C4_8 
REMARK    5  A    between atoms: C4_8  and  C5_9 
ROOT
HETATM    1  C3  UNL     1      28.926  14.798  18.406  1.00  0.00     0.006 C 
ENDROOT
BRANCH   1   2
HETATM    2  C2  UNL     1      28.287  15.677  17.336  1.00  0.00     0.027 C 
BRANCH   2   3
HETATM    3  C1  UNL     1      29.102  15.471  16.074  1.00  0.00     0.229 C 
BRANCH   3   4
HETATM    4  N1  UNL     1      29.312  16.713  15.355  1.00  0.00    -0.079 N 
ATOM      5  H13 UNL     1      29.189  16.585  14.350  1.00  0.00     0.274 HD
ATOM      6  H12 UNL     1      28.554  17.374  15.527  1.00  0.00     0.274 HD
ATOM      7  H11 UNL     1      30.219  17.128  15.566  1.00  0.00     0.274 HD
ENDBRANCH   3   4
ENDBRANCH   2   3
ENDBRANCH   1   2
BRANCH   1   8
HETATM    8  C4  UNL     1      28.049  13.574  18.613  1.00  0.00     0.038 C 
BRANCH   8   9
HETATM    9  C5  UNL     1      28.881  12.392  18.292  1.00  0.00    -0.058 A 
HETATM   10  C6  UNL     1      29.477  11.686  19.314  1.00  0.00     0.007 A 
HETATM   11  C7  UNL     1      30.253  10.589  19.061  1.00  0.00     0.001 A 
HETATM   12  C8  UNL     1      30.445  10.182  17.771  1.00  0.00     0.000 A 
HETATM   13  C9  UNL     1      29.850  10.886  16.729  1.00  0.00     0.001 A 
HETATM   14  C10 UNL     1      29.069  11.991  17.002  1.00  0.00     0.007 A 
ENDBRANCH   8   9
ENDBRANCH   1   8
TORSDOF 5
ENDMDL
