MODEL 15
REMARK VINA RESULT: -4.307383619      2.087      4.291
REMARK  5 active torsions:
REMARK  status: ('A' for Active; 'I' for Inactive)
REMARK    1  A    between atoms: N1_1  and  C1_5 
REMARK    2  A    between atoms: C1_5  and  C2_6 
REMARK    3  A    between atoms: C2_6  and  C3_7 
REMARK    4  A    between atoms: C3_7  and  C4_8 
REMARK    5  A    between atoms: C4_8  and  C5_9 
ROOT
HETATM    1  C3  UNL     1      28.820  11.666  19.180  1.00  0.00     0.006 C 
ENDROOT
BRANCH   1   2
HETATM    2  C2  UNL     1      27.308  11.482  19.121  1.00  0.00     0.027 C 
BRANCH   2   3
HETATM    3  C1  UNL     1      27.017  10.773  17.813  1.00  0.00     0.229 C 
BRANCH   3   4
HETATM    4  N1  UNL     1      28.183  10.725  16.949  1.00  0.00    -0.079 N 
ATOM      5  H13 UNL     1      28.654  11.629  16.914  1.00  0.00     0.274 HD
ATOM      6  H12 UNL     1      28.930  10.170  17.367  1.00  0.00     0.274 HD
ATOM      7  H11 UNL     1      27.951  10.392  16.014  1.00  0.00     0.274 HD
ENDBRANCH   3   4
ENDBRANCH   2   3
ENDBRANCH   1   2
BRANCH   1   8
HETATM    8  C4  UNL     1      29.116  13.068  19.690  1.00  0.00     0.038 C 
BRANCH   8   9
HETATM    9  C5  UNL     1      29.019  13.976  18.524  1.00  0.00    -0.058 A 
HETATM   10  C6  UNL     1      29.880  13.810  17.463  1.00  0.00     0.007 A 
HETATM   11  C7  UNL     1      29.824  14.626  16.367  1.00  0.00     0.001 A 
HETATM   12  C8  UNL     1      28.897  15.629  16.322  1.00  0.00     0.000 A 
HETATM   13  C9  UNL     1      28.021  15.810  17.387  1.00  0.00     0.001 A 
HETATM   14  C10 UNL     1      28.092  14.975  18.486  1.00  0.00     0.007 A 
ENDBRANCH   8   9
ENDBRANCH   1   8
TORSDOF 5
ENDMDL
