MODEL 13
REMARK VINA RESULT: -4.314512503      2.878      5.068
REMARK  5 active torsions:
REMARK  status: ('A' for Active; 'I' for Inactive)
REMARK    1  A    between atoms: N1_1  and  C1_5 
REMARK    2  A    between atoms: C1_5  and  C2_6 
REMARK    3  A    between atoms: C2_6  and  C3_7 
REMARK    4  A    between atoms: C3_7  and  C4_8 
REMARK    5  A    between atoms: C4_8  and  C5_9 
ROOT
HETATM    1  C3  UNL     1      27.231  12.101  19.586  1.00  0.00     0.006 C 
ENDROOT
BRANCH   1   2
HETATM    2  C2  UNL     1      26.323  11.110  18.866  1.00  0.00     0.027 C 
BRANCH   2   3
HETATM    3  C1  UNL     1      25.362  10.578  19.911  1.00  0.00     0.229 C 
BRANCH   3   4
HETATM    4  N1  UNL     1      24.003  11.032  19.680  1.00  0.00    -0.079 N 
ATOM      5  H13 UNL     1      23.988  11.900  19.145  1.00  0.00     0.274 HD
ATOM      6  H12 UNL     1      23.518  10.427  19.018  1.00  0.00     0.274 HD
ATOM      7  H11 UNL     1      23.479  11.125  20.550  1.00  0.00     0.274 HD
ENDBRANCH   3   4
ENDBRANCH   2   3
ENDBRANCH   1   2
BRANCH   1   8
HETATM    8  C4  UNL     1      28.584  12.107  18.893  1.00  0.00     0.038 C 
BRANCH   8   9
HETATM    9  C5  UNL     1      28.633  13.331  18.059  1.00  0.00    -0.058 A 
HETATM   10  C6  UNL     1      28.010  14.476  18.501  1.00  0.00     0.007 A 
HETATM   11  C7  UNL     1      28.031  15.627  17.762  1.00  0.00     0.001 A 
HETATM   12  C8  UNL     1      28.681  15.643  16.560  1.00  0.00     0.000 A 
HETATM   13  C9  UNL     1      29.314  14.493  16.101  1.00  0.00     0.001 A 
HETATM   14  C10 UNL     1      29.284  13.340  16.861  1.00  0.00     0.007 A 
ENDBRANCH   8   9
ENDBRANCH   1   8
TORSDOF 5
ENDMDL
