MODEL 18
REMARK VINA RESULT: -5.437640482      6.012      7.053
REMARK  3 active torsions:
REMARK  status: ('A' for Active; 'I' for Inactive)
REMARK    1  A    between atoms: C1_2  and  C2_4 
REMARK    2  A    between atoms: C2_4  and  C3_5 
REMARK    3  A    between atoms: C3_5  and  C4_6 
ROOT
HETATM    1  C4  UNL     1      74.125  53.048  31.152  1.00  0.00    -0.058 A 
HETATM    2  C5  UNL     1      74.920  53.006  30.002  1.00  0.00     0.007 A 
HETATM    3  C6  UNL     1      74.889  51.855  29.263  1.00  0.00     0.001 A 
HETATM    4  C7  UNL     1      74.097  50.770  29.640  1.00  0.00     0.000 A 
HETATM    5  C8  UNL     1      73.314  50.822  30.778  1.00  0.00     0.001 A 
HETATM    6  C9  UNL     1      73.344  51.984  31.529  1.00  0.00     0.007 A 
ENDROOT
BRANCH   1   7
HETATM    7  C3  UNL     1      74.140  54.295  31.983  1.00  0.00     0.049 C 
BRANCH   7   8
HETATM    8  C2  UNL     1      73.067  54.187  33.074  1.00  0.00     0.117 C 
BRANCH   8   9
HETATM    9  C1  UNL     1      73.749  54.067  34.395  1.00  0.00     0.172 C 
HETATM   10  O1  UNL     1      73.730  53.012  35.045  1.00  0.00    -0.648 OA
HETATM   11  O2  UNL     1      74.401  55.242  34.829  1.00  0.00    -0.648 OA
ENDBRANCH   8   9
ENDBRANCH   7   8
ENDBRANCH   1   7
TORSDOF 3
ENDMDL
