MODEL 1
REMARK VINA RESULT: -6.557701846      0.000      0.000
REMARK  3 active torsions:
REMARK  status: ('A' for Active; 'I' for Inactive)
REMARK    1  A    between atoms: C1_2  and  C2_4 
REMARK    2  A    between atoms: C2_4  and  C3_5 
REMARK    3  A    between atoms: C3_5  and  C4_6 
ROOT
HETATM    1  C4  UNL     1      79.429  53.025  33.004  1.00  0.00    -0.058 A 
HETATM    2  C5  UNL     1      79.851  51.940  33.780  1.00  0.00     0.007 A 
HETATM    3  C6  UNL     1      79.170  51.702  34.943  1.00  0.00     0.001 A 
HETATM    4  C7  UNL     1      78.100  52.506  35.338  1.00  0.00     0.000 A 
HETATM    5  C8  UNL     1      77.690  53.575  34.562  1.00  0.00     0.001 A 
HETATM    6  C9  UNL     1      78.378  53.820  33.386  1.00  0.00     0.007 A 
ENDROOT
BRANCH   1   7
HETATM    7  C3  UNL     1      80.156  53.312  31.726  1.00  0.00     0.049 C 
BRANCH   7   8
HETATM    8  C2  UNL     1      79.714  54.679  31.189  1.00  0.00     0.117 C 
BRANCH   8   9
HETATM    9  C1  UNL     1      80.275  54.851  29.819  1.00  0.00     0.172 C 
HETATM   10  O1  UNL     1      79.865  54.184  28.857  1.00  0.00    -0.648 OA
HETATM   11  O2  UNL     1      81.296  55.822  29.719  1.00  0.00    -0.648 OA
ENDBRANCH   8   9
ENDBRANCH   7   8
ENDBRANCH   1   7
TORSDOF 3
ENDMDL
