MODEL 2
REMARK VINA RESULT: -6.511840980      0.135      1.464
REMARK  3 active torsions:
REMARK  status: ('A' for Active; 'I' for Inactive)
REMARK    1  A    between atoms: C1_2  and  C2_4 
REMARK    2  A    between atoms: C2_4  and  C3_5 
REMARK    3  A    between atoms: C3_5  and  C4_6 
ROOT
HETATM    1  C4  UNL     1      79.472  52.974  32.973  1.00  0.00    -0.058 A 
HETATM    2  C5  UNL     1      78.392  53.800  33.301  1.00  0.00     0.007 A 
HETATM    3  C6  UNL     1      77.739  53.539  34.475  1.00  0.00     0.001 A 
HETATM    4  C7  UNL     1      78.134  52.492  35.310  1.00  0.00     0.000 A 
HETATM    5  C8  UNL     1      79.204  51.682  34.977  1.00  0.00     0.001 A 
HETATM    6  C9  UNL     1      79.866  51.943  33.789  1.00  0.00     0.007 A 
ENDROOT
BRANCH   1   7
HETATM    7  C3  UNL     1      80.206  53.235  31.693  1.00  0.00     0.049 C 
BRANCH   7   8
HETATM    8  C2  UNL     1      79.796  54.609  31.148  1.00  0.00     0.117 C 
BRANCH   8   9
HETATM    9  C1  UNL     1      80.454  54.806  29.825  1.00  0.00     0.172 C 
HETATM   10  O1  UNL     1      80.159  54.113  28.840  1.00  0.00    -0.648 OA
HETATM   11  O2  UNL     1      81.424  55.831  29.797  1.00  0.00    -0.648 OA
ENDBRANCH   8   9
ENDBRANCH   7   8
ENDBRANCH   1   7
TORSDOF 3
ENDMDL
