MODEL 3
REMARK VINA RESULT: -6.500630327      0.147      1.772
REMARK  3 active torsions:
REMARK  status: ('A' for Active; 'I' for Inactive)
REMARK    1  A    between atoms: C1_2  and  C2_4 
REMARK    2  A    between atoms: C2_4  and  C3_5 
REMARK    3  A    between atoms: C3_5  and  C4_6 
ROOT
HETATM    1  C4  UNL     1      79.444  52.983  33.035  1.00  0.00    -0.058 A 
HETATM    2  C5  UNL     1      78.365  53.783  33.426  1.00  0.00     0.007 A 
HETATM    3  C6  UNL     1      77.728  53.447  34.590  1.00  0.00     0.001 A 
HETATM    4  C7  UNL     1      78.137  52.353  35.353  1.00  0.00     0.000 A 
HETATM    5  C8  UNL     1      79.205  51.569  34.958  1.00  0.00     0.001 A 
HETATM    6  C9  UNL     1      79.851  51.905  33.781  1.00  0.00     0.007 A 
ENDROOT
BRANCH   1   7
HETATM    7  C3  UNL     1      80.160  53.325  31.764  1.00  0.00     0.049 C 
BRANCH   7   8
HETATM    8  C2  UNL     1      79.736  54.727  31.308  1.00  0.00     0.117 C 
BRANCH   8   9
HETATM    9  C1  UNL     1      80.238  54.943  29.921  1.00  0.00     0.172 C 
HETATM   10  O1  UNL     1      81.179  55.714  29.679  1.00  0.00    -0.648 OA
HETATM   11  O2  UNL     1      79.555  54.207  28.927  1.00  0.00    -0.648 OA
ENDBRANCH   8   9
ENDBRANCH   7   8
ENDBRANCH   1   7
TORSDOF 3
ENDMDL
