MODEL 7
REMARK VINA RESULT: -8.155454818      2.018      7.794
REMARK  8 active torsions:
REMARK  status: ('A' for Active; 'I' for Inactive)
REMARK    1  A    between atoms: N1_2  and  C2_5 
REMARK    2  A    between atoms: C2_5  and  C3_6 
REMARK    3  A    between atoms: C2_5  and  C10_13 
REMARK    4  A    between atoms: C3_6  and  C4_7 
REMARK       I    between atoms: C10_13  and  N2_15 
REMARK    5  A    between atoms: C14_19  and  C15_20 
REMARK       I    between atoms: C15_20  and  N3_22 
REMARK    6  A    between atoms: N3_22  and  C16_24 
REMARK    7  A    between atoms: C16_24  and  C17_25 
REMARK    8  A    between atoms: C20_28  and  N4_29 
ROOT
HETATM    1  C10 UNL     1      14.854 -12.024  20.767  1.00  0.00     0.251 C 
HETATM    2  O1  UNL     1      14.948 -10.762  20.698  1.00  0.00    -0.271 OA
HETATM    3  N2  UNL     1      16.041 -12.785  20.873  1.00  0.00    -0.337 N 
HETATM    4  C11 UNL     1      17.387 -12.167  20.832  1.00  0.00     0.127 C 
HETATM    5  C12 UNL     1      18.072 -13.129  19.863  1.00  0.00     0.022 C 
HETATM    6  C13 UNL     1      17.417 -14.470  20.100  1.00  0.00     0.037 C 
HETATM    7  C14 UNL     1      16.299 -14.166  21.066  1.00  0.00     0.179 C 
ENDROOT
BRANCH   7   8
HETATM    8  C15 UNL     1      16.675 -14.497  22.471  1.00  0.00     0.240 C 
HETATM    9  O2  UNL     1      15.965 -14.015  23.388  1.00  0.00    -0.271 OA
HETATM   10  N3  UNL     1      17.766 -15.308  22.818  1.00  0.00    -0.359 N 
ATOM     11  H3  UNL     1      18.359 -15.712  22.093  1.00  0.00     0.162 HD
BRANCH  10  12
HETATM   12  C16 UNL     1      18.041 -15.563  24.212  1.00  0.00     0.127 C 
BRANCH  12  13
HETATM   13  C17 UNL     1      19.477 -15.373  24.577  1.00  0.00     0.003 C 
HETATM   14  C18 UNL     1      20.218 -14.518  23.563  1.00  0.00     0.008 C 
HETATM   15  C19 UNL     1      21.688 -14.588  23.927  1.00  0.00     0.033 C 
HETATM   16  C20 UNL     1      21.950 -14.036  25.305  1.00  0.00     0.183 C 
HETATM   17  C21 UNL     1      20.664 -13.698  26.029  1.00  0.00     0.033 C 
HETATM   18  C22 UNL     1      19.711 -14.872  25.962  1.00  0.00     0.008 C 
BRANCH  16  19
HETATM   19  N4  UNL     1      22.742 -14.945  26.109  1.00  0.00    -0.075 N 
ATOM     20  H43 UNL     1      22.918 -15.819  25.615  1.00  0.00     0.274 HD
ATOM     21  H42 UNL     1      23.703 -14.616  26.202  1.00  0.00     0.274 HD
ATOM     22  H41 UNL     1      22.317 -15.113  27.021  1.00  0.00     0.274 HD
ENDBRANCH  16  19
ENDBRANCH  12  13
ENDBRANCH  10  12
ENDBRANCH   7   8
BRANCH   1  23
HETATM   23  C2  UNL     1      13.542 -12.637  20.738  1.00  0.00     0.280 C 
BRANCH  23  24
HETATM   24  N1  UNL     1      13.313 -13.495  19.574  1.00  0.00    -0.066 N 
HETATM   25  C1  UNL     1      12.504 -14.631  19.941  1.00  0.00     0.267 C 
ATOM     26  H12 UNL     1      14.187 -13.778  19.131  1.00  0.00     0.277 HD
ATOM     27  H11 UNL     1      12.910 -12.977  18.793  1.00  0.00     0.277 HD
ENDBRANCH  23  24
BRANCH  23  28
HETATM   28  C3  UNL     1      12.357 -11.760  20.958  1.00  0.00     0.081 C 
BRANCH  28  29
HETATM   29  C4  UNL     1      11.962 -11.515  22.340  1.00  0.00    -0.056 A 
HETATM   30  C5  UNL     1      12.069 -10.248  22.871  1.00  0.00     0.007 A 
HETATM   31  C6  UNL     1      11.730 -10.000  24.190  1.00  0.00     0.001 A 
HETATM   32  C7  UNL     1      11.281 -11.027  24.985  1.00  0.00     0.000 A 
HETATM   33  C8  UNL     1      11.165 -12.304  24.476  1.00  0.00     0.001 A 
HETATM   34  C9  UNL     1      11.514 -12.529  23.142  1.00  0.00     0.007 A 
ENDBRANCH  28  29
ENDBRANCH  23  28
ENDBRANCH   1  23
TORSDOF 8
ENDMDL
