MODEL 3
REMARK VINA RESULT: -8.365289045      2.407      7.409
REMARK  8 active torsions:
REMARK  status: ('A' for Active; 'I' for Inactive)
REMARK    1  A    between atoms: N1_2  and  C2_5 
REMARK    2  A    between atoms: C2_5  and  C3_6 
REMARK    3  A    between atoms: C2_5  and  C10_13 
REMARK    4  A    between atoms: C3_6  and  C4_7 
REMARK       I    between atoms: C10_13  and  N2_15 
REMARK    5  A    between atoms: C14_19  and  C15_20 
REMARK       I    between atoms: C15_20  and  N3_22 
REMARK    6  A    between atoms: N3_22  and  C16_24 
REMARK    7  A    between atoms: C16_24  and  C17_25 
REMARK    8  A    between atoms: C20_28  and  N4_29 
ROOT
HETATM    1  C10 UNL     1      12.740 -15.112  21.289  1.00  0.00     0.251 C 
HETATM    2  O1  UNL     1      12.633 -15.939  22.244  1.00  0.00    -0.271 OA
HETATM    3  N2  UNL     1      12.809 -13.733  21.596  1.00  0.00    -0.337 N 
HETATM    4  C11 UNL     1      12.688 -13.220  22.981  1.00  0.00     0.127 C 
HETATM    5  C12 UNL     1      11.713 -12.070  22.734  1.00  0.00     0.022 C 
HETATM    6  C13 UNL     1      12.017 -11.580  21.337  1.00  0.00     0.037 C 
HETATM    7  C14 UNL     1      13.026 -12.571  20.813  1.00  0.00     0.179 C 
ENDROOT
BRANCH   7   8
HETATM    8  C15 UNL     1      14.420 -12.050  20.918  1.00  0.00     0.240 C 
HETATM    9  O2  UNL     1      14.571 -10.804  20.956  1.00  0.00    -0.271 OA
HETATM   10  N3  UNL     1      15.557 -12.870  20.977  1.00  0.00    -0.359 N 
ATOM     11  H3  UNL     1      15.463 -13.886  20.949  1.00  0.00     0.162 HD
BRANCH  10  12
HETATM   12  C16 UNL     1      16.862 -12.261  21.078  1.00  0.00     0.127 C 
BRANCH  12  13
HETATM   13  C17 UNL     1      17.978 -13.253  21.118  1.00  0.00     0.003 C 
HETATM   14  C18 UNL     1      19.306 -12.640  20.703  1.00  0.00     0.008 C 
HETATM   15  C19 UNL     1      20.291 -13.785  20.573  1.00  0.00     0.033 C 
HETATM   16  C20 UNL     1      20.483 -14.509  21.882  1.00  0.00     0.183 C 
HETATM   17  C21 UNL     1      19.531 -14.007  22.946  1.00  0.00     0.033 C 
HETATM   18  C22 UNL     1      18.116 -13.990  22.407  1.00  0.00     0.008 C 
BRANCH  16  19
HETATM   19  N4  UNL     1      20.340 -15.943  21.731  1.00  0.00    -0.075 N 
ATOM     20  H43 UNL     1      19.583 -16.303  22.311  1.00  0.00     0.274 HD
ATOM     21  H42 UNL     1      19.968 -16.184  20.812  1.00  0.00     0.274 HD
ATOM     22  H41 UNL     1      21.215 -16.433  21.917  1.00  0.00     0.274 HD
ENDBRANCH  16  19
ENDBRANCH  12  13
ENDBRANCH  10  12
ENDBRANCH   7   8
BRANCH   1  23
HETATM   23  C2  UNL     1      12.789 -15.606  19.929  1.00  0.00     0.280 C 
BRANCH  23  24
HETATM   24  N1  UNL     1      11.566 -16.288  19.500  1.00  0.00    -0.066 N 
HETATM   25  C1  UNL     1      11.798 -17.707  19.391  1.00  0.00     0.267 C 
ATOM     26  H12 UNL     1      11.194 -15.896  18.635  1.00  0.00     0.277 HD
ATOM     27  H11 UNL     1      10.778 -16.076  20.113  1.00  0.00     0.277 HD
ENDBRANCH  23  24
BRANCH  23  28
HETATM   28  C3  UNL     1      13.980 -16.402  19.519  1.00  0.00     0.081 C 
BRANCH  28  29
HETATM   29  C4  UNL     1      14.717 -15.938  18.349  1.00  0.00    -0.056 A 
HETATM   30  C5  UNL     1      15.098 -14.617  18.258  1.00  0.00     0.007 A 
HETATM   31  C6  UNL     1      15.769 -14.148  17.142  1.00  0.00     0.001 A 
HETATM   32  C7  UNL     1      16.061 -15.005  16.108  1.00  0.00     0.000 A 
HETATM   33  C8  UNL     1      15.689 -16.332  16.177  1.00  0.00     0.001 A 
HETATM   34  C9  UNL     1      15.012 -16.781  17.313  1.00  0.00     0.007 A 
ENDBRANCH  28  29
ENDBRANCH  23  28
ENDBRANCH   1  23
TORSDOF 8
ENDMDL
