MODEL 5
REMARK VINA RESULT: -8.285733034      2.143      7.400
REMARK  8 active torsions:
REMARK  status: ('A' for Active; 'I' for Inactive)
REMARK    1  A    between atoms: N1_2  and  C2_5 
REMARK    2  A    between atoms: C2_5  and  C3_6 
REMARK    3  A    between atoms: C2_5  and  C10_13 
REMARK    4  A    between atoms: C3_6  and  C4_7 
REMARK       I    between atoms: C10_13  and  N2_15 
REMARK    5  A    between atoms: C14_19  and  C15_20 
REMARK       I    between atoms: C15_20  and  N3_22 
REMARK    6  A    between atoms: N3_22  and  C16_24 
REMARK    7  A    between atoms: C16_24  and  C17_25 
REMARK    8  A    between atoms: C20_28  and  N4_29 
ROOT
HETATM    1  C10 UNL     1      13.551 -12.056  19.355  1.00  0.00     0.251 C 
HETATM    2  O1  UNL     1      13.125 -11.363  18.383  1.00  0.00    -0.271 OA
HETATM    3  N2  UNL     1      14.649 -12.920  19.138  1.00  0.00    -0.337 N 
HETATM    4  C11 UNL     1      15.270 -13.096  17.803  1.00  0.00     0.127 C 
HETATM    5  C12 UNL     1      15.380 -14.620  17.782  1.00  0.00     0.022 C 
HETATM    6  C13 UNL     1      15.589 -15.027  19.222  1.00  0.00     0.037 C 
HETATM    7  C14 UNL     1      15.427 -13.741  19.993  1.00  0.00     0.179 C 
ENDROOT
BRANCH   7   8
HETATM    8  C15 UNL     1      16.744 -13.134  20.342  1.00  0.00     0.240 C 
HETATM    9  O2  UNL     1      16.749 -11.930  20.698  1.00  0.00    -0.271 OA
HETATM   10  N3  UNL     1      17.962 -13.829  20.295  1.00  0.00    -0.359 N 
ATOM     11  H3  UNL     1      17.987 -14.808  20.009  1.00  0.00     0.162 HD
BRANCH  10  12
HETATM   12  C16 UNL     1      19.181 -13.143  20.654  1.00  0.00     0.127 C 
BRANCH  12  13
HETATM   13  C17 UNL     1      19.951 -13.831  21.734  1.00  0.00     0.003 C 
HETATM   14  C18 UNL     1      19.239 -13.769  23.075  1.00  0.00     0.008 C 
HETATM   15  C19 UNL     1      20.212 -14.297  24.109  1.00  0.00     0.033 C 
HETATM   16  C20 UNL     1      20.599 -15.729  23.835  1.00  0.00     0.183 C 
HETATM   17  C21 UNL     1      20.039 -16.218  22.516  1.00  0.00     0.033 C 
HETATM   18  C22 UNL     1      20.363 -15.228  21.418  1.00  0.00     0.008 C 
BRANCH  16  19
HETATM   19  N4  UNL     1      22.036 -15.913  23.856  1.00  0.00    -0.075 N 
ATOM     20  H43 UNL     1      22.406 -15.831  24.803  1.00  0.00     0.274 HD
ATOM     21  H42 UNL     1      22.288 -16.884  23.669  1.00  0.00     0.274 HD
ATOM     22  H41 UNL     1      22.510 -15.276  23.216  1.00  0.00     0.274 HD
ENDBRANCH  16  19
ENDBRANCH  12  13
ENDBRANCH  10  12
ENDBRANCH   7   8
BRANCH   1  23
HETATM   23  C2  UNL     1      12.903 -11.938  20.645  1.00  0.00     0.280 C 
BRANCH  23  24
HETATM   24  N1  UNL     1      13.833 -11.783  21.765  1.00  0.00    -0.066 N 
HETATM   25  C1  UNL     1      13.459 -10.648  22.572  1.00  0.00     0.267 C 
ATOM     26  H12 UNL     1      14.802 -11.723  21.450  1.00  0.00     0.277 HD
ATOM     27  H11 UNL     1      13.907 -12.637  22.318  1.00  0.00     0.277 HD
ENDBRANCH  23  24
BRANCH  23  28
HETATM   28  C3  UNL     1      11.856 -12.940  20.994  1.00  0.00     0.081 C 
BRANCH  28  29
HETATM   29  C4  UNL     1      12.261 -14.341  21.011  1.00  0.00    -0.056 A 
HETATM   30  C5  UNL     1      11.945 -15.160  19.949  1.00  0.00     0.007 A 
HETATM   31  C6  UNL     1      12.291 -16.501  19.959  1.00  0.00     0.001 A 
HETATM   32  C7  UNL     1      12.958 -17.027  21.040  1.00  0.00     0.000 A 
HETATM   33  C8  UNL     1      13.285 -16.226  22.115  1.00  0.00     0.001 A 
HETATM   34  C9  UNL     1      12.925 -14.877  22.081  1.00  0.00     0.007 A 
ENDBRANCH  28  29
ENDBRANCH  23  28
ENDBRANCH   1  23
TORSDOF 8
ENDMDL
