MODEL 16
REMARK VINA RESULT: -7.648393519      1.458      1.619
REMARK  4 active torsions:
REMARK  status: ('A' for Active; 'I' for Inactive)
REMARK    1  A    between atoms: C1_2  and  C2_4 
REMARK    2  A    between atoms: C2_4  and  C3_5 
REMARK    3  A    between atoms: C3_5  and  C4_6 
REMARK    4  A    between atoms: C4_6  and  N1_7 
ROOT
HETATM    1  N1  UNL     1      20.898   3.403   0.988  1.00  0.00    -0.345 N 
HETATM    2  C5  UNL     1      20.748   4.000  -0.218  1.00  0.00     0.046 A 
HETATM    3  C6  UNL     1      19.705   4.059  -1.132  1.00  0.00     0.030 A 
HETATM    4  C7  UNL     1      19.855   4.767  -2.309  1.00  0.00     0.002 A 
HETATM    5  C8  UNL     1      21.029   5.436  -2.627  1.00  0.00     0.001 A 
HETATM    6  C9  UNL     1      22.055   5.371  -1.714  1.00  0.00     0.014 A 
HETATM    7  C10 UNL     1      21.902   4.670  -0.552  1.00  0.00     0.003 A 
HETATM    8  C11 UNL     1      22.796   4.474   0.497  1.00  0.00     0.003 A 
HETATM    9  C12 UNL     1      24.102   4.907   0.708  1.00  0.00     0.014 A 
HETATM   10  C13 UNL     1      24.778   4.563   1.855  1.00  0.00     0.001 A 
HETATM   11  C14 UNL     1      24.122   3.778   2.780  1.00  0.00     0.002 A 
HETATM   12  C15 UNL     1      22.827   3.354   2.560  1.00  0.00     0.030 A 
HETATM   13  C16 UNL     1      22.137   3.697   1.408  1.00  0.00     0.046 A 
ENDROOT
BRANCH   1  14
HETATM   14  C4  UNL     1      19.864   2.600   1.639  1.00  0.00     0.130 C 
BRANCH  14  15
HETATM   15  C3  UNL     1      18.920   3.420   2.446  1.00  0.00     0.031 C 
BRANCH  15  16
HETATM   16  C2  UNL     1      17.493   2.968   2.320  1.00  0.00     0.114 C 
BRANCH  16  17
HETATM   17  C1  UNL     1      16.625   4.024   1.743  1.00  0.00     0.172 C 
HETATM   18  O1  UNL     1      16.605   4.160   0.496  1.00  0.00    -0.648 OA
HETATM   19  O2  UNL     1      15.841   4.865   2.512  1.00  0.00    -0.648 OA
ENDBRANCH  16  17
ENDBRANCH  15  16
ENDBRANCH  14  15
ENDBRANCH   1  14
TORSDOF 4
ENDMDL
