MODEL 11
REMARK VINA RESULT: -7.798773710      2.633      4.801
REMARK  4 active torsions:
REMARK  status: ('A' for Active; 'I' for Inactive)
REMARK    1  A    between atoms: C1_2  and  C2_4 
REMARK    2  A    between atoms: C2_4  and  C3_5 
REMARK    3  A    between atoms: C3_5  and  C4_6 
REMARK    4  A    between atoms: C4_6  and  N1_7 
ROOT
HETATM    1  N1  UNL     1      21.752   4.626   0.895  1.00  0.00    -0.345 N 
HETATM    2  C5  UNL     1      23.087   4.474   0.729  1.00  0.00     0.046 A 
HETATM    3  C6  UNL     1      23.898   4.294  -0.383  1.00  0.00     0.030 A 
HETATM    4  C7  UNL     1      25.266   4.166  -0.229  1.00  0.00     0.002 A 
HETATM    5  C8  UNL     1      25.879   4.211   1.015  1.00  0.00     0.001 A 
HETATM    6  C9  UNL     1      25.066   4.390   2.109  1.00  0.00     0.014 A 
HETATM    7  C10 UNL     1      23.715   4.515   1.952  1.00  0.00     0.003 A 
HETATM    8  C11 UNL     1      22.719   4.702   2.907  1.00  0.00     0.003 A 
HETATM    9  C12 UNL     1      22.760   4.815   4.294  1.00  0.00     0.014 A 
HETATM   10  C13 UNL     1      21.604   4.994   5.017  1.00  0.00     0.001 A 
HETATM   11  C14 UNL     1      20.413   5.056   4.325  1.00  0.00     0.002 A 
HETATM   12  C15 UNL     1      20.384   4.942   2.950  1.00  0.00     0.030 A 
HETATM   13  C16 UNL     1      21.543   4.762   2.212  1.00  0.00     0.046 A 
ENDROOT
BRANCH   1  14
HETATM   14  C4  UNL     1      20.785   4.622  -0.202  1.00  0.00     0.130 C 
BRANCH  14  15
HETATM   15  C3  UNL     1      20.250   3.264  -0.494  1.00  0.00     0.031 C 
BRANCH  15  16
HETATM   16  C2  UNL     1      20.638   2.760  -1.855  1.00  0.00     0.114 C 
BRANCH  16  17
HETATM   17  C1  UNL     1      19.721   3.255  -2.912  1.00  0.00     0.172 C 
HETATM   18  O1  UNL     1      18.727   2.551  -3.211  1.00  0.00    -0.648 OA
HETATM   19  O2  UNL     1      19.910   4.450  -3.581  1.00  0.00    -0.648 OA
ENDBRANCH  16  17
ENDBRANCH  15  16
ENDBRANCH  14  15
ENDBRANCH   1  14
TORSDOF 4
ENDMDL
