MODEL 2
REMARK VINA RESULT: -7.973154690      0.822      3.677
REMARK  4 active torsions:
REMARK  status: ('A' for Active; 'I' for Inactive)
REMARK    1  A    between atoms: C1_2  and  C2_4 
REMARK    2  A    between atoms: C2_4  and  C3_5 
REMARK    3  A    between atoms: C3_5  and  C4_6 
REMARK    4  A    between atoms: C4_6  and  N1_7 
ROOT
HETATM    1  N1  UNL     1      20.915   3.721   1.119  1.00  0.00    -0.345 N 
HETATM    2  C5  UNL     1      22.215   3.880   1.465  1.00  0.00     0.046 A 
HETATM    3  C6  UNL     1      22.953   3.536   2.589  1.00  0.00     0.030 A 
HETATM    4  C7  UNL     1      24.300   3.840   2.652  1.00  0.00     0.002 A 
HETATM    5  C8  UNL     1      24.962   4.490   1.619  1.00  0.00     0.001 A 
HETATM    6  C9  UNL     1      24.220   4.826   0.512  1.00  0.00     0.014 A 
HETATM    7  C10 UNL     1      22.890   4.524   0.454  1.00  0.00     0.003 A 
HETATM    8  C11 UNL     1      21.962   4.767  -0.555  1.00  0.00     0.003 A 
HETATM    9  C12 UNL     1      22.070   5.382  -1.799  1.00  0.00     0.014 A 
HETATM   10  C13 UNL     1      20.974   5.499  -2.621  1.00  0.00     0.001 A 
HETATM   11  C14 UNL     1      19.774   4.991  -2.172  1.00  0.00     0.002 A 
HETATM   12  C15 UNL     1      19.678   4.383  -0.937  1.00  0.00     0.030 A 
HETATM   13  C16 UNL     1      20.776   4.260  -0.101  1.00  0.00     0.046 A 
ENDROOT
BRANCH   1  14
HETATM   14  C4  UNL     1      19.913   3.081   1.970  1.00  0.00     0.130 C 
BRANCH  14  15
HETATM   15  C3  UNL     1      19.268   4.033   2.916  1.00  0.00     0.031 C 
BRANCH  15  16
HETATM   16  C2  UNL     1      18.014   4.648   2.364  1.00  0.00     0.114 C 
BRANCH  16  17
HETATM   17  C1  UNL     1      18.118   6.126   2.265  1.00  0.00     0.172 C 
HETATM   18  O1  UNL     1      19.218   6.620   1.920  1.00  0.00    -0.648 OA
HETATM   19  O2  UNL     1      17.065   6.980   2.536  1.00  0.00    -0.648 OA
ENDBRANCH  16  17
ENDBRANCH  15  16
ENDBRANCH  14  15
ENDBRANCH   1  14
TORSDOF 4
ENDMDL
