MODEL 1
REMARK VINA RESULT: -7.981762560      0.000      0.000
REMARK  4 active torsions:
REMARK  status: ('A' for Active; 'I' for Inactive)
REMARK    1  A    between atoms: C1_2  and  C2_4 
REMARK    2  A    between atoms: C2_4  and  C3_5 
REMARK    3  A    between atoms: C3_5  and  C4_6 
REMARK    4  A    between atoms: C4_6  and  N1_7 
ROOT
HETATM    1  N1  UNL     1      21.128   4.285   1.391  1.00  0.00    -0.345 N 
HETATM    2  C5  UNL     1      20.844   4.688   0.130  1.00  0.00     0.046 A 
HETATM    3  C6  UNL     1      19.660   4.932  -0.551  1.00  0.00     0.030 A 
HETATM    4  C7  UNL     1      19.692   5.345  -1.870  1.00  0.00     0.002 A 
HETATM    5  C8  UNL     1      20.883   5.531  -2.559  1.00  0.00     0.001 A 
HETATM    6  C9  UNL     1      22.049   5.286  -1.874  1.00  0.00     0.014 A 
HETATM    7  C10 UNL     1      22.012   4.878  -0.572  1.00  0.00     0.003 A 
HETATM    8  C11 UNL     1      23.056   4.578   0.301  1.00  0.00     0.003 A 
HETATM    9  C12 UNL     1      24.439   4.589   0.145  1.00  0.00     0.014 A 
HETATM   10  C13 UNL     1      25.264   4.238   1.187  1.00  0.00     0.001 A 
HETATM   11  C14 UNL     1      24.678   3.877   2.381  1.00  0.00     0.002 A 
HETATM   12  C15 UNL     1      23.305   3.870   2.525  1.00  0.00     0.030 A 
HETATM   13  C16 UNL     1      22.465   4.222   1.480  1.00  0.00     0.046 A 
ENDROOT
BRANCH   1  14
HETATM   14  C4  UNL     1      20.116   3.985   2.403  1.00  0.00     0.130 C 
BRANCH  14  15
HETATM   15  C3  UNL     1      20.097   4.978   3.511  1.00  0.00     0.031 C 
BRANCH  15  16
HETATM   16  C2  UNL     1      19.504   6.298   3.107  1.00  0.00     0.114 C 
BRANCH  16  17
HETATM   17  C1  UNL     1      18.055   6.186   2.806  1.00  0.00     0.172 C 
HETATM   18  O1  UNL     1      17.630   6.695   1.741  1.00  0.00    -0.648 OA
HETATM   19  O2  UNL     1      17.154   5.550   3.640  1.00  0.00    -0.648 OA
ENDBRANCH  16  17
ENDBRANCH  15  16
ENDBRANCH  14  15
ENDBRANCH   1  14
TORSDOF 4
ENDMDL
