MODEL 13
REMARK VINA RESULT: -7.681560026      1.515      3.899
REMARK  4 active torsions:
REMARK  status: ('A' for Active; 'I' for Inactive)
REMARK    1  A    between atoms: C1_2  and  C2_4 
REMARK    2  A    between atoms: C2_4  and  C3_5 
REMARK    3  A    between atoms: C3_5  and  C4_6 
REMARK    4  A    between atoms: C4_6  and  N1_7 
ROOT
HETATM    1  N1  UNL     1      20.883   3.402   0.956  1.00  0.00    -0.345 N 
HETATM    2  C5  UNL     1      22.125   3.684   1.414  1.00  0.00     0.046 A 
HETATM    3  C6  UNL     1      22.815   3.353   2.573  1.00  0.00     0.030 A 
HETATM    4  C7  UNL     1      24.108   3.802   2.760  1.00  0.00     0.002 A 
HETATM    5  C8  UNL     1      24.764   4.587   1.822  1.00  0.00     0.001 A 
HETATM    6  C9  UNL     1      24.071   4.908   0.679  1.00  0.00     0.014 A 
HETATM    7  C10 UNL     1      22.793   4.463   0.498  1.00  0.00     0.003 A 
HETATM    8  C11 UNL     1      21.920   4.664  -0.568  1.00  0.00     0.003 A 
HETATM    9  C12 UNL     1      22.047   5.366  -1.763  1.00  0.00     0.014 A 
HETATM   10  C13 UNL     1      21.008   5.411  -2.663  1.00  0.00     0.001 A 
HETATM   11  C14 UNL     1      19.845   4.744  -2.340  1.00  0.00     0.002 A 
HETATM   12  C15 UNL     1      19.730   4.051  -1.152  1.00  0.00     0.030 A 
HETATM   13  C16 UNL     1      20.772   3.999  -0.239  1.00  0.00     0.046 A 
ENDROOT
BRANCH   1  14
HETATM   14  C4  UNL     1      19.903   2.601   1.688  1.00  0.00     0.130 C 
BRANCH  14  15
HETATM   15  C3  UNL     1      18.898   3.432   2.404  1.00  0.00     0.031 C 
BRANCH  15  16
HETATM   16  C2  UNL     1      17.492   2.931   2.233  1.00  0.00     0.114 C 
BRANCH  16  17
HETATM   17  C1  UNL     1      16.600   3.966   1.654  1.00  0.00     0.172 C 
HETATM   18  O1  UNL     1      16.707   4.224   0.431  1.00  0.00    -0.648 OA
HETATM   19  O2  UNL     1      15.661   4.660   2.395  1.00  0.00    -0.648 OA
ENDBRANCH  16  17
ENDBRANCH  15  16
ENDBRANCH  14  15
ENDBRANCH   1  14
TORSDOF 4
ENDMDL
