MODEL 3
REMARK VINA RESULT: -7.953544094      0.476      3.667
REMARK  4 active torsions:
REMARK  status: ('A' for Active; 'I' for Inactive)
REMARK    1  A    between atoms: C1_2  and  C2_4 
REMARK    2  A    between atoms: C2_4  and  C3_5 
REMARK    3  A    between atoms: C3_5  and  C4_6 
REMARK    4  A    between atoms: C4_6  and  N1_7 
ROOT
HETATM    1  N1  UNL     1      21.072   4.448   1.436  1.00  0.00    -0.345 N 
HETATM    2  C5  UNL     1      22.417   4.341   1.554  1.00  0.00     0.046 A 
HETATM    3  C6  UNL     1      23.262   4.031   2.611  1.00  0.00     0.030 A 
HETATM    4  C7  UNL     1      24.630   4.001   2.417  1.00  0.00     0.002 A 
HETATM    5  C8  UNL     1      25.211   4.273   1.185  1.00  0.00     0.001 A 
HETATM    6  C9  UNL     1      24.364   4.579   0.147  1.00  0.00     0.014 A 
HETATM    7  C10 UNL     1      23.013   4.608   0.343  1.00  0.00     0.003 A 
HETATM    8  C11 UNL     1      21.986   4.888  -0.555  1.00  0.00     0.003 A 
HETATM    9  C12 UNL     1      21.988   5.225  -1.905  1.00  0.00     0.014 A 
HETATM   10  C13 UNL     1      20.808   5.460  -2.571  1.00  0.00     0.001 A 
HETATM   11  C14 UNL     1      19.633   5.351  -1.859  1.00  0.00     0.002 A 
HETATM   12  C15 UNL     1      19.642   5.016  -0.520  1.00  0.00     0.030 A 
HETATM   13  C16 UNL     1      20.826   4.778   0.160  1.00  0.00     0.046 A 
ENDROOT
BRANCH   1  14
HETATM   14  C4  UNL     1      20.135   4.236   2.538  1.00  0.00     0.130 C 
BRANCH  14  15
HETATM   15  C3  UNL     1      19.733   5.505   3.204  1.00  0.00     0.031 C 
BRANCH  15  16
HETATM   16  C2  UNL     1      18.348   5.451   3.783  1.00  0.00     0.114 C 
BRANCH  16  17
HETATM   17  C1  UNL     1      17.350   6.102   2.898  1.00  0.00     0.172 C 
HETATM   18  O1  UNL     1      16.137   6.010   3.203  1.00  0.00    -0.648 OA
HETATM   19  O2  UNL     1      17.693   6.802   1.755  1.00  0.00    -0.648 OA
ENDBRANCH  16  17
ENDBRANCH  15  16
ENDBRANCH  14  15
ENDBRANCH   1  14
TORSDOF 4
ENDMDL
