MODEL 3
REMARK VINA RESULT: -9.093131908      2.193      3.378
REMARK  15 active torsions:
REMARK  status: ('A' for Active; 'I' for Inactive)
REMARK    1  A    between atoms: C1_2  and  C2_4 
REMARK    2  A    between atoms: N2_8  and  C6_9 
REMARK    3  A    between atoms: C7_11  and  C8_12 
REMARK    4  A    between atoms: C8_12  and  O3_13 
REMARK    5  A    between atoms: O3_13  and  P1_14 
REMARK    6  A    between atoms: P1_14  and  O6_17 
REMARK    7  A    between atoms: O6_17  and  P2_18 
REMARK    8  A    between atoms: P2_18  and  O9_21 
REMARK    9  A    between atoms: O9_21  and  C9_22 
REMARK   10  A    between atoms: C9_22  and  C10_23 
REMARK   11  A    between atoms: C11_25  and  N3_26 
REMARK   12  A    between atoms: C17_39  and  O11_40 
REMARK   13  A    between atoms: C18_42  and  O12_43 
REMARK   14  A    between atoms: C19_45  and  O13_46 
REMARK   15  A    between atoms: C20_48  and  O14_49 
ROOT
HETATM    1  P2  UNL     1      29.977 -43.935 -27.208  1.00  0.00     0.417 P 
HETATM    2  O7  UNL     1      31.053 -44.903 -26.817  1.00  0.00    -0.624 OA
HETATM    3  O8  UNL     1      30.437 -43.346 -28.789  1.00  0.00    -0.624 OA
ENDROOT
BRANCH   1   4
HETATM    4  O6  UNL     1      28.498 -44.575 -27.273  1.00  0.00    -0.180 OA
BRANCH   4   5
HETATM    5  P1  UNL     1      27.665 -44.762 -25.857  1.00  0.00     0.417 P 
HETATM    6  O4  UNL     1      27.395 -43.515 -25.130  1.00  0.00    -0.624 OA
HETATM    7  O5  UNL     1      28.750 -45.663 -24.747  1.00  0.00    -0.624 OA
BRANCH   5   8
HETATM    8  O3  UNL     1      26.386 -45.766 -26.052  1.00  0.00    -0.287 OA
BRANCH   8   9
HETATM    9  C8  UNL     1      26.404 -46.484 -27.268  1.00  0.00     0.216 C 
BRANCH   9  10
HETATM   10  C7  UNL     1      24.967 -46.180 -27.791  1.00  0.00     0.180 C 
HETATM   11  O2  UNL     1      24.557 -44.971 -27.285  1.00  0.00    -0.353 OA
HETATM   12  C6  UNL     1      24.012 -44.180 -28.268  1.00  0.00     0.259 C 
HETATM   13  C20 UNL     1      23.637 -45.175 -29.372  1.00  0.00     0.198 C 
HETATM   14  C19 UNL     1      24.854 -46.140 -29.255  1.00  0.00     0.182 C 
BRANCH  12  15
HETATM   15  N2  UNL     1      25.148 -43.394 -28.795  1.00  0.00    -0.336 N 
HETATM   16  C5  UNL     1      25.696 -43.661 -29.982  1.00  0.00     0.093 A 
HETATM   17  C4  UNL     1      26.839 -42.975 -30.389  1.00  0.00     0.018 A 
HETATM   18  C3  UNL     1      27.394 -42.035 -29.569  1.00  0.00     0.019 A 
HETATM   19  C2  UNL     1      26.806 -41.788 -28.356  1.00  0.00     0.044 A 
HETATM   20  C21 UNL     1      25.676 -42.478 -27.975  1.00  0.00     0.110 A 
BRANCH  19  21
HETATM   21  C1  UNL     1      27.385 -40.834 -27.430  1.00  0.00     0.266 C 
HETATM   22  N1  UNL     1      28.489 -40.044 -27.824  1.00  0.00    -0.057 NA
HETATM   23  O1  UNL     1      26.944 -40.663 -26.243  1.00  0.00    -0.271 OA
ENDBRANCH  19  21
ENDBRANCH  12  15
BRANCH  13  24
HETATM   24  O14 UNL     1      22.533 -45.927 -28.973  1.00  0.00    -0.388 OA
ATOM     25  H14 UNL     1      22.813 -46.623 -28.390  1.00  0.00     0.210 HD
ENDBRANCH  13  24
BRANCH  14  26
HETATM   26  O13 UNL     1      24.558 -47.366 -29.863  1.00  0.00    -0.390 OA
ATOM     27  H13 UNL     1      25.285 -47.778 -30.316  1.00  0.00     0.210 HD
ENDBRANCH  14  26
ENDBRANCH   9  10
ENDBRANCH   8   9
ENDBRANCH   5   8
ENDBRANCH   4   5
ENDBRANCH   1   4
BRANCH   1  28
HETATM   28  O9  UNL     1      30.224 -42.537 -26.220  1.00  0.00    -0.287 OA
BRANCH  28  29
HETATM   29  C9  UNL     1      31.057 -43.047 -25.170  1.00  0.00     0.216 C 
BRANCH  29  30
HETATM   30  C10 UNL     1      30.401 -42.796 -23.879  1.00  0.00     0.180 C 
HETATM   31  O10 UNL     1      31.294 -43.156 -22.831  1.00  0.00    -0.353 OA
HETATM   32  C11 UNL     1      30.508 -42.774 -21.724  1.00  0.00     0.262 C 
HETATM   33  C17 UNL     1      30.410 -41.271 -22.100  1.00  0.00     0.198 C 
HETATM   34  C18 UNL     1      29.985 -41.418 -23.590  1.00  0.00     0.182 C 
BRANCH  32  35
HETATM   35  N3  UNL     1      31.229 -43.006 -20.533  1.00  0.00    -0.297 N 
HETATM   36  C12 UNL     1      32.592 -43.056 -20.349  1.00  0.00     0.188 A 
HETATM   37  N4  UNL     1      32.884 -43.291 -19.069  1.00  0.00    -0.346 N 
HETATM   38  C13 UNL     1      31.692 -43.384 -18.409  1.00  0.00     0.119 A 
ATOM     39  H4  UNL     1      33.815 -43.382 -18.663  1.00  0.00     0.167 HD
HETATM   40  C14 UNL     1      31.409 -43.623 -17.096  1.00  0.00     0.148 A 
HETATM   41  C16 UNL     1      30.679 -43.208 -19.339  1.00  0.00     0.142 A 
HETATM   42  N5  UNL     1      32.449 -43.768 -16.134  1.00  0.00    -0.080 NA
HETATM   43  N6  UNL     1      30.131 -43.704 -16.692  1.00  0.00    -0.339 N 
HETATM   44  C15 UNL     1      29.135 -43.549 -17.569  1.00  0.00     0.183 A 
ATOM     45  H6  UNL     1      29.919 -43.883 -15.711  1.00  0.00     0.167 HD
HETATM   46  N7  UNL     1      29.423 -43.301 -18.883  1.00  0.00    -0.336 N 
ATOM     47  H7  UNL     1      28.652 -43.183 -19.540  1.00  0.00     0.168 HD
ENDBRANCH  32  35
BRANCH  33  48
HETATM   48  O11 UNL     1      29.550 -40.562 -21.335  1.00  0.00    -0.388 OA
ATOM     49  H11 UNL     1      29.287 -39.730 -21.711  1.00  0.00     0.210 HD
ENDBRANCH  33  48
BRANCH  34  50
HETATM   50  O12 UNL     1      28.558 -41.347 -23.571  1.00  0.00    -0.390 OA
ATOM     51  H12 UNL     1      28.289 -40.449 -23.418  1.00  0.00     0.210 HD
ENDBRANCH  34  50
ENDBRANCH  29  30
ENDBRANCH  28  29
ENDBRANCH   1  28
TORSDOF 15
ENDMDL
