MODEL 2
REMARK VINA RESULT: -9.115772142      2.447     11.310
REMARK  15 active torsions:
REMARK  status: ('A' for Active; 'I' for Inactive)
REMARK    1  A    between atoms: C1_2  and  C2_4 
REMARK    2  A    between atoms: N2_8  and  C6_9 
REMARK    3  A    between atoms: C7_11  and  C8_12 
REMARK    4  A    between atoms: C8_12  and  O3_13 
REMARK    5  A    between atoms: O3_13  and  P1_14 
REMARK    6  A    between atoms: P1_14  and  O6_17 
REMARK    7  A    between atoms: O6_17  and  P2_18 
REMARK    8  A    between atoms: P2_18  and  O9_21 
REMARK    9  A    between atoms: O9_21  and  C9_22 
REMARK   10  A    between atoms: C9_22  and  C10_23 
REMARK   11  A    between atoms: C11_25  and  N3_26 
REMARK   12  A    between atoms: C17_39  and  O11_40 
REMARK   13  A    between atoms: C18_42  and  O12_43 
REMARK   14  A    between atoms: C19_45  and  O13_46 
REMARK   15  A    between atoms: C20_48  and  O14_49 
ROOT
HETATM    1  P2  UNL     1      27.698 -41.759 -26.095  1.00  0.00     0.417 P 
HETATM    2  O7  UNL     1      27.063 -42.209 -24.813  1.00  0.00    -0.624 OA
HETATM    3  O8  UNL     1      26.388 -41.115 -27.059  1.00  0.00    -0.624 OA
ENDROOT
BRANCH   1   4
HETATM    4  O6  UNL     1      28.843 -40.639 -25.912  1.00  0.00    -0.180 OA
BRANCH   4   5
HETATM    5  P1  UNL     1      30.424 -41.120 -25.979  1.00  0.00     0.417 P 
HETATM    6  O4  UNL     1      31.380 -40.187 -25.368  1.00  0.00    -0.624 OA
HETATM    7  O5  UNL     1      30.883 -41.107 -27.714  1.00  0.00    -0.624 OA
BRANCH   5   8
HETATM    8  O3  UNL     1      30.582 -42.691 -25.545  1.00  0.00    -0.287 OA
BRANCH   8   9
HETATM    9  C8  UNL     1      31.654 -43.355 -26.181  1.00  0.00     0.216 C 
BRANCH   9  10
HETATM   10  C7  UNL     1      31.658 -44.698 -25.389  1.00  0.00     0.180 C 
HETATM   11  O2  UNL     1      32.791 -44.753 -24.616  1.00  0.00    -0.353 OA
HETATM   12  C6  UNL     1      32.496 -45.141 -23.330  1.00  0.00     0.259 C 
HETATM   13  C20 UNL     1      31.132 -45.827 -23.459  1.00  0.00     0.198 C 
HETATM   14  C19 UNL     1      30.487 -44.891 -24.523  1.00  0.00     0.182 C 
BRANCH  12  15
HETATM   15  N2  UNL     1      32.252 -43.879 -22.600  1.00  0.00    -0.336 N 
HETATM   16  C5  UNL     1      32.859 -42.741 -22.944  1.00  0.00     0.093 A 
HETATM   17  C4  UNL     1      32.692 -41.601 -22.158  1.00  0.00     0.018 A 
HETATM   18  C3  UNL     1      31.911 -41.657 -21.040  1.00  0.00     0.019 A 
HETATM   19  C2  UNL     1      31.306 -42.842 -20.716  1.00  0.00     0.044 A 
HETATM   20  C21 UNL     1      31.483 -43.956 -21.507  1.00  0.00     0.110 A 
BRANCH  19  21
HETATM   21  C1  UNL     1      30.505 -42.964 -19.512  1.00  0.00     0.266 C 
HETATM   22  N1  UNL     1      29.129 -42.644 -19.541  1.00  0.00    -0.057 NA
HETATM   23  O1  UNL     1      30.988 -43.351 -18.394  1.00  0.00    -0.271 OA
ENDBRANCH  19  21
ENDBRANCH  12  15
BRANCH  13  24
HETATM   24  O14 UNL     1      31.282 -47.058 -24.096  1.00  0.00    -0.388 OA
ATOM     25  H14 UNL     1      30.428 -47.444 -24.253  1.00  0.00     0.210 HD
ENDBRANCH  13  24
BRANCH  14  26
HETATM   26  O13 UNL     1      29.397 -45.528 -25.130  1.00  0.00    -0.390 OA
ATOM     27  H13 UNL     1      29.383 -45.487 -26.079  1.00  0.00     0.210 HD
ENDBRANCH  14  26
ENDBRANCH   9  10
ENDBRANCH   8   9
ENDBRANCH   5   8
ENDBRANCH   4   5
ENDBRANCH   1   4
BRANCH   1  28
HETATM   28  O9  UNL     1      28.095 -43.207 -26.954  1.00  0.00    -0.287 OA
BRANCH  28  29
HETATM   29  C9  UNL     1      27.020 -43.308 -27.898  1.00  0.00     0.216 C 
BRANCH  29  30
HETATM   30  C10 UNL     1      26.088 -44.350 -27.449  1.00  0.00     0.180 C 
HETATM   31  O10 UNL     1      25.217 -44.684 -28.524  1.00  0.00    -0.353 OA
HETATM   32  C11 UNL     1      24.484 -45.720 -27.907  1.00  0.00     0.262 C 
HETATM   33  C17 UNL     1      25.699 -46.652 -27.649  1.00  0.00     0.198 C 
HETATM   34  C18 UNL     1      26.665 -45.622 -26.996  1.00  0.00     0.182 C 
BRANCH  32  35
HETATM   35  N3  UNL     1      23.556 -46.252 -28.828  1.00  0.00    -0.297 N 
HETATM   36  C12 UNL     1      22.195 -46.398 -28.688  1.00  0.00     0.188 A 
HETATM   37  N4  UNL     1      21.666 -46.936 -29.788  1.00  0.00    -0.346 N 
HETATM   38  C13 UNL     1      22.699 -47.133 -30.660  1.00  0.00     0.119 A 
ATOM     39  H4  UNL     1      20.684 -47.157 -29.947  1.00  0.00     0.167 HD
HETATM   40  C14 UNL     1      22.724 -47.660 -31.918  1.00  0.00     0.148 A 
HETATM   41  C16 UNL     1      23.863 -46.704 -30.040  1.00  0.00     0.142 A 
HETATM   42  N5  UNL     1      21.524 -48.066 -32.569  1.00  0.00    -0.080 NA
HETATM   43  N6  UNL     1      23.893 -47.781 -32.568  1.00  0.00    -0.339 N 
HETATM   44  C15 UNL     1      25.031 -47.387 -31.990  1.00  0.00     0.183 A 
ATOM     45  H6  UNL     1      23.912 -48.176 -33.508  1.00  0.00     0.167 HD
HETATM   46  N7  UNL     1      25.000 -46.851 -30.732  1.00  0.00    -0.336 N 
ATOM     47  H7  UNL     1      25.877 -46.551 -30.305  1.00  0.00     0.168 HD
ENDBRANCH  32  35
BRANCH  33  48
HETATM   48  O11 UNL     1      25.419 -47.729 -26.882  1.00  0.00    -0.388 OA
ATOM     49  H11 UNL     1      24.648 -47.630 -26.336  1.00  0.00     0.210 HD
ENDBRANCH  33  48
BRANCH  34  50
HETATM   50  O12 UNL     1      26.455 -45.765 -25.590  1.00  0.00    -0.390 OA
ATOM     51  H12 UNL     1      25.593 -46.134 -25.436  1.00  0.00     0.210 HD
ENDBRANCH  34  50
ENDBRANCH  29  30
ENDBRANCH  28  29
ENDBRANCH   1  28
TORSDOF 15
ENDMDL
