MODEL 1
REMARK VINA RESULT: -9.186708819      0.000      0.000
REMARK  15 active torsions:
REMARK  status: ('A' for Active; 'I' for Inactive)
REMARK    1  A    between atoms: C1_2  and  C2_4 
REMARK    2  A    between atoms: N2_8  and  C6_9 
REMARK    3  A    between atoms: C7_11  and  C8_12 
REMARK    4  A    between atoms: C8_12  and  O3_13 
REMARK    5  A    between atoms: O3_13  and  P1_14 
REMARK    6  A    between atoms: P1_14  and  O6_17 
REMARK    7  A    between atoms: O6_17  and  P2_18 
REMARK    8  A    between atoms: P2_18  and  O9_21 
REMARK    9  A    between atoms: O9_21  and  C9_22 
REMARK   10  A    between atoms: C9_22  and  C10_23 
REMARK   11  A    between atoms: C11_25  and  N3_26 
REMARK   12  A    between atoms: C17_39  and  O11_40 
REMARK   13  A    between atoms: C18_42  and  O12_43 
REMARK   14  A    between atoms: C19_45  and  O13_46 
REMARK   15  A    between atoms: C20_48  and  O14_49 
ROOT
HETATM    1  P2  UNL     1      28.651 -44.226 -26.483  1.00  0.00     0.417 P 
HETATM    2  O7  UNL     1      27.891 -45.515 -26.573  1.00  0.00    -0.624 OA
HETATM    3  O8  UNL     1      30.277 -44.610 -27.001  1.00  0.00    -0.624 OA
ENDROOT
BRANCH   1   4
HETATM    4  O6  UNL     1      28.055 -43.038 -27.396  1.00  0.00    -0.180 OA
BRANCH   4   5
HETATM    5  P1  UNL     1      26.442 -42.692 -27.271  1.00  0.00     0.417 P 
HETATM    6  O4  UNL     1      26.105 -41.268 -27.389  1.00  0.00    -0.624 OA
HETATM    7  O5  UNL     1      25.967 -43.094 -25.588  1.00  0.00    -0.624 OA
BRANCH   5   8
HETATM    8  O3  UNL     1      25.547 -43.716 -28.185  1.00  0.00    -0.287 OA
BRANCH   8   9
HETATM    9  C8  UNL     1      24.179 -43.745 -27.836  1.00  0.00     0.216 C 
BRANCH   9  10
HETATM   10  C7  UNL     1      23.847 -45.238 -28.137  1.00  0.00     0.180 C 
HETATM   11  O2  UNL     1      22.713 -45.294 -28.908  1.00  0.00    -0.353 OA
HETATM   12  C6  UNL     1      22.879 -46.147 -29.974  1.00  0.00     0.259 C 
HETATM   13  C20 UNL     1      24.052 -47.037 -29.551  1.00  0.00     0.198 C 
HETATM   14  C19 UNL     1      24.921 -45.968 -28.825  1.00  0.00     0.182 C 
BRANCH  12  15
HETATM   15  N2  UNL     1      23.388 -45.291 -31.067  1.00  0.00    -0.336 N 
HETATM   16  C5  UNL     1      22.764 -44.168 -31.428  1.00  0.00     0.093 A 
HETATM   17  C4  UNL     1      23.209 -43.453 -32.539  1.00  0.00     0.018 A 
HETATM   18  C3  UNL     1      24.280 -43.908 -33.254  1.00  0.00     0.019 A 
HETATM   19  C2  UNL     1      24.894 -45.066 -32.856  1.00  0.00     0.044 A 
HETATM   20  C21 UNL     1      24.438 -45.756 -31.754  1.00  0.00     0.110 A 
BRANCH  19  21
HETATM   21  C1  UNL     1      26.005 -45.615 -33.611  1.00  0.00     0.266 C 
HETATM   22  N1  UNL     1      26.031 -46.990 -33.934  1.00  0.00    -0.057 NA
HETATM   23  O1  UNL     1      26.992 -44.907 -34.009  1.00  0.00    -0.271 OA
ENDBRANCH  19  21
ENDBRANCH  12  15
BRANCH  13  24
HETATM   24  O14 UNL     1      23.640 -47.916 -28.551  1.00  0.00    -0.388 OA
ATOM     25  H14 UNL     1      23.272 -48.700 -28.944  1.00  0.00     0.210 HD
ENDBRANCH  13  24
BRANCH  14  26
HETATM   26  O13 UNL     1      25.850 -46.592 -27.983  1.00  0.00    -0.390 OA
ATOM     27  H13 UNL     1      26.708 -46.184 -27.957  1.00  0.00     0.210 HD
ENDBRANCH  14  26
ENDBRANCH   9  10
ENDBRANCH   8   9
ENDBRANCH   5   8
ENDBRANCH   4   5
ENDBRANCH   1   4
BRANCH   1  28
HETATM   28  O9  UNL     1      28.874 -43.931 -24.793  1.00  0.00    -0.287 OA
BRANCH  28  29
HETATM   29  C9  UNL     1      30.277 -43.643 -24.715  1.00  0.00     0.216 C 
BRANCH  29  30
HETATM   30  C10 UNL     1      30.506 -42.679 -23.631  1.00  0.00     0.180 C 
HETATM   31  O10 UNL     1      30.950 -43.382 -22.475  1.00  0.00    -0.353 OA
HETATM   32  C11 UNL     1      31.169 -42.286 -21.615  1.00  0.00     0.262 C 
HETATM   33  C17 UNL     1      32.247 -41.596 -22.496  1.00  0.00     0.198 C 
HETATM   34  C18 UNL     1      31.503 -41.626 -23.862  1.00  0.00     0.182 C 
BRANCH  32  35
HETATM   35  N3  UNL     1      31.670 -42.749 -20.380  1.00  0.00    -0.297 N 
HETATM   36  C12 UNL     1      32.978 -42.973 -20.013  1.00  0.00     0.188 A 
HETATM   37  N4  UNL     1      33.043 -43.403 -18.752  1.00  0.00    -0.346 N 
HETATM   38  C13 UNL     1      31.759 -43.450 -18.290  1.00  0.00     0.119 A 
ATOM     39  H4  UNL     1      33.887 -43.649 -18.235  1.00  0.00     0.167 HD
HETATM   40  C14 UNL     1      31.253 -43.827 -17.080  1.00  0.00     0.148 A 
HETATM   41  C16 UNL     1      30.924 -43.044 -19.320  1.00  0.00     0.142 A 
HETATM   42  N5  UNL     1      32.112 -44.209 -16.011  1.00  0.00    -0.080 NA
HETATM   43  N6  UNL     1      29.925 -43.818 -16.880  1.00  0.00    -0.339 N 
HETATM   44  C15 UNL     1      29.097 -43.441 -17.858  1.00  0.00     0.183 A 
ATOM     45  H6  UNL     1      29.547 -44.100 -15.975  1.00  0.00     0.167 HD
HETATM   46  N7  UNL     1      29.609 -43.057 -19.067  1.00  0.00    -0.336 N 
ATOM     47  H7  UNL     1      28.965 -42.769 -19.803  1.00  0.00     0.168 HD
ENDBRANCH  32  35
BRANCH  33  48
HETATM   48  O11 UNL     1      32.602 -40.362 -22.075  1.00  0.00    -0.388 OA
ATOM     49  H11 UNL     1      33.515 -40.283 -21.822  1.00  0.00     0.210 HD
ENDBRANCH  33  48
BRANCH  34  50
HETATM   50  O12 UNL     1      30.846 -40.360 -23.948  1.00  0.00    -0.390 OA
ATOM     51  H12 UNL     1      30.272 -40.354 -24.706  1.00  0.00     0.210 HD
ENDBRANCH  34  50
ENDBRANCH  29  30
ENDBRANCH  28  29
ENDBRANCH   1  28
TORSDOF 15
ENDMDL
