MODEL 5
REMARK VINA RESULT: -5.884735881      1.374      1.983
REMARK  4 active torsions:
REMARK  status: ('A' for Active; 'I' for Inactive)
REMARK    1  A    between atoms: C1_2  and  C2_3 
REMARK       I    between atoms: C1_2  and  N1_9 
REMARK    2  A    between atoms: C2_3  and  O2_4 
REMARK    3  A    between atoms: O2_4  and  P1_5 
REMARK    4  A    between atoms: N1_9  and  O6_11 
ROOT
HETATM    1  O1  UNL     1      25.281  29.239  18.589  1.00  0.00    -0.269 OA
HETATM    2  C1  UNL     1      24.881  30.442  18.767  1.00  0.00     0.265 C 
HETATM    3  N1  UNL     1      23.845  30.900  17.929  1.00  0.00    -0.236 N 
ATOM      4  H1  UNL     1      23.491  31.852  18.030  1.00  0.00     0.197 HD
ENDROOT
BRANCH   2   5
HETATM    5  C2  UNL     1      25.536  31.210  19.811  1.00  0.00     0.287 C 
BRANCH   5   6
HETATM    6  O2  UNL     1      26.426  32.146  19.284  1.00  0.00    -0.273 OA
BRANCH   6   7
HETATM    7  P1  UNL     1      26.283  33.582  19.814  1.00  0.00     0.422 P 
HETATM    8  O3  UNL     1      26.053  35.001  20.356  1.00  0.00    -0.617 OA
HETATM    9  O4  UNL     1      27.108  33.139  21.167  1.00  0.00    -0.617 OA
HETATM   10  O5  UNL     1      27.160  34.167  18.546  1.00  0.00    -0.617 OA
ENDBRANCH   6   7
ENDBRANCH   5   6
ENDBRANCH   2   5
BRANCH   3  11
HETATM   11  O6  UNL     1      23.322  30.086  16.998  1.00  0.00    -0.287 OA
ATOM     12  H6  UNL     1      22.381  30.048  16.872  1.00  0.00     0.244 HD
ENDBRANCH   3  11
TORSDOF 4
ENDMDL
