MODEL 7
REMARK VINA RESULT: -5.805931381      3.014      4.907
REMARK  4 active torsions:
REMARK  status: ('A' for Active; 'I' for Inactive)
REMARK    1  A    between atoms: C1_2  and  C2_3 
REMARK       I    between atoms: C1_2  and  N1_9 
REMARK    2  A    between atoms: C2_3  and  O2_4 
REMARK    3  A    between atoms: O2_4  and  P1_5 
REMARK    4  A    between atoms: N1_9  and  O6_11 
ROOT
HETATM    1  O1  UNL     1      27.289  33.526  17.786  1.00  0.00    -0.269 OA
HETATM    2  C1  UNL     1      26.631  33.626  18.878  1.00  0.00     0.265 C 
HETATM    3  N1  UNL     1      26.641  34.883  19.517  1.00  0.00    -0.236 N 
ATOM      4  H1  UNL     1      26.132  35.015  20.391  1.00  0.00     0.197 HD
ENDROOT
BRANCH   2   5
HETATM    5  C2  UNL     1      25.942  32.437  19.348  1.00  0.00     0.287 C 
BRANCH   5   6
HETATM    6  O2  UNL     1      25.296  31.768  18.307  1.00  0.00    -0.273 OA
BRANCH   6   7
HETATM    7  P1  UNL     1      24.326  30.651  18.726  1.00  0.00     0.422 P 
HETATM    8  O3  UNL     1      23.345  29.578  19.221  1.00  0.00    -0.617 OA
HETATM    9  O4  UNL     1      23.245  31.209  17.618  1.00  0.00    -0.617 OA
HETATM   10  O5  UNL     1      25.397  29.498  18.230  1.00  0.00    -0.617 OA
ENDBRANCH   6   7
ENDBRANCH   5   6
ENDBRANCH   2   5
BRANCH   3  11
HETATM   11  O6  UNL     1      27.320  35.907  18.975  1.00  0.00    -0.287 OA
ATOM     12  H6  UNL     1      26.991  36.795  19.060  1.00  0.00     0.244 HD
ENDBRANCH   3  11
TORSDOF 4
ENDMDL
