MODEL 6
REMARK VINA RESULT: -5.830225445      3.789      5.449
REMARK  4 active torsions:
REMARK  status: ('A' for Active; 'I' for Inactive)
REMARK    1  A    between atoms: C1_2  and  C2_3 
REMARK       I    between atoms: C1_2  and  N1_9 
REMARK    2  A    between atoms: C2_3  and  O2_4 
REMARK    3  A    between atoms: O2_4  and  P1_5 
REMARK    4  A    between atoms: N1_9  and  O6_11 
ROOT
HETATM    1  O1  UNL     1      26.482  35.621  18.639  1.00  0.00    -0.269 OA
HETATM    2  C1  UNL     1      26.980  35.322  19.779  1.00  0.00     0.265 C 
HETATM    3  N1  UNL     1      27.954  36.199  20.299  1.00  0.00    -0.236 N 
ATOM      4  H1  UNL     1      28.382  36.006  21.205  1.00  0.00     0.197 HD
ENDROOT
BRANCH   2   5
HETATM    5  C2  UNL     1      26.492  34.114  20.420  1.00  0.00     0.287 C 
BRANCH   5   6
HETATM    6  O2  UNL     1      25.519  33.476  19.648  1.00  0.00    -0.273 OA
BRANCH   6   7
HETATM    7  P1  UNL     1      25.638  31.947  19.547  1.00  0.00     0.422 P 
HETATM    8  O3  UNL     1      25.667  30.415  19.440  1.00  0.00    -0.617 OA
HETATM    9  O4  UNL     1      26.270  32.121  18.037  1.00  0.00    -0.617 OA
HETATM   10  O5  UNL     1      26.692  31.918  20.815  1.00  0.00    -0.617 OA
ENDBRANCH   6   7
ENDBRANCH   5   6
ENDBRANCH   2   5
BRANCH   3  11
HETATM   11  O6  UNL     1      28.319  37.289  19.604  1.00  0.00    -0.287 OA
ATOM     12  H6  UNL     1      28.217  38.153  19.986  1.00  0.00     0.244 HD
ENDBRANCH   3  11
TORSDOF 4
ENDMDL
