MODEL 4
REMARK VINA RESULT: -6.355456312      0.721      1.283
REMARK  4 active torsions:
REMARK  status: ('A' for Active; 'I' for Inactive)
REMARK    1  A    between atoms: C1_2  and  C2_3 
REMARK       I    between atoms: C1_2  and  N1_9 
REMARK    2  A    between atoms: C2_3  and  O2_4 
REMARK    3  A    between atoms: O2_4  and  P1_5 
REMARK    4  A    between atoms: N1_9  and  O6_11 
ROOT
HETATM    1  O1  UNL     1      23.371  29.252  19.284  1.00  0.00    -0.269 OA
HETATM    2  C1  UNL     1      23.879  30.155  18.534  1.00  0.00     0.265 C 
HETATM    3  N1  UNL     1      23.205  30.436  17.328  1.00  0.00    -0.236 N 
ATOM      4  H1  UNL     1      23.570  31.147  16.694  1.00  0.00     0.197 HD
ENDROOT
BRANCH   2   5
HETATM    5  C2  UNL     1      25.095  30.798  19.000  1.00  0.00     0.287 C 
BRANCH   5   6
HETATM    6  O2  UNL     1      24.880  31.521  20.174  1.00  0.00    -0.273 OA
BRANCH   6   7
HETATM    7  P1  UNL     1      25.453  32.947  20.199  1.00  0.00     0.422 P 
HETATM    8  O3  UNL     1      26.005  34.380  20.137  1.00  0.00    -0.617 OA
HETATM    9  O4  UNL     1      24.181  33.417  21.130  1.00  0.00    -0.617 OA
HETATM   10  O5  UNL     1      26.809  32.418  20.974  1.00  0.00    -0.617 OA
ENDBRANCH   6   7
ENDBRANCH   5   6
ENDBRANCH   2   5
BRANCH   3  11
HETATM   11  O6  UNL     1      22.084  29.768  17.012  1.00  0.00    -0.287 OA
ATOM     12  H6  UNL     1      22.012  29.327  16.173  1.00  0.00     0.244 HD
ENDBRANCH   3  11
TORSDOF 4
ENDMDL
