MODEL 9
REMARK VINA RESULT: -5.599455360      3.636      5.453
REMARK  4 active torsions:
REMARK  status: ('A' for Active; 'I' for Inactive)
REMARK    1  A    between atoms: C1_2  and  C2_3 
REMARK       I    between atoms: C1_2  and  N1_9 
REMARK    2  A    between atoms: C2_3  and  O2_4 
REMARK    3  A    between atoms: O2_4  and  P1_5 
REMARK    4  A    between atoms: N1_9  and  O6_11 
ROOT
HETATM    1  O1  UNL     1      26.465  35.379  18.624  1.00  0.00    -0.269 OA
HETATM    2  C1  UNL     1      26.949  35.106  19.777  1.00  0.00     0.265 C 
HETATM    3  N1  UNL     1      27.860  36.035  20.322  1.00  0.00    -0.236 N 
ATOM      4  H1  UNL     1      28.275  35.863  21.239  1.00  0.00     0.197 HD
ENDROOT
BRANCH   2   5
HETATM    5  C2  UNL     1      26.513  33.871  20.404  1.00  0.00     0.287 C 
BRANCH   5   6
HETATM    6  O2  UNL     1      25.447  33.291  19.716  1.00  0.00    -0.273 OA
BRANCH   6   7
HETATM    7  P1  UNL     1      25.556  31.779  19.459  1.00  0.00     0.422 P 
HETATM    8  O3  UNL     1      25.676  30.256  19.290  1.00  0.00    -0.617 OA
HETATM    9  O4  UNL     1      23.954  31.751  19.084  1.00  0.00    -0.617 OA
HETATM   10  O5  UNL     1      26.622  32.038  18.227  1.00  0.00    -0.617 OA
ENDBRANCH   6   7
ENDBRANCH   5   6
ENDBRANCH   2   5
BRANCH   3  11
HETATM   11  O6  UNL     1      28.182  37.144  19.638  1.00  0.00    -0.287 OA
ATOM     12  H6  UNL     1      29.001  37.188  19.159  1.00  0.00     0.244 HD
ENDBRANCH   3  11
TORSDOF 4
ENDMDL
