MODEL 3
REMARK VINA RESULT: -8.549039684      0.926      1.467
REMARK  8 active torsions:
REMARK  status: ('A' for Active; 'I' for Inactive)
REMARK    1  A    between atoms: N4_10  and  C5_11 
REMARK    2  A    between atoms: C6_13  and  C7_14 
REMARK    3  A    between atoms: C7_14  and  O2_15 
REMARK    4  A    between atoms: O2_15  and  P1_16 
REMARK    5  A    between atoms: P1_16  and  O5_19 
REMARK    6  A    between atoms: O5_19  and  P2_20 
REMARK    7  A    between atoms: C8_24  and  O9_25 
REMARK    8  A    between atoms: C9_27  and  O10_28 
ROOT
HETATM    1  C5  UNL     1      14.417  23.592  42.089  1.00  0.00     0.262 C 
HETATM    2  O1  UNL     1      13.666  24.305  41.160  1.00  0.00    -0.353 OA
HETATM    3  C6  UNL     1      13.455  25.565  41.720  1.00  0.00     0.180 C 
HETATM    4  C8  UNL     1      14.811  25.900  42.235  1.00  0.00     0.182 C 
HETATM    5  C9  UNL     1      15.183  24.592  42.908  1.00  0.00     0.198 C 
ENDROOT
BRANCH   1   6
HETATM    6  N4  UNL     1      15.288  22.618  41.510  1.00  0.00    -0.297 N 
HETATM    7  C2  UNL     1      16.006  21.653  42.158  1.00  0.00     0.146 A 
HETATM    8  N2  UNL     1      16.069  21.386  43.473  1.00  0.00    -0.314 N 
HETATM    9  C3  UNL     1      16.720  20.923  41.216  1.00  0.00     0.146 A 
HETATM   10  C1  UNL     1      16.852  20.371  43.915  1.00  0.00     0.196 A 
ATOM     11  H2  UNL     1      15.530  21.944  44.136  1.00  0.00     0.170 HD
HETATM   12  N1  UNL     1      16.954  20.049  45.290  1.00  0.00    -0.063 NA
HETATM   13  N5  UNL     1      17.542  19.669  42.984  1.00  0.00    -0.295 N 
HETATM   14  C10 UNL     1      17.514  19.892  41.681  1.00  0.00     0.278 A 
ATOM     15  H5  UNL     1      18.131  18.905  43.315  1.00  0.00     0.171 HD
HETATM   16  O11 UNL     1      18.156  19.236  40.825  1.00  0.00    -0.265 OA
HETATM   17  N3  UNL     1      16.433  21.442  40.027  1.00  0.00    -0.345 N 
HETATM   18  C4  UNL     1      15.571  22.462  40.206  1.00  0.00     0.188 A 
ATOM     19  H3  UNL     1      16.802  21.123  39.132  1.00  0.00     0.167 HD
ENDBRANCH   1   6
BRANCH   5  20
HETATM   20  O10 UNL     1      14.745  24.651  44.237  1.00  0.00    -0.388 OA
ATOM     21  H10 UNL     1      15.173  25.338  44.734  1.00  0.00     0.210 HD
ENDBRANCH   5  20
BRANCH   3  22
HETATM   22  C7  UNL     1      12.884  26.534  40.748  1.00  0.00     0.216 C 
BRANCH  22  23
HETATM   23  O2  UNL     1      12.616  26.056  39.512  1.00  0.00    -0.287 OA
BRANCH  23  24
HETATM   24  P1  UNL     1      11.115  26.060  38.943  1.00  0.00     0.418 P 
HETATM   25  O3  UNL     1       9.967  27.121  39.604  1.00  0.00    -0.624 OA
HETATM   26  O4  UNL     1      11.363  27.045  37.807  1.00  0.00    -0.624 OA
BRANCH  24  27
HETATM   27  O5  UNL     1      10.588  24.920  37.865  1.00  0.00    -0.173 OA
BRANCH  27  28
HETATM   28  P2  UNL     1       9.618  25.474  36.679  1.00  0.00     0.431 P 
HETATM   29  O6  UNL     1      10.045  25.511  35.106  1.00  0.00    -0.616 OA
HETATM   30  O7  UNL     1       8.875  24.135  36.557  1.00  0.00    -0.616 OA
HETATM   31  O8  UNL     1       8.130  26.182  37.077  1.00  0.00    -0.616 OA
ENDBRANCH  27  28
ENDBRANCH  24  27
ENDBRANCH  23  24
ENDBRANCH  22  23
ENDBRANCH   3  22
BRANCH   4  32
HETATM   32  O9  UNL     1      14.810  26.873  43.223  1.00  0.00    -0.390 OA
ATOM     33  H9  UNL     1      15.336  26.650  43.982  1.00  0.00     0.210 HD
ENDBRANCH   4  32
TORSDOF 8
ENDMDL
