MODEL 7
REMARK VINA RESULT: -8.024815652      4.933      7.404
REMARK  8 active torsions:
REMARK  status: ('A' for Active; 'I' for Inactive)
REMARK    1  A    between atoms: N4_10  and  C5_11 
REMARK    2  A    between atoms: C6_13  and  C7_14 
REMARK    3  A    between atoms: C7_14  and  O2_15 
REMARK    4  A    between atoms: O2_15  and  P1_16 
REMARK    5  A    between atoms: P1_16  and  O5_19 
REMARK    6  A    between atoms: O5_19  and  P2_20 
REMARK    7  A    between atoms: C8_24  and  O9_25 
REMARK    8  A    between atoms: C9_27  and  O10_28 
ROOT
HETATM    1  C5  UNL     1      11.059  26.377  38.625  1.00  0.00     0.262 C 
HETATM    2  O1  UNL     1       9.954  27.200  38.440  1.00  0.00    -0.353 OA
HETATM    3  C6  UNL     1       9.572  27.040  37.108  1.00  0.00     0.180 C 
HETATM    4  C8  UNL     1       9.636  25.562  36.948  1.00  0.00     0.182 C 
HETATM    5  C9  UNL     1      10.966  25.267  37.616  1.00  0.00     0.198 C 
ENDROOT
BRANCH   1   6
HETATM    6  N4  UNL     1      11.188  25.862  39.952  1.00  0.00    -0.297 N 
HETATM    7  C2  UNL     1      10.722  26.417  41.111  1.00  0.00     0.146 A 
HETATM    8  N2  UNL     1      10.041  27.561  41.285  1.00  0.00    -0.314 N 
HETATM    9  C3  UNL     1      11.067  25.587  42.170  1.00  0.00     0.146 A 
HETATM   10  C1  UNL     1       9.667  27.936  42.534  1.00  0.00     0.196 A 
ATOM     11  H2  UNL     1       9.805  28.145  40.483  1.00  0.00     0.170 HD
HETATM   12  N1  UNL     1       8.947  29.131  42.772  1.00  0.00    -0.063 NA
HETATM   13  N5  UNL     1      10.010  27.115  43.556  1.00  0.00    -0.295 N 
HETATM   14  C10 UNL     1      10.680  25.981  43.436  1.00  0.00     0.278 A 
ATOM     15  H5  UNL     1       9.730  27.396  44.496  1.00  0.00     0.171 HD
HETATM   16  O11 UNL     1      10.994  25.228  44.390  1.00  0.00    -0.265 OA
HETATM   17  N3  UNL     1      11.727  24.555  41.654  1.00  0.00    -0.345 N 
HETATM   18  C4  UNL     1      11.799  24.722  40.319  1.00  0.00     0.188 A 
ATOM     19  H3  UNL     1      12.112  23.771  42.179  1.00  0.00     0.167 HD
ENDBRANCH   1   6
BRANCH   5  20
HETATM   20  O10 UNL     1      11.966  25.342  36.637  1.00  0.00    -0.388 OA
ATOM     21  H10 UNL     1      12.613  24.651  36.721  1.00  0.00     0.210 HD
ENDBRANCH   5  20
BRANCH   3  22
HETATM   22  C7  UNL     1       8.253  27.658  36.814  1.00  0.00     0.216 C 
BRANCH  22  23
HETATM   23  O2  UNL     1       7.528  27.086  35.826  1.00  0.00    -0.287 OA
BRANCH  23  24
HETATM   24  P1  UNL     1       6.443  27.940  35.009  1.00  0.00     0.418 P 
HETATM   25  O3  UNL     1       4.841  28.016  35.564  1.00  0.00    -0.624 OA
HETATM   26  O4  UNL     1       6.733  29.277  35.683  1.00  0.00    -0.624 OA
BRANCH  24  27
HETATM   27  O5  UNL     1       6.782  28.591  33.526  1.00  0.00    -0.173 OA
BRANCH  27  28
HETATM   28  P2  UNL     1       7.945  29.733  33.512  1.00  0.00     0.431 P 
HETATM   29  O6  UNL     1       9.504  29.439  33.889  1.00  0.00    -0.616 OA
HETATM   30  O7  UNL     1       8.171  29.590  31.999  1.00  0.00    -0.616 OA
HETATM   31  O8  UNL     1       7.526  31.350  33.225  1.00  0.00    -0.616 OA
ENDBRANCH  27  28
ENDBRANCH  24  27
ENDBRANCH  23  24
ENDBRANCH  22  23
ENDBRANCH   3  22
BRANCH   4  32
HETATM   32  O9  UNL     1       9.748  25.145  35.630  1.00  0.00    -0.390 OA
ATOM     33  H9  UNL     1       9.049  24.565  35.351  1.00  0.00     0.210 HD
ENDBRANCH   4  32
TORSDOF 8
ENDMDL
