MODEL 4
REMARK VINA RESULT: -8.203859940      3.382      5.792
REMARK  8 active torsions:
REMARK  status: ('A' for Active; 'I' for Inactive)
REMARK    1  A    between atoms: N4_10  and  C5_11 
REMARK    2  A    between atoms: C6_13  and  C7_14 
REMARK    3  A    between atoms: C7_14  and  O2_15 
REMARK    4  A    between atoms: O2_15  and  P1_16 
REMARK    5  A    between atoms: P1_16  and  O5_19 
REMARK    6  A    between atoms: O5_19  and  P2_20 
REMARK    7  A    between atoms: C8_24  and  O9_25 
REMARK    8  A    between atoms: C9_27  and  O10_28 
ROOT
HETATM    1  C5  UNL     1      11.720  26.267  39.171  1.00  0.00     0.262 C 
HETATM    2  O1  UNL     1      10.527  26.968  39.037  1.00  0.00    -0.353 OA
HETATM    3  C6  UNL     1      10.164  26.857  37.694  1.00  0.00     0.180 C 
HETATM    4  C8  UNL     1      10.397  25.411  37.434  1.00  0.00     0.182 C 
HETATM    5  C9  UNL     1      11.754  25.226  38.087  1.00  0.00     0.198 C 
ENDROOT
BRANCH   1   6
HETATM    6  N4  UNL     1      11.911  25.679  40.460  1.00  0.00    -0.297 N 
HETATM    7  C2  UNL     1      13.062  25.155  40.975  1.00  0.00     0.146 A 
HETATM    8  N2  UNL     1      14.276  25.062  40.408  1.00  0.00    -0.314 N 
HETATM    9  C3  UNL     1      12.803  24.691  42.259  1.00  0.00     0.146 A 
HETATM   10  C1  UNL     1      15.299  24.499  41.099  1.00  0.00     0.196 A 
ATOM     11  H2  UNL     1      14.429  25.414  39.463  1.00  0.00     0.170 HD
HETATM   12  N1  UNL     1      16.596  24.377  40.548  1.00  0.00    -0.063 NA
HETATM   13  N5  UNL     1      15.030  24.052  42.350  1.00  0.00    -0.295 N 
HETATM   14  C10 UNL     1      13.854  24.120  42.951  1.00  0.00     0.278 A 
ATOM     15  H5  UNL     1      15.798  23.629  42.870  1.00  0.00     0.171 HD
HETATM   16  O11 UNL     1      13.615  23.703  44.110  1.00  0.00    -0.265 OA
HETATM   17  N3  UNL     1      11.521  24.936  42.506  1.00  0.00    -0.345 N 
HETATM   18  C4  UNL     1      10.985  25.530  41.423  1.00  0.00     0.188 A 
ATOM     19  H3  UNL     1      11.027  24.711  43.369  1.00  0.00     0.167 HD
ENDBRANCH   1   6
BRANCH   5  20
HETATM   20  O10 UNL     1      12.736  25.482  37.122  1.00  0.00    -0.388 OA
ATOM     21  H10 UNL     1      13.056  24.691  36.706  1.00  0.00     0.210 HD
ENDBRANCH   5  20
BRANCH   3  22
HETATM   22  C7  UNL     1       8.781  27.338  37.435  1.00  0.00     0.216 C 
BRANCH  22  23
HETATM   23  O2  UNL     1       8.418  27.452  36.138  1.00  0.00    -0.287 OA
BRANCH  23  24
HETATM   24  P1  UNL     1       6.910  27.836  35.743  1.00  0.00     0.418 P 
HETATM   25  O3  UNL     1       6.337  29.406  36.039  1.00  0.00    -0.624 OA
HETATM   26  O4  UNL     1       7.203  28.222  34.297  1.00  0.00    -0.624 OA
BRANCH  24  27
HETATM   27  O5  UNL     1       5.822  26.695  35.239  1.00  0.00    -0.173 OA
BRANCH  27  28
HETATM   28  P2  UNL     1       4.573  27.260  34.359  1.00  0.00     0.431 P 
HETATM   29  O6  UNL     1       4.569  27.321  32.730  1.00  0.00    -0.616 OA
HETATM   30  O7  UNL     1       3.827  25.919  34.418  1.00  0.00    -0.616 OA
HETATM   31  O8  UNL     1       3.242  27.955  35.145  1.00  0.00    -0.616 OA
ENDBRANCH  27  28
ENDBRANCH  24  27
ENDBRANCH  23  24
ENDBRANCH  22  23
ENDBRANCH   3  22
BRANCH   4  32
HETATM   32  O9  UNL     1      10.553  25.101  36.091  1.00  0.00    -0.390 OA
ATOM     33  H9  UNL     1      10.887  24.225  35.935  1.00  0.00     0.210 HD
ENDBRANCH   4  32
TORSDOF 8
ENDMDL
