MODEL 1
REMARK VINA RESULT: -9.039263441      0.000      0.000
REMARK  8 active torsions:
REMARK  status: ('A' for Active; 'I' for Inactive)
REMARK    1  A    between atoms: N4_10  and  C5_11 
REMARK    2  A    between atoms: C6_13  and  C7_14 
REMARK    3  A    between atoms: C7_14  and  O2_15 
REMARK    4  A    between atoms: O2_15  and  P1_16 
REMARK    5  A    between atoms: P1_16  and  O5_19 
REMARK    6  A    between atoms: O5_19  and  P2_20 
REMARK    7  A    between atoms: C8_24  and  O9_25 
REMARK    8  A    between atoms: C9_27  and  O10_28 
ROOT
HETATM    1  C5  UNL     1      14.639  23.833  42.000  1.00  0.00     0.262 C 
HETATM    2  O1  UNL     1      13.355  24.095  41.534  1.00  0.00    -0.353 OA
HETATM    3  C6  UNL     1      13.199  25.481  41.594  1.00  0.00     0.180 C 
HETATM    4  C8  UNL     1      14.485  25.957  41.016  1.00  0.00     0.182 C 
HETATM    5  C9  UNL     1      15.467  25.062  41.748  1.00  0.00     0.198 C 
ENDROOT
BRANCH   1   6
HETATM    6  N4  UNL     1      15.244  22.673  41.423  1.00  0.00    -0.297 N 
HETATM    7  C2  UNL     1      15.955  21.698  42.064  1.00  0.00     0.146 A 
HETATM    8  N2  UNL     1      16.257  21.592  43.368  1.00  0.00    -0.314 N 
HETATM    9  C3  UNL     1      16.361  20.757  41.127  1.00  0.00     0.146 A 
HETATM   10  C1  UNL     1      16.983  20.533  43.805  1.00  0.00     0.196 A 
ATOM     11  H2  UNL     1      15.941  22.303  44.027  1.00  0.00     0.170 HD
HETATM   12  N1  UNL     1      17.328  20.372  45.168  1.00  0.00    -0.063 NA
HETATM   13  N5  UNL     1      17.371  19.623  42.878  1.00  0.00    -0.295 N 
HETATM   14  C10 UNL     1      17.100  19.683  41.585  1.00  0.00     0.278 A 
ATOM     15  H5  UNL     1      17.917  18.825  43.205  1.00  0.00     0.171 HD
HETATM   16  O11 UNL     1      17.464  18.835  40.735  1.00  0.00    -0.265 OA
HETATM   17  N3  UNL     1      15.900  21.161  39.948  1.00  0.00    -0.345 N 
HETATM   18  C4  UNL     1      15.228  22.315  40.128  1.00  0.00     0.188 A 
ATOM     19  H3  UNL     1      16.033  20.680  39.059  1.00  0.00     0.167 HD
ENDBRANCH   1   6
BRANCH   5  20
HETATM   20  O10 UNL     1      15.843  25.712  42.930  1.00  0.00    -0.388 OA
ATOM     21  H10 UNL     1      16.679  26.156  42.854  1.00  0.00     0.210 HD
ENDBRANCH   5  20
BRANCH   3  22
HETATM   22  C7  UNL     1      11.973  25.947  40.895  1.00  0.00     0.216 C 
BRANCH  22  23
HETATM   23  O2  UNL     1      12.156  26.556  39.701  1.00  0.00    -0.287 OA
BRANCH  23  24
HETATM   24  P1  UNL     1      11.601  25.889  38.351  1.00  0.00     0.418 P 
HETATM   25  O3  UNL     1      12.692  25.287  37.199  1.00  0.00    -0.624 OA
HETATM   26  O4  UNL     1      11.424  24.483  38.912  1.00  0.00    -0.624 OA
BRANCH  24  27
HETATM   27  O5  UNL     1       9.998  25.950  37.943  1.00  0.00    -0.173 OA
BRANCH  27  28
HETATM   28  P2  UNL     1       9.577  25.079  36.632  1.00  0.00     0.431 P 
HETATM   29  O6  UNL     1       8.875  23.609  36.710  1.00  0.00    -0.616 OA
HETATM   30  O7  UNL     1       8.243  25.825  36.472  1.00  0.00    -0.616 OA
HETATM   31  O8  UNL     1       9.993  25.638  35.087  1.00  0.00    -0.616 OA
ENDBRANCH  27  28
ENDBRANCH  24  27
ENDBRANCH  23  24
ENDBRANCH  22  23
ENDBRANCH   3  22
BRANCH   4  32
HETATM   32  O9  UNL     1      14.802  27.263  41.356  1.00  0.00    -0.390 OA
ATOM     33  H9  UNL     1      15.736  27.436  41.386  1.00  0.00     0.210 HD
ENDBRANCH   4  32
TORSDOF 8
ENDMDL
