MODEL 2
REMARK VINA RESULT: -8.562280035      9.199     12.267
REMARK  8 active torsions:
REMARK  status: ('A' for Active; 'I' for Inactive)
REMARK    1  A    between atoms: N4_10  and  C5_11 
REMARK    2  A    between atoms: C6_13  and  C7_14 
REMARK    3  A    between atoms: C7_14  and  O2_15 
REMARK    4  A    between atoms: O2_15  and  P1_16 
REMARK    5  A    between atoms: P1_16  and  O5_19 
REMARK    6  A    between atoms: O5_19  and  P2_20 
REMARK    7  A    between atoms: C8_24  and  O9_25 
REMARK    8  A    between atoms: C9_27  and  O10_28 
ROOT
HETATM    1  C5  UNL     1       7.358  30.038  35.247  1.00  0.00     0.262 C 
HETATM    2  O1  UNL     1       8.050  28.889  35.611  1.00  0.00    -0.353 OA
HETATM    3  C6  UNL     1       7.087  27.987  36.066  1.00  0.00     0.180 C 
HETATM    4  C8  UNL     1       6.034  28.116  35.023  1.00  0.00     0.182 C 
HETATM    5  C9  UNL     1       5.959  29.625  34.888  1.00  0.00     0.198 C 
ENDROOT
BRANCH   1   6
HETATM    6  N4  UNL     1       7.970  30.776  34.185  1.00  0.00    -0.297 N 
HETATM    7  C2  UNL     1       7.811  30.588  32.841  1.00  0.00     0.146 A 
HETATM    8  N2  UNL     1       7.057  29.682  32.197  1.00  0.00    -0.314 N 
HETATM    9  C3  UNL     1       8.588  31.523  32.169  1.00  0.00     0.146 A 
HETATM   10  C1  UNL     1       7.041  29.664  30.842  1.00  0.00     0.196 A 
ATOM     11  H2  UNL     1       6.500  29.011  32.725  1.00  0.00     0.170 HD
HETATM   12  N1  UNL     1       6.263  28.731  30.115  1.00  0.00    -0.063 NA
HETATM   13  N5  UNL     1       7.803  30.583  30.200  1.00  0.00    -0.295 N 
HETATM   14  C10 UNL     1       8.561  31.493  30.787  1.00  0.00     0.278 A 
ATOM     15  H5  UNL     1       7.791  30.571  29.180  1.00  0.00     0.171 HD
HETATM   16  O11 UNL     1       9.264  32.340  30.185  1.00  0.00    -0.265 OA
HETATM   17  N3  UNL     1       9.198  32.256  33.094  1.00  0.00    -0.345 N 
HETATM   18  C4  UNL     1       8.825  31.805  34.307  1.00  0.00     0.188 A 
ATOM     19  H3  UNL     1       9.840  33.028  32.915  1.00  0.00     0.167 HD
ENDBRANCH   1   6
BRANCH   5  20
HETATM   20  O10 UNL     1       5.006  30.093  35.803  1.00  0.00    -0.388 OA
ATOM     21  H10 UNL     1       4.603  30.907  35.527  1.00  0.00     0.210 HD
ENDBRANCH   5  20
BRANCH   3  22
HETATM   22  C7  UNL     1       7.633  26.618  36.258  1.00  0.00     0.216 C 
BRANCH  22  23
HETATM   23  O2  UNL     1       8.806  26.527  36.924  1.00  0.00    -0.287 OA
BRANCH  23  24
HETATM   24  P1  UNL     1       9.763  25.254  36.721  1.00  0.00     0.418 P 
HETATM   25  O3  UNL     1       9.084  23.707  36.565  1.00  0.00    -0.624 OA
HETATM   26  O4  UNL     1       9.867  25.356  35.204  1.00  0.00    -0.624 OA
BRANCH  24  27
HETATM   27  O5  UNL     1      11.408  25.369  36.862  1.00  0.00    -0.173 OA
BRANCH  27  28
HETATM   28  P2  UNL     1      11.953  25.879  38.310  1.00  0.00     0.431 P 
HETATM   29  O6  UNL     1      11.171  26.970  39.236  1.00  0.00    -0.616 OA
HETATM   30  O7  UNL     1      11.357  24.669  39.045  1.00  0.00    -0.616 OA
HETATM   31  O8  UNL     1      13.475  25.374  38.858  1.00  0.00    -0.616 OA
ENDBRANCH  27  28
ENDBRANCH  24  27
ENDBRANCH  23  24
ENDBRANCH  22  23
ENDBRANCH   3  22
BRANCH   4  32
HETATM   32  O9  UNL     1       4.781  27.687  35.436  1.00  0.00    -0.390 OA
ATOM     33  H9  UNL     1       4.522  26.849  35.071  1.00  0.00     0.210 HD
ENDBRANCH   4  32
TORSDOF 8
ENDMDL
