MODEL 14
REMARK VINA RESULT: -5.230845510      3.220      4.794
REMARK  4 active torsions:
REMARK  status: ('A' for Active; 'I' for Inactive)
REMARK    1  A    between atoms: C1_2  and  C2_3 
REMARK       I    between atoms: C1_2  and  N1_9 
REMARK    2  A    between atoms: C2_3  and  O2_4 
REMARK    3  A    between atoms: O2_4  and  P1_5 
REMARK    4  A    between atoms: N1_9  and  O6_11 
ROOT
HETATM    1  O1  UNL     1       9.614 -21.741 -19.827  1.00  0.00    -0.269 OA
HETATM    2  C1  UNL     1      10.468 -22.145 -18.964  1.00  0.00     0.265 C 
HETATM    3  N1  UNL     1      11.748 -21.555 -19.007  1.00  0.00    -0.236 N 
ATOM      4  H1  UNL     1      12.465 -21.843 -18.341  1.00  0.00     0.197 HD
ENDROOT
BRANCH   2   5
HETATM    5  C2  UNL     1      10.033 -23.169 -18.031  1.00  0.00     0.287 C 
BRANCH   5   6
HETATM    6  O2  UNL     1       8.731 -22.940 -17.582  1.00  0.00    -0.273 OA
BRANCH   6   7
HETATM    7  P1  UNL     1       7.730 -24.084 -17.812  1.00  0.00     0.422 P 
HETATM    8  O3  UNL     1       6.701 -25.184 -18.114  1.00  0.00    -0.617 OA
HETATM    9  O4  UNL     1       8.984 -25.063 -18.236  1.00  0.00    -0.617 OA
HETATM   10  O5  UNL     1       7.291 -24.056 -16.223  1.00  0.00    -0.617 OA
ENDBRANCH   6   7
ENDBRANCH   5   6
ENDBRANCH   2   5
BRANCH   3  11
HETATM   11  O6  UNL     1      12.024 -20.613 -19.924  1.00  0.00    -0.287 OA
ATOM     12  H6  UNL     1      12.094 -19.702 -19.665  1.00  0.00     0.244 HD
ENDBRANCH   3  11
TORSDOF 4
ENDMDL
