MODEL 1
REMARK VINA RESULT: -5.784902131      0.000      0.000
REMARK  4 active torsions:
REMARK  status: ('A' for Active; 'I' for Inactive)
REMARK    1  A    between atoms: C1_2  and  C2_3 
REMARK       I    between atoms: C1_2  and  N1_9 
REMARK    2  A    between atoms: C2_3  and  O2_4 
REMARK    3  A    between atoms: O2_4  and  P1_5 
REMARK    4  A    between atoms: N1_9  and  O6_11 
ROOT
HETATM    1  O1  UNL     1       5.945 -22.773 -16.971  1.00  0.00    -0.269 OA
HETATM    2  C1  UNL     1       6.539 -23.732 -17.575  1.00  0.00     0.265 C 
HETATM    3  N1  UNL     1       6.146 -25.042 -17.233  1.00  0.00    -0.236 N 
ATOM      4  H1  UNL     1       6.590 -25.842 -17.686  1.00  0.00     0.197 HD
ENDROOT
BRANCH   2   5
HETATM    5  C2  UNL     1       7.556 -23.373 -18.548  1.00  0.00     0.287 C 
BRANCH   5   6
HETATM    6  O2  UNL     1       8.723 -24.117 -18.375  1.00  0.00    -0.273 OA
BRANCH   6   7
HETATM    7  P1  UNL     1       9.733 -23.556 -17.361  1.00  0.00     0.422 P 
HETATM    8  O3  UNL     1      10.693 -22.921 -16.342  1.00  0.00    -0.617 OA
HETATM    9  O4  UNL     1       9.202 -24.656 -16.258  1.00  0.00    -0.617 OA
HETATM   10  O5  UNL     1      10.993 -23.997 -18.330  1.00  0.00    -0.617 OA
ENDBRANCH   6   7
ENDBRANCH   5   6
ENDBRANCH   2   5
BRANCH   3  11
HETATM   11  O6  UNL     1       5.188 -25.239 -16.313  1.00  0.00    -0.287 OA
ATOM     12  H6  UNL     1       5.420 -25.329 -15.396  1.00  0.00     0.244 HD
ENDBRANCH   3  11
TORSDOF 4
ENDMDL
