MODEL 3
REMARK VINA RESULT: -5.670919979      1.794      2.196
REMARK  4 active torsions:
REMARK  status: ('A' for Active; 'I' for Inactive)
REMARK    1  A    between atoms: C1_2  and  C2_3 
REMARK       I    between atoms: C1_2  and  N1_9 
REMARK    2  A    between atoms: C2_3  and  O2_4 
REMARK    3  A    between atoms: O2_4  and  P1_5 
REMARK    4  A    between atoms: N1_9  and  O6_11 
ROOT
HETATM    1  O1  UNL     1       6.437 -24.759 -15.381  1.00  0.00    -0.269 OA
HETATM    2  C1  UNL     1       6.014 -24.356 -16.519  1.00  0.00     0.265 C 
HETATM    3  N1  UNL     1       4.981 -23.396 -16.512  1.00  0.00    -0.236 N 
ATOM      4  H1  UNL     1       4.608 -23.042 -17.393  1.00  0.00     0.197 HD
ENDROOT
BRANCH   2   5
HETATM    5  C2  UNL     1       6.638 -24.928 -17.699  1.00  0.00     0.287 C 
BRANCH   5   6
HETATM    6  O2  UNL     1       7.028 -23.942 -18.606  1.00  0.00    -0.273 OA
BRANCH   6   7
HETATM    7  P1  UNL     1       8.385 -23.274 -18.330  1.00  0.00     0.422 P 
HETATM    8  O3  UNL     1       9.710 -22.582 -17.974  1.00  0.00    -0.617 OA
HETATM    9  O4  UNL     1       9.066 -24.767 -18.201  1.00  0.00    -0.617 OA
HETATM   10  O5  UNL     1       8.374 -22.570 -19.821  1.00  0.00    -0.617 OA
ENDBRANCH   6   7
ENDBRANCH   5   6
ENDBRANCH   2   5
BRANCH   3  11
HETATM   11  O6  UNL     1       4.488 -22.945 -15.346  1.00  0.00    -0.287 OA
ATOM     12  H6  UNL     1       3.560 -23.025 -15.159  1.00  0.00     0.244 HD
ENDBRANCH   3  11
TORSDOF 4
ENDMDL
