MODEL 2
REMARK VINA RESULT: -5.690126937      1.538      1.948
REMARK  4 active torsions:
REMARK  status: ('A' for Active; 'I' for Inactive)
REMARK    1  A    between atoms: C1_2  and  C2_3 
REMARK       I    between atoms: C1_2  and  N1_9 
REMARK    2  A    between atoms: C2_3  and  O2_4 
REMARK    3  A    between atoms: O2_4  and  P1_5 
REMARK    4  A    between atoms: N1_9  and  O6_11 
ROOT
HETATM    1  O1  UNL     1       5.827 -24.894 -16.122  1.00  0.00    -0.269 OA
HETATM    2  C1  UNL     1       5.886 -23.820 -16.814  1.00  0.00     0.265 C 
HETATM    3  N1  UNL     1       4.841 -22.889 -16.637  1.00  0.00    -0.236 N 
ATOM      4  H1  UNL     1       4.841 -22.017 -17.166  1.00  0.00     0.197 HD
ENDROOT
BRANCH   2   5
HETATM    5  C2  UNL     1       7.019 -23.669 -17.709  1.00  0.00     0.287 C 
BRANCH   5   6
HETATM    6  O2  UNL     1       8.177 -23.303 -17.020  1.00  0.00    -0.273 OA
BRANCH   6   7
HETATM    7  P1  UNL     1       9.506 -23.649 -17.709  1.00  0.00     0.422 P 
HETATM    8  O3  UNL     1      10.873 -24.001 -18.317  1.00  0.00    -0.617 OA
HETATM    9  O4  UNL     1       8.879 -25.111 -18.130  1.00  0.00    -0.617 OA
HETATM   10  O5  UNL     1       9.312 -22.403 -18.772  1.00  0.00    -0.617 OA
ENDBRANCH   6   7
ENDBRANCH   5   6
ENDBRANCH   2   5
BRANCH   3  11
HETATM   11  O6  UNL     1       3.846 -23.150 -15.773  1.00  0.00    -0.287 OA
ATOM     12  H6  UNL     1       3.232 -22.466 -15.534  1.00  0.00     0.244 HD
ENDBRANCH   3  11
TORSDOF 4
ENDMDL
