MODEL 4
REMARK VINA RESULT: -5.663673320      1.429      2.140
REMARK  4 active torsions:
REMARK  status: ('A' for Active; 'I' for Inactive)
REMARK    1  A    between atoms: C1_2  and  C2_3 
REMARK       I    between atoms: C1_2  and  N1_9 
REMARK    2  A    between atoms: C2_3  and  O2_4 
REMARK    3  A    between atoms: O2_4  and  P1_5 
REMARK    4  A    between atoms: N1_9  and  O6_11 
ROOT
HETATM    1  O1  UNL     1       5.705 -25.002 -16.118  1.00  0.00    -0.269 OA
HETATM    2  C1  UNL     1       5.843 -23.910 -16.770  1.00  0.00     0.265 C 
HETATM    3  N1  UNL     1       4.857 -22.921 -16.575  1.00  0.00    -0.236 N 
ATOM      4  H1  UNL     1       4.921 -22.032 -17.072  1.00  0.00     0.197 HD
ENDROOT
BRANCH   2   5
HETATM    5  C2  UNL     1       6.999 -23.800 -17.643  1.00  0.00     0.287 C 
BRANCH   5   6
HETATM    6  O2  UNL     1       8.123 -23.336 -16.957  1.00  0.00    -0.273 OA
BRANCH   6   7
HETATM    7  P1  UNL     1       9.482 -23.658 -17.600  1.00  0.00     0.422 P 
HETATM    8  O3  UNL     1      10.809 -24.061 -18.262  1.00  0.00    -0.617 OA
HETATM    9  O4  UNL     1       9.121 -22.619 -18.825  1.00  0.00    -0.617 OA
HETATM   10  O5  UNL     1      10.276 -23.045 -16.291  1.00  0.00    -0.617 OA
ENDBRANCH   6   7
ENDBRANCH   5   6
ENDBRANCH   2   5
BRANCH   3  11
HETATM   11  O6  UNL     1       3.834 -23.147 -15.735  1.00  0.00    -0.287 OA
ATOM     12  H6  UNL     1       3.366 -22.417 -15.348  1.00  0.00     0.244 HD
ENDBRANCH   3  11
TORSDOF 4
ENDMDL
