MODEL 8
REMARK VINA RESULT: -5.366456370      3.591      5.171
REMARK  4 active torsions:
REMARK  status: ('A' for Active; 'I' for Inactive)
REMARK    1  A    between atoms: C1_2  and  C2_3 
REMARK       I    between atoms: C1_2  and  N1_9 
REMARK    2  A    between atoms: C2_3  and  O2_4 
REMARK    3  A    between atoms: O2_4  and  P1_5 
REMARK    4  A    between atoms: N1_9  and  O6_11 
ROOT
HETATM    1  O1  UNL     1      10.696 -20.680 -19.104  1.00  0.00    -0.269 OA
HETATM    2  C1  UNL     1      11.339 -21.787 -19.112  1.00  0.00     0.265 C 
HETATM    3  N1  UNL     1      12.511 -21.837 -19.894  1.00  0.00    -0.236 N 
ATOM      4  H1  UNL     1      13.060 -22.696 -19.935  1.00  0.00     0.197 HD
ENDROOT
BRANCH   2   5
HETATM    5  C2  UNL     1      10.797 -22.875 -18.318  1.00  0.00     0.287 C 
BRANCH   5   6
HETATM    6  O2  UNL     1       9.519 -22.580 -17.840  1.00  0.00    -0.273 OA
BRANCH   6   7
HETATM    7  P1  UNL     1       8.458 -23.675 -18.038  1.00  0.00     0.422 P 
HETATM    8  O3  UNL     1       7.357 -24.738 -18.163  1.00  0.00    -0.617 OA
HETATM    9  O4  UNL     1       7.915 -22.874 -19.369  1.00  0.00    -0.617 OA
HETATM   10  O5  UNL     1       9.633 -24.810 -18.260  1.00  0.00    -0.617 OA
ENDBRANCH   6   7
ENDBRANCH   5   6
ENDBRANCH   2   5
BRANCH   3  11
HETATM   11  O6  UNL     1      12.907 -20.755 -20.584  1.00  0.00    -0.287 OA
ATOM     12  H6  UNL     1      12.292 -20.298 -21.146  1.00  0.00     0.244 HD
ENDBRANCH   3  11
TORSDOF 4
ENDMDL
