MODEL 1
REMARK VINA RESULT: -12.840045862      0.000      0.000
REMARK  8 active torsions:
REMARK  status: ('A' for Active; 'I' for Inactive)
REMARK    1  A    between atoms: C9_11  and  C10_12 
REMARK    2  A    between atoms: C10_12  and  N2_13 
REMARK    3  A    between atoms: N2_13  and  C11_15 
REMARK    4  A    between atoms: N3_22  and  C18_23 
REMARK    5  A    between atoms: C18_23  and  C19_24 
REMARK    6  A    between atoms: C18_23  and  C22_29 
REMARK    7  A    between atoms: C19_24  and  C20_25 
REMARK    8  A    between atoms: C20_25  and  C21_26 
ROOT
HETATM    1  N2  UNL     1      16.170  15.735  34.542  1.00  0.00    -0.386 N 
ATOM      2  H2  UNL     1      15.626  15.332  35.306  1.00  0.00     0.160 HD
ENDROOT
BRANCH   1   3
HETATM    3  C10 UNL     1      17.457  15.173  34.253  1.00  0.00     0.158 C 
BRANCH   3   4
HETATM    4  C9  UNL     1      17.469  13.719  34.486  1.00  0.00    -0.040 A 
HETATM    5  C8  UNL     1      18.567  12.939  34.165  1.00  0.00     0.010 A 
HETATM    6  C7  UNL     1      18.528  11.586  34.409  1.00  0.00     0.013 A 
HETATM    7  C6  UNL     1      17.437  10.957  34.963  1.00  0.00    -0.025 A 
HETATM    8  C5  UNL     1      17.436   9.595  35.190  1.00  0.00     0.014 A 
HETATM    9  C25 UNL     1      16.324  11.749  35.287  1.00  0.00    -0.007 A 
HETATM   10  C4  UNL     1      16.316   9.037  35.744  1.00  0.00     0.031 A 
HETATM   11  C3  UNL     1      15.201   9.768  36.080  1.00  0.00     0.050 A 
HETATM   12  N1  UNL     1      14.123   9.170  36.619  1.00  0.00    -0.345 N 
HETATM   13  C26 UNL     1      15.189  11.158  35.852  1.00  0.00     0.070 A 
HETATM   14  C2  UNL     1      13.053   9.917  36.931  1.00  0.00     0.080 A 
ATOM     15  H1  UNL     1      14.119   8.164  36.788  1.00  0.00     0.167 HD
HETATM   16  C1  UNL     1      11.849   9.275  37.527  1.00  0.00     0.089 C 
HETATM   17  N4  UNL     1      13.016  11.229  36.727  1.00  0.00    -0.312 N 
HETATM   18  C27 UNL     1      14.087  11.893  36.179  1.00  0.00     0.260 A 
ATOM     19  H4  UNL     1      12.177  11.752  36.980  1.00  0.00     0.170 HD
HETATM   20  O6  UNL     1      14.012  13.115  36.006  1.00  0.00    -0.267 OA
HETATM   21  C24 UNL     1      16.340  13.098  35.055  1.00  0.00     0.022 A 
ENDBRANCH   3   4
ENDBRANCH   1   3
BRANCH   1  22
HETATM   22  C11 UNL     1      15.614  16.820  33.824  1.00  0.00     0.028 A 
HETATM   23  C12 UNL     1      14.254  17.098  33.881  1.00  0.00     0.030 A 
HETATM   24  C13 UNL     1      13.739  18.152  33.165  1.00  0.00     0.020 A 
HETATM   25  C14 UNL     1      14.549  18.955  32.378  1.00  0.00     0.040 A 
HETATM   26  C15 UNL     1      15.907  18.703  32.300  1.00  0.00    -0.022 A 
HETATM   27  C23 UNL     1      14.296  20.102  31.510  1.00  0.00     0.255 A 
HETATM   28  C16 UNL     1      16.381  17.641  33.030  1.00  0.00     0.039 A 
HETATM   29  C17 UNL     1      16.564  19.702  31.408  1.00  0.00     0.167 A 
HETATM   30  N3  UNL     1      15.488  20.532  30.918  1.00  0.00    -0.329 N 
HETATM   31  O5  UNL     1      13.159  20.621  31.329  1.00  0.00    -0.267 OA
BRANCH  30  32
HETATM   32  C18 UNL     1      15.705  21.621  29.957  1.00  0.00     0.189 C 
BRANCH  32  33
HETATM   33  C19 UNL     1      14.708  21.541  28.846  1.00  0.00     0.047 C 
BRANCH  33  34
HETATM   34  C20 UNL     1      15.387  21.729  27.520  1.00  0.00     0.116 C 
BRANCH  34  35
HETATM   35  C21 UNL     1      15.366  23.187  27.190  1.00  0.00     0.172 C 
HETATM   36  O1  UNL     1      16.405  23.874  27.401  1.00  0.00    -0.648 OA
HETATM   37  O2  UNL     1      14.245  23.829  26.658  1.00  0.00    -0.648 OA
ENDBRANCH  34  35
ENDBRANCH  33  34
ENDBRANCH  32  33
BRANCH  32  38
HETATM   38  C22 UNL     1      15.534  22.866  30.722  1.00  0.00     0.197 C 
HETATM   39  O3  UNL     1      14.499  23.561  30.611  1.00  0.00    -0.646 OA
HETATM   40  O4  UNL     1      16.504  23.312  31.589  1.00  0.00    -0.646 OA
ENDBRANCH  32  38
ENDBRANCH  30  32
ENDBRANCH   1  22
TORSDOF 8
ENDMDL
