MODEL 3
REMARK VINA RESULT: -12.631962029      1.717      2.455
REMARK  8 active torsions:
REMARK  status: ('A' for Active; 'I' for Inactive)
REMARK    1  A    between atoms: C9_11  and  C10_12 
REMARK    2  A    between atoms: C10_12  and  N2_13 
REMARK    3  A    between atoms: N2_13  and  C11_15 
REMARK    4  A    between atoms: N3_22  and  C18_23 
REMARK    5  A    between atoms: C18_23  and  C19_24 
REMARK    6  A    between atoms: C18_23  and  C22_29 
REMARK    7  A    between atoms: C19_24  and  C20_25 
REMARK    8  A    between atoms: C20_25  and  C21_26 
ROOT
HETATM    1  N2  UNL     1      18.042  14.984  32.381  1.00  0.00    -0.386 N 
ATOM      2  H2  UNL     1      17.642  14.374  31.667  1.00  0.00     0.160 HD
ENDROOT
BRANCH   1   3
HETATM    3  C10 UNL     1      18.775  14.382  33.456  1.00  0.00     0.158 C 
BRANCH   3   4
HETATM    4  C9  UNL     1      18.001  13.304  34.094  1.00  0.00    -0.040 A 
HETATM    5  C8  UNL     1      18.488  12.011  34.185  1.00  0.00     0.010 A 
HETATM    6  C7  UNL     1      17.724  11.044  34.796  1.00  0.00     0.013 A 
HETATM    7  C6  UNL     1      16.481  11.297  35.327  1.00  0.00    -0.025 A 
HETATM    8  C5  UNL     1      15.744  10.298  35.931  1.00  0.00     0.014 A 
HETATM    9  C25 UNL     1      15.988  12.608  35.233  1.00  0.00    -0.007 A 
HETATM   10  C4  UNL     1      14.516  10.622  36.438  1.00  0.00     0.031 A 
HETATM   11  C3  UNL     1      13.987  11.890  36.371  1.00  0.00     0.050 A 
HETATM   12  N1  UNL     1      12.771  12.156  36.883  1.00  0.00    -0.345 N 
HETATM   13  C26 UNL     1      14.728  12.918  35.758  1.00  0.00     0.070 A 
HETATM   14  C2  UNL     1      12.289  13.405  36.797  1.00  0.00     0.080 A 
ATOM     15  H1  UNL     1      12.224  11.419  37.330  1.00  0.00     0.167 HD
HETATM   16  C1  UNL     1      10.946  13.721  37.355  1.00  0.00     0.089 C 
HETATM   17  N4  UNL     1      12.967  14.393  36.224  1.00  0.00    -0.312 N 
HETATM   18  C27 UNL     1      14.213  14.180  35.685  1.00  0.00     0.260 A 
ATOM     19  H4  UNL     1      12.556  15.326  36.183  1.00  0.00     0.170 HD
HETATM   20  O6  UNL     1      14.811  15.127  35.161  1.00  0.00    -0.267 OA
HETATM   21  C24 UNL     1      16.730  13.588  34.631  1.00  0.00     0.022 A 
ENDBRANCH   3   4
ENDBRANCH   1   3
BRANCH   1  22
HETATM   22  C11 UNL     1      17.845  16.379  32.258  1.00  0.00     0.028 A 
HETATM   23  C12 UNL     1      18.504  17.274  33.092  1.00  0.00     0.030 A 
HETATM   24  C13 UNL     1      18.286  18.624  32.957  1.00  0.00     0.020 A 
HETATM   25  C14 UNL     1      17.416  19.124  32.002  1.00  0.00     0.040 A 
HETATM   26  C15 UNL     1      16.745  18.258  31.156  1.00  0.00    -0.022 A 
HETATM   27  C23 UNL     1      16.975  20.469  31.642  1.00  0.00     0.255 A 
HETATM   28  C16 UNL     1      16.991  16.918  31.324  1.00  0.00     0.039 A 
HETATM   29  C17 UNL     1      15.883  19.027  30.213  1.00  0.00     0.167 A 
HETATM   30  N3  UNL     1      16.049  20.410  30.596  1.00  0.00    -0.329 N 
HETATM   31  O5  UNL     1      17.380  21.525  32.204  1.00  0.00    -0.267 OA
BRANCH  30  32
HETATM   32  C18 UNL     1      15.323  21.505  29.939  1.00  0.00     0.189 C 
BRANCH  32  33
HETATM   33  C19 UNL     1      14.666  21.017  28.688  1.00  0.00     0.047 C 
BRANCH  33  34
HETATM   34  C20 UNL     1      15.439  21.466  27.481  1.00  0.00     0.116 C 
BRANCH  34  35
HETATM   35  C21 UNL     1      15.313  22.952  27.376  1.00  0.00     0.172 C 
HETATM   36  O1  UNL     1      14.169  23.455  27.197  1.00  0.00    -0.648 OA
HETATM   37  O2  UNL     1      16.410  23.814  27.466  1.00  0.00    -0.648 OA
ENDBRANCH  34  35
ENDBRANCH  33  34
ENDBRANCH  32  33
BRANCH  32  38
HETATM   38  C22 UNL     1      14.319  21.957  30.913  1.00  0.00     0.197 C 
HETATM   39  O3  UNL     1      14.446  23.044  31.521  1.00  0.00    -0.646 OA
HETATM   40  O4  UNL     1      13.202  21.205  31.191  1.00  0.00    -0.646 OA
ENDBRANCH  32  38
ENDBRANCH  30  32
ENDBRANCH   1  22
TORSDOF 8
ENDMDL
