MODEL 2
REMARK VINA RESULT: -12.814360270      0.999      1.199
REMARK  8 active torsions:
REMARK  status: ('A' for Active; 'I' for Inactive)
REMARK    1  A    between atoms: C9_11  and  C10_12 
REMARK    2  A    between atoms: C10_12  and  N2_13 
REMARK    3  A    between atoms: N2_13  and  C11_15 
REMARK    4  A    between atoms: N3_22  and  C18_23 
REMARK    5  A    between atoms: C18_23  and  C19_24 
REMARK    6  A    between atoms: C18_23  and  C22_29 
REMARK    7  A    between atoms: C19_24  and  C20_25 
REMARK    8  A    between atoms: C20_25  and  C21_26 
ROOT
HETATM    1  N2  UNL     1      15.124  15.593  34.024  1.00  0.00    -0.386 N 
ATOM      2  H2  UNL     1      14.559  14.760  33.857  1.00  0.00     0.160 HD
ENDROOT
BRANCH   1   3
HETATM    3  C10 UNL     1      16.252  15.484  34.903  1.00  0.00     0.158 C 
BRANCH   3   4
HETATM    4  C9  UNL     1      16.893  14.164  34.788  1.00  0.00    -0.040 A 
HETATM    5  C8  UNL     1      18.166  14.014  34.265  1.00  0.00     0.010 A 
HETATM    6  C7  UNL     1      18.720  12.757  34.185  1.00  0.00     0.013 A 
HETATM    7  C6  UNL     1      18.064  11.623  34.603  1.00  0.00    -0.025 A 
HETATM    8  C5  UNL     1      18.653  10.379  34.504  1.00  0.00     0.014 A 
HETATM    9  C25 UNL     1      16.773  11.775  35.132  1.00  0.00    -0.007 A 
HETATM   10  C4  UNL     1      17.942   9.294  34.939  1.00  0.00     0.031 A 
HETATM   11  C3  UNL     1      16.675   9.390  35.465  1.00  0.00     0.050 A 
HETATM   12  N1  UNL     1      16.016   8.290  35.876  1.00  0.00    -0.345 N 
HETATM   13  C26 UNL     1      16.062  10.653  35.571  1.00  0.00     0.070 A 
HETATM   14  C2  UNL     1      14.781   8.424  36.381  1.00  0.00     0.080 A 
ATOM     15  H1  UNL     1      16.449   7.369  35.804  1.00  0.00     0.167 HD
HETATM   16  C1  UNL     1      14.033   7.222  36.840  1.00  0.00     0.089 C 
HETATM   17  N4  UNL     1      14.179   9.604  36.492  1.00  0.00    -0.312 N 
HETATM   18  C27 UNL     1      14.804  10.760  36.089  1.00  0.00     0.260 A 
ATOM     19  H4  UNL     1      13.238   9.652  36.882  1.00  0.00     0.170 HD
HETATM   20  O6  UNL     1      14.210  11.837  36.210  1.00  0.00    -0.267 OA
HETATM   21  C24 UNL     1      16.201  13.016  35.223  1.00  0.00     0.022 A 
ENDBRANCH   3   4
ENDBRANCH   1   3
BRANCH   1  22
HETATM   22  C11 UNL     1      14.755  16.795  33.376  1.00  0.00     0.028 A 
HETATM   23  C12 UNL     1      13.455  17.281  33.450  1.00  0.00     0.030 A 
HETATM   24  C13 UNL     1      13.121  18.447  32.803  1.00  0.00     0.020 A 
HETATM   25  C14 UNL     1      14.056  19.160  32.070  1.00  0.00     0.040 A 
HETATM   26  C15 UNL     1      15.359  18.702  31.978  1.00  0.00    -0.022 A 
HETATM   27  C23 UNL     1      13.997  20.385  31.278  1.00  0.00     0.255 A 
HETATM   28  C16 UNL     1      15.651  17.534  32.639  1.00  0.00     0.039 A 
HETATM   29  C17 UNL     1      16.175  19.639  31.153  1.00  0.00     0.167 A 
HETATM   30  N3  UNL     1      15.249  20.658  30.717  1.00  0.00    -0.329 N 
HETATM   31  O5  UNL     1      12.958  21.088  31.130  1.00  0.00    -0.267 OA
BRANCH  30  32
HETATM   32  C18 UNL     1      15.645  21.758  29.829  1.00  0.00     0.189 C 
BRANCH  32  33
HETATM   33  C19 UNL     1      14.722  21.839  28.656  1.00  0.00     0.047 C 
BRANCH  33  34
HETATM   34  C20 UNL     1      15.484  21.651  27.376  1.00  0.00     0.116 C 
BRANCH  34  35
HETATM   35  C21 UNL     1      15.506  22.958  26.651  1.00  0.00     0.172 C 
HETATM   36  O1  UNL     1      16.092  23.941  27.186  1.00  0.00    -0.648 OA
HETATM   37  O2  UNL     1      14.904  23.144  25.404  1.00  0.00    -0.648 OA
ENDBRANCH  34  35
ENDBRANCH  33  34
ENDBRANCH  32  33
BRANCH  32  38
HETATM   38  C22 UNL     1      15.560  22.979  30.645  1.00  0.00     0.197 C 
HETATM   39  O3  UNL     1      14.612  23.786  30.512  1.00  0.00    -0.646 OA
HETATM   40  O4  UNL     1      16.517  23.279  31.586  1.00  0.00    -0.646 OA
ENDBRANCH  32  38
ENDBRANCH  30  32
ENDBRANCH   1  22
TORSDOF 8
ENDMDL
