MODEL 3
REMARK VINA RESULT: -7.603294291      3.568      5.114
REMARK  5 active torsions:
REMARK  status: ('A' for Active; 'I' for Inactive)
REMARK    1  A    between atoms: N1_5  and  C4_6 
REMARK    2  A    between atoms: C6_8  and  O2_9 
REMARK    3  A    between atoms: C7_11  and  C8_12 
REMARK    4  A    between atoms: C8_12  and  O3_13 
REMARK    5  A    between atoms: O3_13  and  P1_14 
ROOT
HETATM    1  C4  UNL     1      17.649  50.382 -56.591  1.00  0.00     0.235 C 
HETATM    2  C5  UNL     1      16.271  50.799 -56.137  1.00  0.00     0.088 C 
HETATM    3  C6  UNL     1      15.449  50.182 -57.253  1.00  0.00     0.153 C 
HETATM    4  C7  UNL     1      16.381  50.405 -58.432  1.00  0.00     0.177 C 
HETATM    5  O7  UNL     1      17.634  50.632 -57.937  1.00  0.00    -0.356 OA
ENDROOT
BRANCH   1   6
HETATM    6  N1  UNL     1      18.706  51.028 -55.879  1.00  0.00    -0.282 N 
HETATM    7  C3  UNL     1      18.529  52.294 -55.453  1.00  0.00     0.104 A 
HETATM    8  C2  UNL     1      19.482  53.001 -54.762  1.00  0.00     0.092 A 
HETATM    9  C1  UNL     1      20.685  52.354 -54.502  1.00  0.00     0.250 A 
HETATM   10  O1  UNL     1      21.604  52.931 -53.876  1.00  0.00    -0.268 OA
HETATM   11  N2  UNL     1      20.859  51.084 -54.930  1.00  0.00    -0.275 N 
HETATM   12  C9  UNL     1      19.887  50.452 -55.599  1.00  0.00     0.331 A 
ATOM     13  H2  UNL     1      21.738  50.603 -54.743  1.00  0.00     0.173 HD
HETATM   14  O8  UNL     1      20.026  49.253 -56.014  1.00  0.00    -0.246 OA
ENDBRANCH   1   6
BRANCH   3  15
HETATM   15  O2  UNL     1      15.308  48.829 -56.952  1.00  0.00    -0.393 OA
ATOM     16  H2  UNL     1      15.569  48.345 -57.726  1.00  0.00     0.210 HD
ENDBRANCH   3  15
BRANCH   4  17
HETATM   17  C8  UNL     1      15.908  51.625 -59.156  1.00  0.00     0.217 C 
BRANCH  17  18
HETATM   18  O3  UNL     1      15.499  51.390 -60.443  1.00  0.00    -0.280 OA
BRANCH  18  19
HETATM   19  P1  UNL     1      16.087  52.234 -61.652  1.00  0.00     0.422 P 
HETATM   20  O4  UNL     1      14.746  52.628 -62.284  1.00  0.00    -0.617 OA
HETATM   21  O5  UNL     1      16.567  51.527 -63.076  1.00  0.00    -0.617 OA
HETATM   22  O6  UNL     1      16.421  53.910 -61.490  1.00  0.00    -0.617 OA
ENDBRANCH  18  19
ENDBRANCH  17  18
ENDBRANCH   4  17
TORSDOF 5
ENDMDL
