MODEL 2
REMARK VINA RESULT: -7.622674325      3.114      4.609
REMARK  5 active torsions:
REMARK  status: ('A' for Active; 'I' for Inactive)
REMARK    1  A    between atoms: N1_5  and  C4_6 
REMARK    2  A    between atoms: C6_8  and  O2_9 
REMARK    3  A    between atoms: C7_11  and  C8_12 
REMARK    4  A    between atoms: C8_12  and  O3_13 
REMARK    5  A    between atoms: O3_13  and  P1_14 
ROOT
HETATM    1  C4  UNL     1      17.898  49.262 -55.734  1.00  0.00     0.235 C 
HETATM    2  C5  UNL     1      16.494  49.451 -55.213  1.00  0.00     0.088 C 
HETATM    3  C6  UNL     1      15.721  48.831 -56.363  1.00  0.00     0.153 C 
HETATM    4  C7  UNL     1      16.575  49.279 -57.536  1.00  0.00     0.177 C 
HETATM    5  O7  UNL     1      17.805  49.626 -57.051  1.00  0.00    -0.356 OA
ENDROOT
BRANCH   1   6
HETATM    6  N1  UNL     1      18.886  49.978 -54.990  1.00  0.00    -0.282 N 
HETATM    7  C3  UNL     1      18.839  51.324 -54.966  1.00  0.00     0.104 A 
HETATM    8  C2  UNL     1      19.741  52.102 -54.282  1.00  0.00     0.092 A 
HETATM    9  C1  UNL     1      20.746  51.440 -53.585  1.00  0.00     0.250 A 
HETATM   10  O1  UNL     1      21.606  52.079 -52.935  1.00  0.00    -0.268 OA
HETATM   11  N2  UNL     1      20.789  50.090 -53.610  1.00  0.00    -0.275 N 
HETATM   12  C9  UNL     1      19.878  49.391 -54.298  1.00  0.00     0.331 A 
ATOM     13  H2  UNL     1      21.523  49.598 -53.101  1.00  0.00     0.173 HD
HETATM   14  O8  UNL     1      19.897  48.116 -54.337  1.00  0.00    -0.246 OA
ENDBRANCH   1   6
BRANCH   3  15
HETATM   15  O2  UNL     1      15.768  47.451 -56.184  1.00  0.00    -0.393 OA
ATOM     16  H2  UNL     1      14.955  47.199 -55.762  1.00  0.00     0.210 HD
ENDBRANCH   3  15
BRANCH   4  17
HETATM   17  C8  UNL     1      15.923  50.485 -58.135  1.00  0.00     0.217 C 
BRANCH  17  18
HETATM   18  O3  UNL     1      16.746  51.220 -58.948  1.00  0.00    -0.280 OA
BRANCH  18  19
HETATM   19  P1  UNL     1      16.187  51.903 -60.269  1.00  0.00     0.422 P 
HETATM   20  O4  UNL     1      14.931  51.036 -60.418  1.00  0.00    -0.617 OA
HETATM   21  O5  UNL     1      16.697  51.452 -61.783  1.00  0.00    -0.617 OA
HETATM   22  O6  UNL     1      15.149  53.268 -60.195  1.00  0.00    -0.617 OA
ENDBRANCH  18  19
ENDBRANCH  17  18
ENDBRANCH   4  17
TORSDOF 5
ENDMDL
