MODEL 1
REMARK VINA RESULT: -7.775064775      0.000      0.000
REMARK  5 active torsions:
REMARK  status: ('A' for Active; 'I' for Inactive)
REMARK    1  A    between atoms: N1_5  and  C4_6 
REMARK    2  A    between atoms: C6_8  and  O2_9 
REMARK    3  A    between atoms: C7_11  and  C8_12 
REMARK    4  A    between atoms: C8_12  and  O3_13 
REMARK    5  A    between atoms: O3_13  and  P1_14 
ROOT
HETATM    1  C4  UNL     1      15.815  49.083 -54.797  1.00  0.00     0.235 C 
HETATM    2  C5  UNL     1      15.254  48.653 -56.130  1.00  0.00     0.088 C 
HETATM    3  C6  UNL     1      16.477  48.886 -56.998  1.00  0.00     0.153 C 
HETATM    4  C7  UNL     1      17.039  50.136 -56.343  1.00  0.00     0.177 C 
HETATM    5  O7  UNL     1      16.500  50.232 -55.091  1.00  0.00    -0.356 OA
ENDROOT
BRANCH   1   6
HETATM    6  N1  UNL     1      14.825  49.228 -53.778  1.00  0.00    -0.282 N 
HETATM    7  C3  UNL     1      14.671  50.426 -53.180  1.00  0.00     0.104 A 
HETATM    8  C2  UNL     1      13.749  50.667 -52.192  1.00  0.00     0.092 A 
HETATM    9  C1  UNL     1      12.943  49.602 -51.805  1.00  0.00     0.250 A 
HETATM   10  O1  UNL     1      12.077  49.742 -50.911  1.00  0.00    -0.268 OA
HETATM   11  N2  UNL     1      13.099  48.402 -52.407  1.00  0.00    -0.275 N 
HETATM   12  C9  UNL     1      14.018  48.235 -53.365  1.00  0.00     0.331 A 
ATOM     13  H2  UNL     1      12.511  47.617 -52.129  1.00  0.00     0.173 HD
HETATM   14  O8  UNL     1      14.185  47.113 -53.949  1.00  0.00    -0.246 OA
ENDBRANCH   1   6
BRANCH   3  15
HETATM   15  O2  UNL     1      17.314  47.787 -56.821  1.00  0.00    -0.393 OA
ATOM     16  H2  UNL     1      17.848  47.718 -57.603  1.00  0.00     0.210 HD
ENDBRANCH   3  15
BRANCH   4  17
HETATM   17  C8  UNL     1      16.599  51.310 -57.160  1.00  0.00     0.217 C 
BRANCH  17  18
HETATM   18  O3  UNL     1      16.902  51.209 -58.494  1.00  0.00    -0.280 OA
BRANCH  18  19
HETATM   19  P1  UNL     1      15.907  51.765 -59.599  1.00  0.00     0.422 P 
HETATM   20  O4  UNL     1      16.786  51.462 -60.820  1.00  0.00    -0.617 OA
HETATM   21  O5  UNL     1      15.855  53.371 -60.017  1.00  0.00    -0.617 OA
HETATM   22  O6  UNL     1      14.707  50.761 -60.304  1.00  0.00    -0.617 OA
ENDBRANCH  18  19
ENDBRANCH  17  18
ENDBRANCH   4  17
TORSDOF 5
ENDMDL
