MODEL 9
REMARK VINA RESULT: -7.281824669      3.820      6.533
REMARK  5 active torsions:
REMARK  status: ('A' for Active; 'I' for Inactive)
REMARK    1  A    between atoms: N1_5  and  C4_6 
REMARK    2  A    between atoms: C6_8  and  O2_9 
REMARK    3  A    between atoms: C7_11  and  C8_12 
REMARK    4  A    between atoms: C8_12  and  O3_13 
REMARK    5  A    between atoms: O3_13  and  P1_14 
ROOT
HETATM    1  C4  UNL     1      13.086  50.328 -51.415  1.00  0.00     0.235 C 
HETATM    2  C5  UNL     1      14.157  50.757 -50.440  1.00  0.00     0.088 C 
HETATM    3  C6  UNL     1      13.343  51.718 -49.592  1.00  0.00     0.153 C 
HETATM    4  C7  UNL     1      12.453  52.334 -50.657  1.00  0.00     0.177 C 
HETATM    5  O7  UNL     1      12.458  51.501 -51.740  1.00  0.00    -0.356 OA
ENDROOT
BRANCH   1   6
HETATM    6  N1  UNL     1      13.590  49.595 -52.533  1.00  0.00    -0.282 N 
HETATM    7  C3  UNL     1      14.912  49.627 -52.793  1.00  0.00     0.104 A 
HETATM    8  C2  UNL     1      15.494  48.958 -53.842  1.00  0.00     0.092 A 
HETATM    9  C1  UNL     1      14.652  48.216 -54.664  1.00  0.00     0.250 A 
HETATM   10  O1  UNL     1      15.107  47.578 -55.641  1.00  0.00    -0.268 OA
HETATM   11  N2  UNL     1      13.328  48.187 -54.400  1.00  0.00    -0.275 N 
HETATM   12  C9  UNL     1      12.825  48.862 -53.359  1.00  0.00     0.331 A 
ATOM     13  H2  UNL     1      12.705  47.645 -54.998  1.00  0.00     0.173 HD
HETATM   14  O8  UNL     1      11.578  48.850 -53.089  1.00  0.00    -0.246 OA
ENDBRANCH   1   6
BRANCH   3  15
HETATM   15  O2  UNL     1      12.615  50.944 -48.691  1.00  0.00    -0.393 OA
ATOM     16  H2  UNL     1      12.227  51.543 -48.064  1.00  0.00     0.210 HD
ENDBRANCH   3  15
BRANCH   4  17
HETATM   17  C8  UNL     1      13.056  53.648 -51.044  1.00  0.00     0.217 C 
BRANCH  17  18
HETATM   18  O3  UNL     1      12.166  54.531 -51.597  1.00  0.00    -0.280 OA
BRANCH  18  19
HETATM   19  P1  UNL     1      12.519  55.317 -52.931  1.00  0.00     0.422 P 
HETATM   20  O4  UNL     1      11.268  56.202 -52.971  1.00  0.00    -0.617 OA
HETATM   21  O5  UNL     1      12.161  54.715 -54.436  1.00  0.00    -0.617 OA
HETATM   22  O6  UNL     1      13.451  56.758 -52.895  1.00  0.00    -0.617 OA
ENDBRANCH  18  19
ENDBRANCH  17  18
ENDBRANCH   4  17
TORSDOF 5
ENDMDL
