MODEL 11
REMARK VINA RESULT: -6.369521532      2.735      4.575
REMARK  4 active torsions:
REMARK  status: ('A' for Active; 'I' for Inactive)
REMARK    1  A    between atoms: C2_2  and  C4_4 
REMARK    2  A    between atoms: C6_9  and  C7_10 
REMARK    3  A    between atoms: C8_13  and  C9_14 
REMARK    4  A    between atoms: C9_14  and  C10_15 
ROOT
HETATM    1  C4  UNL     1       2.686   1.655  28.043  1.00  0.00     0.046 C 
HETATM    2  C5  UNL     1       3.579   2.290  27.028  1.00  0.00     0.242 C 
HETATM    3  N1  UNL     1       2.961   3.488  26.553  1.00  0.00    -0.060 N 
ATOM      4  H11 UNL     1       2.896   3.527  25.536  1.00  0.00     0.278 HD
ATOM      5  H12 UNL     1       3.544   4.315  26.680  1.00  0.00     0.278 HD
HETATM    6  C6  UNL     1       1.694   3.594  27.197  1.00  0.00     0.291 C 
HETATM    7  C8  UNL     1       1.331   2.164  27.549  1.00  0.00     0.046 C 
ENDROOT
BRANCH   7   8
HETATM    8  C9  UNL     1       0.906   1.464  26.301  1.00  0.00     0.121 C 
BRANCH   8   9
HETATM    9  C10 UNL     1      -0.355   0.716  26.521  1.00  0.00     0.172 C 
HETATM   10  O3  UNL     1      -0.855   0.720  27.670  1.00  0.00    -0.648 OA
HETATM   11  O4  UNL     1      -0.992   0.022  25.510  1.00  0.00    -0.648 OA
ENDBRANCH   8   9
ENDBRANCH   7   8
BRANCH   1  12
HETATM   12  C2  UNL     1       2.773   0.201  28.152  1.00  0.00    -0.087 C 
HETATM   13  C1  UNL     1       2.133  -0.468  29.074  1.00  0.00     0.014 C 
HETATM   14  C3  UNL     1       3.633  -0.567  27.186  1.00  0.00     0.043 C 
ENDBRANCH   1  12
BRANCH   6  15
HETATM   15  C7  UNL     1       1.827   4.437  28.407  1.00  0.00     0.205 C 
HETATM   16  O1  UNL     1       0.898   5.207  28.776  1.00  0.00    -0.646 OA
HETATM   17  O2  UNL     1       2.980   4.383  29.142  1.00  0.00    -0.646 OA
ENDBRANCH   6  15
TORSDOF 4
ENDMDL
