MODEL 1
REMARK VINA RESULT: -7.941789304      0.000      0.000
REMARK  4 active torsions:
REMARK  status: ('A' for Active; 'I' for Inactive)
REMARK    1  A    between atoms: C2_2  and  C4_4 
REMARK    2  A    between atoms: C6_9  and  C7_10 
REMARK    3  A    between atoms: C8_13  and  C9_14 
REMARK    4  A    between atoms: C9_14  and  C10_15 
ROOT
HETATM    1  C4  UNL     1       1.562  -0.121  26.732  1.00  0.00     0.046 C 
HETATM    2  C5  UNL     1       1.199  -0.038  25.286  1.00  0.00     0.242 C 
HETATM    3  N1  UNL     1       2.326   0.447  24.552  1.00  0.00    -0.060 N 
ATOM      4  H11 UNL     1       2.103   1.249  23.963  1.00  0.00     0.278 HD
ATOM      5  H12 UNL     1       2.620  -0.186  23.808  1.00  0.00     0.278 HD
HETATM    6  C6  UNL     1       3.359   0.717  25.495  1.00  0.00     0.291 C 
HETATM    7  C8  UNL     1       2.622   0.979  26.795  1.00  0.00     0.046 C 
ENDROOT
BRANCH   7   8
HETATM    8  C9  UNL     1       2.005   2.338  26.721  1.00  0.00     0.121 C 
BRANCH   8   9
HETATM    9  C10 UNL     1       2.758   3.302  27.558  1.00  0.00     0.172 C 
HETATM   10  O3  UNL     1       3.946   3.033  27.854  1.00  0.00    -0.648 OA
HETATM   11  O4  UNL     1       2.199   4.480  28.017  1.00  0.00    -0.648 OA
ENDBRANCH   8   9
ENDBRANCH   7   8
BRANCH   1  12
HETATM   12  C2  UNL     1       0.465   0.053  27.679  1.00  0.00    -0.087 C 
HETATM   13  C1  UNL     1       0.661   0.123  28.969  1.00  0.00     0.014 C 
HETATM   14  C3  UNL     1      -0.948   0.146  27.171  1.00  0.00     0.043 C 
ENDBRANCH   1  12
BRANCH   6  15
HETATM   15  C7  UNL     1       4.248  -0.462  25.601  1.00  0.00     0.205 C 
HETATM   16  O1  UNL     1       4.841  -0.742  26.680  1.00  0.00    -0.646 OA
HETATM   17  O2  UNL     1       4.433  -1.267  24.511  1.00  0.00    -0.646 OA
ENDBRANCH   6  15
TORSDOF 4
ENDMDL
