MODEL 10
REMARK VINA RESULT: -6.454282769      0.927      1.666
REMARK  4 active torsions:
REMARK  status: ('A' for Active; 'I' for Inactive)
REMARK    1  A    between atoms: C2_2  and  C4_4 
REMARK    2  A    between atoms: C6_9  and  C7_10 
REMARK    3  A    between atoms: C8_13  and  C9_14 
REMARK    4  A    between atoms: C9_14  and  C10_15 
ROOT
HETATM    1  C4  UNL     1       1.038  -0.027  26.346  1.00  0.00     0.046 C 
HETATM    2  C5  UNL     1       1.377   0.154  24.903  1.00  0.00     0.242 C 
HETATM    3  N1  UNL     1       2.723   0.624  24.798  1.00  0.00    -0.060 N 
ATOM      4  H11 UNL     1       2.808   1.467  24.232  1.00  0.00     0.278 HD
ATOM      5  H12 UNL     1       3.313   0.020  24.225  1.00  0.00     0.278 HD
HETATM    6  C6  UNL     1       3.216   0.790  26.124  1.00  0.00     0.291 C 
HETATM    7  C8  UNL     1       1.972   1.015  26.962  1.00  0.00     0.046 C 
ENDROOT
BRANCH   7   8
HETATM    8  C9  UNL     1       1.482   2.404  26.714  1.00  0.00     0.121 C 
BRANCH   8   9
HETATM    9  C10 UNL     1       2.263   3.386  27.503  1.00  0.00     0.172 C 
HETATM   10  O3  UNL     1       2.192   4.596  27.185  1.00  0.00    -0.648 OA
HETATM   11  O4  UNL     1       3.059   3.014  28.570  1.00  0.00    -0.648 OA
ENDBRANCH   8   9
ENDBRANCH   7   8
BRANCH   1  12
HETATM   12  C2  UNL     1      -0.367   0.148  26.701  1.00  0.00    -0.087 C 
HETATM   13  C1  UNL     1      -1.291   0.371  25.804  1.00  0.00     0.014 C 
HETATM   14  C3  UNL     1      -0.783   0.084  28.145  1.00  0.00     0.043 C 
ENDBRANCH   1  12
BRANCH   6  15
HETATM   15  C7  UNL     1       3.937  -0.435  26.537  1.00  0.00     0.205 C 
HETATM   16  O1  UNL     1       4.632  -1.096  25.717  1.00  0.00    -0.646 OA
HETATM   17  O2  UNL     1       3.851  -0.863  27.834  1.00  0.00    -0.646 OA
ENDBRANCH   6  15
TORSDOF 4
ENDMDL
