MODEL 2
REMARK VINA RESULT: -7.889804594      0.132      1.213
REMARK  4 active torsions:
REMARK  status: ('A' for Active; 'I' for Inactive)
REMARK    1  A    between atoms: C2_2  and  C4_4 
REMARK    2  A    between atoms: C6_9  and  C7_10 
REMARK    3  A    between atoms: C8_13  and  C9_14 
REMARK    4  A    between atoms: C9_14  and  C10_15 
ROOT
HETATM    1  C4  UNL     1       1.482  -0.153  26.645  1.00  0.00     0.046 C 
HETATM    2  C5  UNL     1       1.188  -0.059  25.184  1.00  0.00     0.242 C 
HETATM    3  N1  UNL     1       2.347   0.435  24.508  1.00  0.00    -0.060 N 
ATOM      4  H11 UNL     1       2.150   1.241  23.916  1.00  0.00     0.278 HD
ATOM      5  H12 UNL     1       2.678  -0.191  23.774  1.00  0.00     0.278 HD
HETATM    6  C6  UNL     1       3.333   0.701  25.501  1.00  0.00     0.291 C 
HETATM    7  C8  UNL     1       2.534   0.950  26.766  1.00  0.00     0.046 C 
ENDROOT
BRANCH   7   8
HETATM    8  C9  UNL     1       1.918   2.308  26.674  1.00  0.00     0.121 C 
BRANCH   8   9
HETATM    9  C10 UNL     1       2.715   3.300  27.434  1.00  0.00     0.172 C 
HETATM   10  O3  UNL     1       2.194   4.410  27.692  1.00  0.00    -0.648 OA
HETATM   11  O4  UNL     1       4.003   3.043  27.864  1.00  0.00    -0.648 OA
ENDBRANCH   8   9
ENDBRANCH   7   8
BRANCH   1  12
HETATM   12  C2  UNL     1       0.341   0.011  27.540  1.00  0.00    -0.087 C 
HETATM   13  C1  UNL     1      -0.879   0.156  27.096  1.00  0.00     0.014 C 
HETATM   14  C3  UNL     1       0.560   0.029  29.028  1.00  0.00     0.043 C 
ENDBRANCH   1  12
BRANCH   6  15
HETATM   15  C7  UNL     1       4.220  -0.477  25.640  1.00  0.00     0.205 C 
HETATM   16  O1  UNL     1       4.800  -0.736  26.731  1.00  0.00    -0.646 OA
HETATM   17  O2  UNL     1       4.418  -1.302  24.567  1.00  0.00    -0.646 OA
ENDBRANCH   6  15
TORSDOF 4
ENDMDL
