MODEL 1
REMARK VINA RESULT: -7.852242516      0.000      0.000
REMARK  3 active torsions:
REMARK  status: ('A' for Active; 'I' for Inactive)
REMARK    1  A    between atoms: N1_1  and  S1_4 
REMARK    2  A    between atoms: S1_4  and  O3_7 
REMARK    3  A    between atoms: O3_7  and  C1_8 
ROOT
HETATM    1  C1  UNL     1      21.495  28.262  18.956  1.00  0.00     0.093 A 
HETATM    2  C2  UNL     1      22.687  28.377  19.630  1.00  0.00     0.039 A 
HETATM    3  C3  UNL     1      23.052  29.642  20.106  1.00  0.00     0.018 A 
HETATM    4  C4  UNL     1      22.231  30.749  19.903  1.00  0.00     0.009 A 
HETATM    5  C5  UNL     1      22.587  32.034  20.376  1.00  0.00    -0.014 A 
HETATM    6  C6  UNL     1      21.670  33.018  20.083  1.00  0.00     0.038 A 
HETATM    7  C7  UNL     1      20.526  32.832  19.417  1.00  0.00     0.296 A 
HETATM    8  O4  UNL     1      19.762  33.838  19.215  1.00  0.00    -0.259 OA
HETATM    9  O5  UNL     1      20.230  31.637  19.000  1.00  0.00    -0.274 OA
HETATM   10  C8  UNL     1      21.041  30.615  19.223  1.00  0.00     0.093 A 
HETATM   11  C9  UNL     1      20.684  29.350  18.751  1.00  0.00     0.076 A 
HETATM   12  C10 UNL     1      21.876  34.509  20.449  1.00  0.00     0.125 C 
HETATM   13  C11 UNL     1      23.084  34.562  21.182  1.00  0.00    -0.178 C 
HETATM   14  C12 UNL     1      24.288  34.345  21.844  1.00  0.00     0.084 C 
HETATM   15  C13 UNL     1      24.421  32.824  22.092  1.00  0.00     0.039 C 
HETATM   16  C14 UNL     1      23.848  31.915  21.086  1.00  0.00    -0.013 C 
ENDROOT
BRANCH   1  17
HETATM   17  O3  UNL     1      21.070  27.017  18.452  1.00  0.00    -0.217 OA
BRANCH  17  18
HETATM   18  S1  UNL     1      20.219  25.994  19.486  1.00  0.00     0.360 S 
HETATM   19  O1  UNL     1      20.818  25.988  20.866  1.00  0.00    -0.176 OA
HETATM   20  O2  UNL     1      20.245  24.607  18.880  1.00  0.00    -0.176 OA
BRANCH  18  21
HETATM   21  N1  UNL     1      18.562  26.476  19.652  1.00  0.00    -0.305 N 
ATOM     22  H12 UNL     1      18.164  26.974  20.449  1.00  0.00     0.171 HD
ATOM     23  H11 UNL     1      18.075  26.169  18.810  1.00  0.00     0.171 HD
ENDBRANCH  18  21
ENDBRANCH  17  18
ENDBRANCH   1  17
TORSDOF 3
ENDMDL
