MODEL 4
REMARK VINA RESULT: -7.595479475      4.285      6.880
REMARK  3 active torsions:
REMARK  status: ('A' for Active; 'I' for Inactive)
REMARK    1  A    between atoms: N1_1  and  S1_4 
REMARK    2  A    between atoms: S1_4  and  O3_7 
REMARK    3  A    between atoms: O3_7  and  C1_8 
ROOT
HETATM    1  C1  UNL     1      19.970  33.941  20.198  1.00  0.00     0.093 A 
HETATM    2  C2  UNL     1      18.939  33.035  20.244  1.00  0.00     0.039 A 
HETATM    3  C3  UNL     1      19.258  31.673  20.172  1.00  0.00     0.018 A 
HETATM    4  C4  UNL     1      20.581  31.252  20.058  1.00  0.00     0.009 A 
HETATM    5  C5  UNL     1      20.920  29.881  19.982  1.00  0.00    -0.014 A 
HETATM    6  C6  UNL     1      22.269  29.637  19.863  1.00  0.00     0.038 A 
HETATM    7  C7  UNL     1      23.221  30.575  19.822  1.00  0.00     0.296 A 
HETATM    8  O4  UNL     1      24.442  30.208  19.711  1.00  0.00    -0.259 OA
HETATM    9  O5  UNL     1      22.873  31.826  19.898  1.00  0.00    -0.274 OA
HETATM   10  C8  UNL     1      21.602  32.176  20.012  1.00  0.00     0.093 A 
HETATM   11  C9  UNL     1      21.275  33.532  20.084  1.00  0.00     0.076 A 
HETATM   12  C10 UNL     1      22.867  28.217  19.706  1.00  0.00     0.125 C 
HETATM   13  C11 UNL     1      21.774  27.326  19.812  1.00  0.00    -0.178 C 
HETATM   14  C12 UNL     1      20.548  26.679  19.928  1.00  0.00     0.084 C 
HETATM   15  C13 UNL     1      19.529  27.702  20.482  1.00  0.00     0.039 C 
HETATM   16  C14 UNL     1      19.693  29.111  20.091  1.00  0.00    -0.013 C 
ENDROOT
BRANCH   1  17
HETATM   17  O3  UNL     1      19.717  35.326  20.267  1.00  0.00    -0.217 OA
BRANCH  17  18
HETATM   18  S1  UNL     1      19.693  36.198  18.825  1.00  0.00     0.360 S 
HETATM   19  O1  UNL     1      19.463  35.297  17.643  1.00  0.00    -0.176 OA
HETATM   20  O2  UNL     1      21.019  36.919  18.706  1.00  0.00    -0.176 OA
BRANCH  18  21
HETATM   21  N1  UNL     1      18.433  37.388  18.811  1.00  0.00    -0.305 N 
ATOM     22  H12 UNL     1      17.465  37.227  18.532  1.00  0.00     0.171 HD
ATOM     23  H11 UNL     1      18.844  38.264  19.133  1.00  0.00     0.171 HD
ENDBRANCH  18  21
ENDBRANCH  17  18
ENDBRANCH   1  17
TORSDOF 3
ENDMDL
