MODEL 8
REMARK VINA RESULT: -7.346177072      4.512      6.938
REMARK  3 active torsions:
REMARK  status: ('A' for Active; 'I' for Inactive)
REMARK    1  A    between atoms: N1_1  and  S1_4 
REMARK    2  A    between atoms: S1_4  and  O3_7 
REMARK    3  A    between atoms: O3_7  and  C1_8 
ROOT
HETATM    1  C1  UNL     1      20.273  34.050  19.312  1.00  0.00     0.093 A 
HETATM    2  C2  UNL     1      19.389  33.343  20.091  1.00  0.00     0.039 A 
HETATM    3  C3  UNL     1      19.481  31.946  20.085  1.00  0.00     0.018 A 
HETATM    4  C4  UNL     1      20.440  31.295  19.312  1.00  0.00     0.009 A 
HETATM    5  C5  UNL     1      20.544  29.884  19.292  1.00  0.00    -0.014 A 
HETATM    6  C6  UNL     1      21.537  29.401  18.470  1.00  0.00     0.038 A 
HETATM    7  C7  UNL     1      22.363  30.154  17.735  1.00  0.00     0.296 A 
HETATM    8  O4  UNL     1      23.246  29.573  17.014  1.00  0.00    -0.259 OA
HETATM    9  O5  UNL     1      22.240  31.448  17.780  1.00  0.00    -0.274 OA
HETATM   10  C8  UNL     1      21.316  32.020  18.536  1.00  0.00     0.093 A 
HETATM   11  C9  UNL     1      21.218  33.413  18.547  1.00  0.00     0.076 A 
HETATM   12  C10 UNL     1      21.798  27.891  18.246  1.00  0.00     0.125 C 
HETATM   13  C11 UNL     1      20.901  27.215  19.106  1.00  0.00    -0.178 C 
HETATM   14  C12 UNL     1      19.927  26.802  20.008  1.00  0.00     0.084 C 
HETATM   15  C13 UNL     1      19.525  28.029  20.859  1.00  0.00     0.039 C 
HETATM   16  C14 UNL     1      19.553  29.350  20.210  1.00  0.00    -0.013 C 
ENDROOT
BRANCH   1  17
HETATM   17  O3  UNL     1      20.234  35.458  19.275  1.00  0.00    -0.217 OA
BRANCH  17  18
HETATM   18  S1  UNL     1      19.258  36.192  18.113  1.00  0.00     0.360 S 
HETATM   19  O1  UNL     1      17.877  36.461  18.647  1.00  0.00    -0.176 OA
HETATM   20  O2  UNL     1      19.204  35.270  16.913  1.00  0.00    -0.176 OA
BRANCH  18  21
HETATM   21  N1  UNL     1      19.907  37.713  17.593  1.00  0.00    -0.305 N 
ATOM     22  H12 UNL     1      19.681  38.189  16.718  1.00  0.00     0.171 HD
ATOM     23  H11 UNL     1      20.546  38.031  18.321  1.00  0.00     0.171 HD
ENDBRANCH  18  21
ENDBRANCH  17  18
ENDBRANCH   1  17
TORSDOF 3
ENDMDL
