MODEL 3
REMARK VINA RESULT: -6.028822818      1.030      1.745
REMARK  8 active torsions:
REMARK  status: ('A' for Active; 'I' for Inactive)
REMARK    1  A    between atoms: C1_2  and  C2_4 
REMARK    2  A    between atoms: C2_4  and  C3_5 
REMARK    3  A    between atoms: C3_5  and  C4_6 
REMARK    4  A    between atoms: C4_6  and  C5_7 
REMARK    5  A    between atoms: C5_7  and  C6_8 
REMARK    6  A    between atoms: C6_8  and  C7_9 
REMARK    7  A    between atoms: C7_9  and  C8_10 
REMARK    8  A    between atoms: C8_10  and  C9_11 
ROOT
HETATM    1  C5  UNL     1      63.810   9.939  25.370  1.00  0.00     0.000 C 
ENDROOT
BRANCH   1   2
HETATM    2  C4  UNL     1      65.021  10.724  25.728  1.00  0.00     0.001 C 
BRANCH   2   3
HETATM    3  C3  UNL     1      66.104   9.953  26.430  1.00  0.00     0.010 C 
BRANCH   3   4
HETATM    4  C2  UNL     1      67.129  10.919  26.950  1.00  0.00     0.113 C 
BRANCH   4   5
HETATM    5  C1  UNL     1      68.318  11.014  26.081  1.00  0.00     0.172 C 
HETATM    6  O1  UNL     1      69.413  10.611  26.537  1.00  0.00    -0.648 OA
HETATM    7  O2  UNL     1      68.322  11.517  24.792  1.00  0.00    -0.648 OA
ENDBRANCH   4   5
ENDBRANCH   3   4
ENDBRANCH   2   3
ENDBRANCH   1   2
BRANCH   1   8
HETATM    8  C6  UNL     1      63.497   8.851  26.384  1.00  0.00     0.001 C 
BRANCH   8   9
HETATM    9  C7  UNL     1      63.284   7.573  25.609  1.00  0.00     0.010 C 
BRANCH   9  10
HETATM   10  C8  UNL     1      62.472   7.839  24.396  1.00  0.00     0.113 C 
BRANCH  10  11
HETATM   11  C9  UNL     1      61.126   7.261  24.537  1.00  0.00     0.172 C 
HETATM   12  O3  UNL     1      60.190   7.885  23.944  1.00  0.00    -0.648 OA
HETATM   13  O4  UNL     1      60.839   6.121  25.249  1.00  0.00    -0.648 OA
ENDBRANCH  10  11
ENDBRANCH   9  10
ENDBRANCH   8   9
ENDBRANCH   1   8
TORSDOF 8
ENDMDL
