MODEL 15
REMARK VINA RESULT: -4.769699888      3.887      4.972
REMARK  2 active torsions:
REMARK  status: ('A' for Active; 'I' for Inactive)
REMARK    1  A    between atoms: P1_2  and  C2_5 
REMARK    2  A    between atoms: C5_8  and  C6_9 
ROOT
HETATM    1  C2  UNL     1      -0.950  13.945  49.830  1.00  0.00     0.030 A 
HETATM    2  C3  UNL     1      -0.289  13.144  48.967  1.00  0.00     0.019 A 
HETATM    3  C4  UNL     1      -0.406  11.771  49.039  1.00  0.00     0.016 A 
HETATM    4  C5  UNL     1      -1.201  11.217  49.998  1.00  0.00     0.004 A 
HETATM    5  C7  UNL     1      -1.870  12.057  50.874  1.00  0.00     0.016 A 
HETATM    6  C8  UNL     1      -1.739  13.409  50.782  1.00  0.00     0.019 A 
ENDROOT
BRANCH   4   7
HETATM    7  C6  UNL     1      -1.374   9.770  50.136  1.00  0.00     0.120 C 
HETATM    8  N1  UNL     1      -1.599   8.978  48.950  1.00  0.00    -0.082 NA
HETATM    9  N2  UNL     1      -1.339   9.165  51.252  1.00  0.00    -0.387 N 
ATOM     10  H22 UNL     1      -1.180   9.724  52.090  1.00  0.00     0.157 HD
ATOM     11  H21 UNL     1      -1.460   8.157  51.349  1.00  0.00     0.157 HD
ENDBRANCH   4   7
BRANCH   1  12
HETATM   12  P1  UNL     1      -0.807  15.689  49.731  1.00  0.00     0.136 P 
HETATM   13  C1  UNL     1      -1.404  15.955  51.243  1.00  0.00     0.124 C 
HETATM   14  O1  UNL     1       0.652  16.373  50.094  1.00  0.00    -0.664 OA
HETATM   15  O2  UNL     1      -1.971  16.562  48.994  1.00  0.00    -0.664 OA
ENDBRANCH   1  12
TORSDOF 2
ENDMDL
