MODEL 17
REMARK VINA RESULT: -4.717878535      3.920      5.074
REMARK  2 active torsions:
REMARK  status: ('A' for Active; 'I' for Inactive)
REMARK    1  A    between atoms: P1_2  and  C2_5 
REMARK    2  A    between atoms: C5_8  and  C6_9 
ROOT
HETATM    1  C2  UNL     1      -0.972  13.943  49.854  1.00  0.00     0.030 A 
HETATM    2  C3  UNL     1      -1.764  13.382  50.793  1.00  0.00     0.019 A 
HETATM    3  C4  UNL     1      -1.882  12.011  50.895  1.00  0.00     0.016 A 
HETATM    4  C5  UNL     1      -1.190  11.214  50.032  1.00  0.00     0.004 A 
HETATM    5  C7  UNL     1      -0.384  11.810  49.075  1.00  0.00     0.016 A 
HETATM    6  C8  UNL     1      -0.282  13.166  48.995  1.00  0.00     0.019 A 
ENDROOT
BRANCH   4   7
HETATM    7  C6  UNL     1      -1.266   9.752  50.079  1.00  0.00     0.120 C 
HETATM    8  N1  UNL     1      -1.508   9.026  48.855  1.00  0.00    -0.082 NA
HETATM    9  N2  UNL     1      -1.131   9.079  51.148  1.00  0.00    -0.387 N 
ATOM     10  H22 UNL     1      -0.960   9.592  52.013  1.00  0.00     0.157 HD
ATOM     11  H21 UNL     1      -1.184   8.061  51.181  1.00  0.00     0.157 HD
ENDBRANCH   4   7
BRANCH   1  12
HETATM   12  P1  UNL     1      -0.815  15.685  49.732  1.00  0.00     0.136 P 
HETATM   13  C1  UNL     1      -1.404  15.975  51.242  1.00  0.00     0.124 C 
HETATM   14  O1  UNL     1       0.650  16.363  50.080  1.00  0.00    -0.664 OA
HETATM   15  O2  UNL     1      -1.975  16.557  48.987  1.00  0.00    -0.664 OA
ENDBRANCH   1  12
TORSDOF 2
ENDMDL
