MODEL 5
REMARK VINA RESULT: -6.110370394      1.176      1.451
REMARK  2 active torsions:
REMARK  status: ('A' for Active; 'I' for Inactive)
REMARK    1  A    between atoms: P1_2  and  C2_5 
REMARK    2  A    between atoms: C5_8  and  C6_9 
ROOT
HETATM    1  C2  UNL     1      -1.412  13.041  48.662  1.00  0.00     0.030 A 
HETATM    2  C3  UNL     1      -0.964  14.234  48.213  1.00  0.00     0.019 A 
HETATM    3  C4  UNL     1      -0.875  15.322  49.057  1.00  0.00     0.016 A 
HETATM    4  C5  UNL     1      -1.246  15.188  50.362  1.00  0.00     0.004 A 
HETATM    5  C7  UNL     1      -1.703  13.956  50.802  1.00  0.00     0.016 A 
HETATM    6  C8  UNL     1      -1.782  12.897  49.950  1.00  0.00     0.019 A 
ENDROOT
BRANCH   4   7
HETATM    7  C6  UNL     1      -1.179  16.298  51.316  1.00  0.00     0.120 C 
HETATM    8  N1  UNL     1      -0.112  17.262  51.190  1.00  0.00    -0.082 NA
HETATM    9  N2  UNL     1      -2.015  16.460  52.259  1.00  0.00    -0.387 N 
ATOM     10  H22 UNL     1      -2.768  15.779  52.348  1.00  0.00     0.157 HD
ATOM     11  H21 UNL     1      -1.968  17.232  52.923  1.00  0.00     0.157 HD
ENDBRANCH   4   7
BRANCH   1  12
HETATM   12  P1  UNL     1      -1.516  11.658  47.590  1.00  0.00     0.136 P 
HETATM   13  C1  UNL     1      -0.070  11.023  48.056  1.00  0.00     0.124 C 
HETATM   14  O1  UNL     1      -2.360  10.334  48.105  1.00  0.00    -0.664 OA
HETATM   15  O2  UNL     1      -1.079  11.803  46.026  1.00  0.00    -0.664 OA
ENDBRANCH   1  12
TORSDOF 2
ENDMDL
