MODEL 1
REMARK VINA RESULT: -6.622865457      0.000      0.000
REMARK  2 active torsions:
REMARK  status: ('A' for Active; 'I' for Inactive)
REMARK    1  A    between atoms: P1_2  and  C2_5 
REMARK    2  A    between atoms: C5_8  and  C6_9 
ROOT
HETATM    1  C2  UNL     1      -0.683  12.937  48.541  1.00  0.00     0.030 A 
HETATM    2  C3  UNL     1      -0.572  14.276  48.403  1.00  0.00     0.019 A 
HETATM    3  C4  UNL     1      -0.961  15.129  49.415  1.00  0.00     0.016 A 
HETATM    4  C5  UNL     1      -1.467  14.609  50.570  1.00  0.00     0.004 A 
HETATM    5  C7  UNL     1      -1.573  13.233  50.691  1.00  0.00     0.016 A 
HETATM    6  C8  UNL     1      -1.182  12.412  49.678  1.00  0.00     0.019 A 
ENDROOT
BRANCH   4   7
HETATM    7  C6  UNL     1      -1.900  15.452  51.687  1.00  0.00     0.120 C 
HETATM    8  N1  UNL     1      -1.285  16.746  51.864  1.00  0.00    -0.082 NA
HETATM    9  N2  UNL     1      -2.794  15.104  52.519  1.00  0.00    -0.387 N 
ATOM     10  H22 UNL     1      -3.228  14.189  52.394  1.00  0.00     0.157 HD
ATOM     11  H21 UNL     1      -3.096  15.690  53.297  1.00  0.00     0.157 HD
ENDBRANCH   4   7
BRANCH   1  12
HETATM   12  P1  UNL     1      -0.180  11.854  47.257  1.00  0.00     0.136 P 
HETATM   13  C1  UNL     1      -0.859  10.518  47.940  1.00  0.00     0.124 C 
HETATM   14  O1  UNL     1      -1.128  11.750  45.908  1.00  0.00    -0.664 OA
HETATM   15  O2  UNL     1       1.327  11.231  47.260  1.00  0.00    -0.664 OA
ENDBRANCH   1  12
TORSDOF 2
ENDMDL
