MODEL 4
REMARK VINA RESULT: -6.415209728      1.010      1.676
REMARK  2 active torsions:
REMARK  status: ('A' for Active; 'I' for Inactive)
REMARK    1  A    between atoms: P1_2  and  C2_5 
REMARK    2  A    between atoms: C5_8  and  C6_9 
ROOT
HETATM    1  C2  UNL     1      -0.877  12.595  48.767  1.00  0.00     0.030 A 
HETATM    2  C3  UNL     1      -1.462  12.155  49.902  1.00  0.00     0.019 A 
HETATM    3  C4  UNL     1      -1.814  13.034  50.906  1.00  0.00     0.016 A 
HETATM    4  C5  UNL     1      -1.565  14.365  50.747  1.00  0.00     0.004 A 
HETATM    5  C7  UNL     1      -0.963  14.795  49.575  1.00  0.00     0.016 A 
HETATM    6  C8  UNL     1      -0.625  13.908  48.599  1.00  0.00     0.019 A 
ENDROOT
BRANCH   4   7
HETATM    7  C6  UNL     1      -1.910  15.356  51.768  1.00  0.00     0.120 C 
HETATM    8  N1  UNL     1      -1.262  16.646  51.735  1.00  0.00    -0.082 NA
HETATM    9  N2  UNL     1      -2.755  15.143  52.692  1.00  0.00    -0.387 N 
ATOM     10  H22 UNL     1      -3.213  14.232  52.715  1.00  0.00     0.157 HD
ATOM     11  H21 UNL     1      -2.996  15.833  53.403  1.00  0.00     0.157 HD
ENDBRANCH   4   7
BRANCH   1  12
HETATM   12  P1  UNL     1      -0.438  11.478  47.489  1.00  0.00     0.136 P 
HETATM   13  C1  UNL     1       1.015  11.082  48.155  1.00  0.00     0.124 C 
HETATM   14  O1  UNL     1      -0.999   9.927  47.582  1.00  0.00    -0.664 OA
HETATM   15  O2  UNL     1       0.219  12.039  46.106  1.00  0.00    -0.664 OA
ENDBRANCH   1  12
TORSDOF 2
ENDMDL
