MODEL 3
REMARK VINA RESULT: -6.429965373      1.000      1.066
REMARK  2 active torsions:
REMARK  status: ('A' for Active; 'I' for Inactive)
REMARK    1  A    between atoms: P1_2  and  C2_5 
REMARK    2  A    between atoms: C5_8  and  C6_9 
ROOT
HETATM    1  C2  UNL     1      -0.888  12.638  48.692  1.00  0.00     0.030 A 
HETATM    2  C3  UNL     1      -0.732  13.962  48.474  1.00  0.00     0.019 A 
HETATM    3  C4  UNL     1      -1.066  14.886  49.444  1.00  0.00     0.016 A 
HETATM    4  C5  UNL     1      -1.561  14.452  50.637  1.00  0.00     0.004 A 
HETATM    5  C7  UNL     1      -1.714  13.090  50.841  1.00  0.00     0.016 A 
HETATM    6  C8  UNL     1      -1.377  12.198  49.869  1.00  0.00     0.019 A 
ENDROOT
BRANCH   4   7
HETATM    7  C6  UNL     1      -1.937  15.373  51.713  1.00  0.00     0.120 C 
HETATM    8  N1  UNL     1      -1.288  16.661  51.787  1.00  0.00    -0.082 NA
HETATM    9  N2  UNL     1      -2.809  15.099  52.594  1.00  0.00    -0.387 N 
ATOM     10  H22 UNL     1      -3.268  14.190  52.542  1.00  0.00     0.157 HD
ATOM     11  H21 UNL     1      -3.071  15.740  53.343  1.00  0.00     0.157 HD
ENDBRANCH   4   7
BRANCH   1  12
HETATM   12  P1  UNL     1      -0.456  11.466  47.463  1.00  0.00     0.136 P 
HETATM   13  C1  UNL     1       1.027  11.144  48.105  1.00  0.00     0.124 C 
HETATM   14  O1  UNL     1      -0.971   9.908  47.655  1.00  0.00    -0.664 OA
HETATM   15  O2  UNL     1       0.146  11.968  46.033  1.00  0.00    -0.664 OA
ENDBRANCH   1  12
TORSDOF 2
ENDMDL
