MODEL 2
REMARK VINA RESULT: -6.605380869      0.102      1.309
REMARK  2 active torsions:
REMARK  status: ('A' for Active; 'I' for Inactive)
REMARK    1  A    between atoms: P1_2  and  C2_5 
REMARK    2  A    between atoms: C5_8  and  C6_9 
ROOT
HETATM    1  C2  UNL     1      -0.716  12.859  48.583  1.00  0.00     0.030 A 
HETATM    2  C3  UNL     1      -1.196  12.318  49.724  1.00  0.00     0.019 A 
HETATM    3  C4  UNL     1      -1.606  13.117  50.772  1.00  0.00     0.016 A 
HETATM    4  C5  UNL     1      -1.523  14.473  50.651  1.00  0.00     0.004 A 
HETATM    5  C7  UNL     1      -1.027  15.007  49.472  1.00  0.00     0.016 A 
HETATM    6  C8  UNL     1      -0.630  14.197  48.452  1.00  0.00     0.019 A 
ENDROOT
BRANCH   4   7
HETATM    7  C6  UNL     1      -1.939  15.384  51.719  1.00  0.00     0.120 C 
HETATM    8  N1  UNL     1      -1.302  16.676  51.821  1.00  0.00    -0.082 NA
HETATM    9  N2  UNL     1      -2.837  15.099  52.571  1.00  0.00    -0.387 N 
ATOM     10  H22 UNL     1      -3.286  14.186  52.499  1.00  0.00     0.157 HD
ATOM     11  H21 UNL     1      -3.126  15.733  53.315  1.00  0.00     0.157 HD
ENDBRANCH   4   7
BRANCH   1  12
HETATM   12  P1  UNL     1      -0.204  11.842  47.250  1.00  0.00     0.136 P 
HETATM   13  C1  UNL     1      -0.873  10.470  47.869  1.00  0.00     0.124 C 
HETATM   14  O1  UNL     1      -1.150  11.795  45.897  1.00  0.00    -0.664 OA
HETATM   15  O2  UNL     1       1.308  11.231  47.226  1.00  0.00    -0.664 OA
ENDBRANCH   1  12
TORSDOF 2
ENDMDL
