MODEL 20
REMARK VINA RESULT: -4.667172741      4.756      5.792
REMARK  2 active torsions:
REMARK  status: ('A' for Active; 'I' for Inactive)
REMARK    1  A    between atoms: P1_2  and  C2_5 
REMARK    2  A    between atoms: C5_8  and  C6_9 
ROOT
HETATM    1  C2  UNL     1      -0.395  11.761  49.338  1.00  0.00     0.030 A 
HETATM    2  C3  UNL     1       0.091  11.921  48.088  1.00  0.00     0.019 A 
HETATM    3  C4  UNL     1       1.109  11.118  47.613  1.00  0.00     0.016 A 
HETATM    4  C5  UNL     1       1.629  10.151  48.421  1.00  0.00     0.004 A 
HETATM    5  C7  UNL     1       1.117  10.004  49.700  1.00  0.00     0.016 A 
HETATM    6  C8  UNL     1       0.112  10.809  50.145  1.00  0.00     0.019 A 
ENDROOT
BRANCH   4   7
HETATM    7  C6  UNL     1       2.709   9.262  47.987  1.00  0.00     0.120 C 
HETATM    8  N1  UNL     1       3.101   8.170  48.847  1.00  0.00    -0.082 NA
HETATM    9  N2  UNL     1       3.328   9.399  46.887  1.00  0.00    -0.387 N 
ATOM     10  H22 UNL     1       3.051  10.171  46.280  1.00  0.00     0.157 HD
ATOM     11  H21 UNL     1       4.080   8.781  46.585  1.00  0.00     0.157 HD
ENDBRANCH   4   7
BRANCH   1  12
HETATM   12  P1  UNL     1      -1.693  12.776  49.935  1.00  0.00     0.136 P 
HETATM   13  C1  UNL     1      -1.371  14.020  48.905  1.00  0.00     0.124 C 
HETATM   14  O1  UNL     1      -3.209  12.546  49.320  1.00  0.00    -0.664 OA
HETATM   15  O2  UNL     1      -1.472  13.678  51.276  1.00  0.00    -0.664 OA
ENDBRANCH   1  12
TORSDOF 2
ENDMDL
