MODEL 10
REMARK VINA RESULT: -6.581818729      0.794      1.289
REMARK  8 active torsions:
REMARK  status: ('A' for Active; 'I' for Inactive)
REMARK    1  A    between atoms: O1_1  and  C1_3 
REMARK    2  A    between atoms: C1_3  and  C2_4 
REMARK    3  A    between atoms: C2_4  and  O2_5 
REMARK    4  A    between atoms: C2_4  and  C3_7 
REMARK    5  A    between atoms: C3_7  and  O3_8 
REMARK    6  A    between atoms: C3_7  and  C4_10 
REMARK    7  A    between atoms: C4_10  and  O4_11 
REMARK    8  A    between atoms: O4_11  and  P1_12 
ROOT
HETATM    1  C3  UNL     1       7.431   4.459  -1.144  1.00  0.00     0.173 C 
ENDROOT
BRANCH   1   2
HETATM    2  C2  UNL     1       7.110   3.302  -0.218  1.00  0.00     0.172 C 
BRANCH   2   3
HETATM    3  C1  UNL     1       8.071   2.183  -0.573  1.00  0.00     0.198 C 
BRANCH   3   4
HETATM    4  O1  UNL     1       9.311   2.368   0.020  1.00  0.00    -0.398 OA
ATOM      5  H1  UNL     1       9.372   1.912   0.852  1.00  0.00     0.209 HD
ENDBRANCH   3   4
ENDBRANCH   2   3
BRANCH   2   6
HETATM    6  O2  UNL     1       5.820   2.885  -0.528  1.00  0.00    -0.391 OA
ATOM      7  H2  UNL     1       5.320   3.643  -0.808  1.00  0.00     0.210 HD
ENDBRANCH   2   6
ENDBRANCH   1   2
BRANCH   1   8
HETATM    8  O3  UNL     1       8.158   5.388  -0.432  1.00  0.00    -0.391 OA
ATOM      9  H3  UNL     1       7.559   6.057  -0.123  1.00  0.00     0.210 HD
ENDBRANCH   1   8
BRANCH   1  10
HETATM   10  C4  UNL     1       6.157   5.060  -1.728  1.00  0.00     0.217 C 
BRANCH  10  11
HETATM   11  O4  UNL     1       5.430   5.554  -0.683  1.00  0.00    -0.280 OA
BRANCH  11  12
HETATM   12  P1  UNL     1       5.055   7.126  -0.981  1.00  0.00     0.422 P 
HETATM   13  O5  UNL     1       5.780   8.350  -0.120  1.00  0.00    -0.617 OA
HETATM   14  O6  UNL     1       6.073   7.247  -2.104  1.00  0.00    -0.617 OA
HETATM   15  O7  UNL     1       3.796   7.491  -1.981  1.00  0.00    -0.617 OA
ENDBRANCH  11  12
ENDBRANCH  10  11
ENDBRANCH   1  10
TORSDOF 8
ENDMDL
