MODEL 6
REMARK VINA RESULT: -6.760796370      1.329      2.430
REMARK  8 active torsions:
REMARK  status: ('A' for Active; 'I' for Inactive)
REMARK    1  A    between atoms: O1_1  and  C1_3 
REMARK    2  A    between atoms: C1_3  and  C2_4 
REMARK    3  A    between atoms: C2_4  and  O2_5 
REMARK    4  A    between atoms: C2_4  and  C3_7 
REMARK    5  A    between atoms: C3_7  and  O3_8 
REMARK    6  A    between atoms: C3_7  and  C4_10 
REMARK    7  A    between atoms: C4_10  and  O4_11 
REMARK    8  A    between atoms: O4_11  and  P1_12 
ROOT
HETATM    1  C3  UNL     1       6.692   4.238   0.658  1.00  0.00     0.173 C 
ENDROOT
BRANCH   1   2
HETATM    2  C2  UNL     1       7.404   4.246  -0.681  1.00  0.00     0.172 C 
BRANCH   2   3
HETATM    3  C1  UNL     1       8.309   3.028  -0.698  1.00  0.00     0.198 C 
BRANCH   3   4
HETATM    4  O1  UNL     1       8.913   2.824   0.534  1.00  0.00    -0.398 OA
ATOM      5  H1  UNL     1       9.854   2.719   0.449  1.00  0.00     0.209 HD
ENDBRANCH   3   4
ENDBRANCH   2   3
BRANCH   2   6
HETATM    6  O2  UNL     1       8.203   5.384  -0.704  1.00  0.00    -0.391 OA
ATOM      7  H2  UNL     1       7.909   5.968  -0.014  1.00  0.00     0.210 HD
ENDBRANCH   2   6
ENDBRANCH   1   2
BRANCH   1   8
HETATM    8  O3  UNL     1       5.936   3.088   0.733  1.00  0.00    -0.391 OA
ATOM      9  H3  UNL     1       5.065   3.327   1.026  1.00  0.00     0.210 HD
ENDBRANCH   1   8
BRANCH   1  10
HETATM   10  C4  UNL     1       5.841   5.490   0.832  1.00  0.00     0.217 C 
BRANCH  10  11
HETATM   11  O4  UNL     1       5.118   5.647  -0.316  1.00  0.00    -0.280 OA
BRANCH  11  12
HETATM   12  P1  UNL     1       5.286   7.191  -0.853  1.00  0.00     0.422 P 
HETATM   13  O5  UNL     1       6.201   7.527  -2.200  1.00  0.00    -0.617 OA
HETATM   14  O6  UNL     1       4.008   7.136  -1.675  1.00  0.00    -0.617 OA
HETATM   15  O7  UNL     1       4.731   8.442   0.067  1.00  0.00    -0.617 OA
ENDBRANCH  11  12
ENDBRANCH  10  11
ENDBRANCH   1  10
TORSDOF 8
ENDMDL
