MODEL 5
REMARK VINA RESULT: -6.778320305      1.203      2.069
REMARK  8 active torsions:
REMARK  status: ('A' for Active; 'I' for Inactive)
REMARK    1  A    between atoms: O1_1  and  C1_3 
REMARK    2  A    between atoms: C1_3  and  C2_4 
REMARK    3  A    between atoms: C2_4  and  O2_5 
REMARK    4  A    between atoms: C2_4  and  C3_7 
REMARK    5  A    between atoms: C3_7  and  O3_8 
REMARK    6  A    between atoms: C3_7  and  C4_10 
REMARK    7  A    between atoms: C4_10  and  O4_11 
REMARK    8  A    between atoms: O4_11  and  P1_12 
ROOT
HETATM    1  C3  UNL     1       6.999   4.095   0.424  1.00  0.00     0.173 C 
ENDROOT
BRANCH   1   2
HETATM    2  C2  UNL     1       7.449   3.831  -1.000  1.00  0.00     0.172 C 
BRANCH   2   3
HETATM    3  C1  UNL     1       8.294   2.572  -0.960  1.00  0.00     0.198 C 
BRANCH   3   4
HETATM    4  O1  UNL     1       9.104   2.535   0.165  1.00  0.00    -0.398 OA
ATOM      5  H1  UNL     1       9.773   1.863   0.093  1.00  0.00     0.209 HD
ENDBRANCH   3   4
ENDBRANCH   2   3
BRANCH   2   6
HETATM    6  O2  UNL     1       8.269   4.894  -1.365  1.00  0.00    -0.391 OA
ATOM      7  H2  UNL     1       7.970   5.672  -0.908  1.00  0.00     0.210 HD
ENDBRANCH   2   6
ENDBRANCH   1   2
BRANCH   1   8
HETATM    8  O3  UNL     1       6.338   2.974   0.877  1.00  0.00    -0.391 OA
ATOM      9  H3  UNL     1       6.469   2.915   1.816  1.00  0.00     0.210 HD
ENDBRANCH   1   8
BRANCH   1  10
HETATM   10  C4  UNL     1       6.123   5.340   0.498  1.00  0.00     0.217 C 
BRANCH  10  11
HETATM   11  O4  UNL     1       5.462   5.438  -0.694  1.00  0.00    -0.280 OA
BRANCH  11  12
HETATM   12  P1  UNL     1       5.117   7.016  -0.992  1.00  0.00     0.422 P 
HETATM   13  O5  UNL     1       5.840   8.225  -0.108  1.00  0.00    -0.617 OA
HETATM   14  O6  UNL     1       6.163   7.128  -2.091  1.00  0.00    -0.617 OA
HETATM   15  O7  UNL     1       3.887   7.405  -2.019  1.00  0.00    -0.617 OA
ENDBRANCH  11  12
ENDBRANCH  10  11
ENDBRANCH   1  10
TORSDOF 8
ENDMDL
