MODEL 3
REMARK VINA RESULT: -6.830235076      1.497      2.055
REMARK  8 active torsions:
REMARK  status: ('A' for Active; 'I' for Inactive)
REMARK    1  A    between atoms: O1_1  and  C1_3 
REMARK    2  A    between atoms: C1_3  and  C2_4 
REMARK    3  A    between atoms: C2_4  and  O2_5 
REMARK    4  A    between atoms: C2_4  and  C3_7 
REMARK    5  A    between atoms: C3_7  and  O3_8 
REMARK    6  A    between atoms: C3_7  and  C4_10 
REMARK    7  A    between atoms: C4_10  and  O4_11 
REMARK    8  A    between atoms: O4_11  and  P1_12 
ROOT
HETATM    1  C3  UNL     1       6.912   4.964  -0.233  1.00  0.00     0.173 C 
ENDROOT
BRANCH   1   2
HETATM    2  C2  UNL     1       7.133   3.731   0.622  1.00  0.00     0.172 C 
BRANCH   2   3
HETATM    3  C1  UNL     1       7.829   2.711  -0.260  1.00  0.00     0.198 C 
BRANCH   3   4
HETATM    4  O1  UNL     1       9.132   2.480   0.157  1.00  0.00    -0.398 OA
ATOM      5  H1  UNL     1       9.188   1.718   0.723  1.00  0.00     0.209 HD
ENDBRANCH   3   4
ENDBRANCH   2   3
BRANCH   2   6
HETATM    6  O2  UNL     1       5.874   3.238   0.949  1.00  0.00    -0.391 OA
ATOM      7  H2  UNL     1       5.741   3.355   1.883  1.00  0.00     0.210 HD
ENDBRANCH   2   6
ENDBRANCH   1   2
BRANCH   1   8
HETATM    8  O3  UNL     1       8.144   5.508  -0.524  1.00  0.00    -0.391 OA
ATOM      9  H3  UNL     1       8.085   5.934  -1.371  1.00  0.00     0.210 HD
ENDBRANCH   1   8
BRANCH   1  10
HETATM   10  C4  UNL     1       6.002   5.962   0.473  1.00  0.00     0.217 C 
BRANCH  10  11
HETATM   11  O4  UNL     1       4.809   5.959  -0.193  1.00  0.00    -0.280 OA
BRANCH  11  12
HETATM   12  P1  UNL     1       5.073   6.309  -1.776  1.00  0.00     0.422 P 
HETATM   13  O5  UNL     1       4.410   5.368  -2.975  1.00  0.00    -0.617 OA
HETATM   14  O6  UNL     1       3.916   7.294  -1.842  1.00  0.00    -0.617 OA
HETATM   15  O7  UNL     1       6.177   7.462  -2.186  1.00  0.00    -0.617 OA
ENDBRANCH  11  12
ENDBRANCH  10  11
ENDBRANCH   1  10
TORSDOF 8
ENDMDL
