MODEL 9
REMARK VINA RESULT: -6.613768938      1.202      1.956
REMARK  8 active torsions:
REMARK  status: ('A' for Active; 'I' for Inactive)
REMARK    1  A    between atoms: O1_1  and  C1_3 
REMARK    2  A    between atoms: C1_3  and  C2_4 
REMARK    3  A    between atoms: C2_4  and  O2_5 
REMARK    4  A    between atoms: C2_4  and  C3_7 
REMARK    5  A    between atoms: C3_7  and  O3_8 
REMARK    6  A    between atoms: C3_7  and  C4_10 
REMARK    7  A    between atoms: C4_10  and  O4_11 
REMARK    8  A    between atoms: O4_11  and  P1_12 
ROOT
HETATM    1  C3  UNL     1       6.910   4.535  -0.281  1.00  0.00     0.173 C 
ENDROOT
BRANCH   1   2
HETATM    2  C2  UNL     1       6.851   3.042  -0.019  1.00  0.00     0.172 C 
BRANCH   2   3
HETATM    3  C1  UNL     1       7.997   2.421  -0.795  1.00  0.00     0.198 C 
BRANCH   3   4
HETATM    4  O1  UNL     1       9.127   2.273  -0.004  1.00  0.00    -0.398 OA
ATOM      5  H1  UNL     1       9.824   1.825  -0.471  1.00  0.00     0.209 HD
ENDBRANCH   3   4
ENDBRANCH   2   3
BRANCH   2   6
HETATM    6  O2  UNL     1       5.656   2.586  -0.566  1.00  0.00    -0.391 OA
ATOM      7  H2  UNL     1       5.088   3.336  -0.709  1.00  0.00     0.210 HD
ENDBRANCH   2   6
ENDBRANCH   1   2
BRANCH   1   8
HETATM    8  O3  UNL     1       8.167   4.980   0.070  1.00  0.00    -0.391 OA
ATOM      9  H3  UNL     1       8.796   4.571  -0.513  1.00  0.00     0.210 HD
ENDBRANCH   1   8
BRANCH   1  10
HETATM   10  C4  UNL     1       5.814   5.268   0.483  1.00  0.00     0.217 C 
BRANCH  10  11
HETATM   11  O4  UNL     1       4.897   5.690  -0.436  1.00  0.00    -0.280 OA
BRANCH  11  12
HETATM   12  P1  UNL     1       5.249   7.232  -0.882  1.00  0.00     0.422 P 
HETATM   13  O5  UNL     1       6.194   7.534  -2.217  1.00  0.00    -0.617 OA
HETATM   14  O6  UNL     1       3.971   7.382  -1.692  1.00  0.00    -0.617 OA
HETATM   15  O7  UNL     1       4.855   8.483   0.116  1.00  0.00    -0.617 OA
ENDBRANCH  11  12
ENDBRANCH  10  11
ENDBRANCH   1  10
TORSDOF 8
ENDMDL
