MODEL 6
REMARK VINA RESULT: -8.642391975      1.870      2.660
REMARK  10 active torsions:
REMARK  status: ('A' for Active; 'I' for Inactive)
REMARK    1  A    between atoms: N2_7  and  C3_8 
REMARK    2  A    between atoms: C3_8  and  O3_9 
REMARK    3  A    between atoms: O3_9  and  C4_10 
REMARK    4  A    between atoms: C4_10  and  C5_11 
REMARK    5  A    between atoms: C5_11  and  O4_12 
REMARK    6  A    between atoms: C7_15  and  C8_16 
REMARK    7  A    between atoms: C8_16  and  C9_17 
REMARK    8  A    between atoms: C13_21  and  O5_22 
REMARK    9  A    between atoms: O5_22  and  C14_23 
REMARK   10  A    between atoms: C14_23  and  C15_24 
ROOT
HETATM    1  O1  UNL     1      33.763 165.253  57.581  1.00  0.00    -0.267 OA
HETATM    2  C1  UNL     1      34.936 164.821  57.528  1.00  0.00     0.257 A 
HETATM    3  N1  UNL     1      35.898 165.616  58.010  1.00  0.00    -0.275 N 
ATOM      4  H1  UNL     1      35.659 166.529  58.397  1.00  0.00     0.173 HD
HETATM    5  C2  UNL     1      37.178 165.212  57.983  1.00  0.00     0.331 A 
HETATM    6  O2  UNL     1      38.123 165.933  58.429  1.00  0.00    -0.246 OA
HETATM    7  N2  UNL     1      37.505 163.994  57.468  1.00  0.00    -0.287 N 
HETATM    8  C6  UNL     1      36.571 163.165  56.974  1.00  0.00     0.111 A 
HETATM    9  C7  UNL     1      35.239 163.588  57.002  1.00  0.00     0.030 A 
ENDROOT
BRANCH   9  10
HETATM   10  C8  UNL     1      34.195 162.683  56.453  1.00  0.00     0.084 C 
BRANCH  10  11
HETATM   11  C9  UNL     1      33.630 161.876  57.571  1.00  0.00    -0.051 A 
HETATM   12  C10 UNL     1      32.285 162.135  57.860  1.00  0.00     0.007 A 
HETATM   13  C11 UNL     1      31.707 161.414  58.881  1.00  0.00     0.003 A 
HETATM   14  C12 UNL     1      32.409 160.466  59.604  1.00  0.00     0.037 A 
HETATM   15  C13 UNL     1      33.730 160.211  59.320  1.00  0.00     0.069 A 
HETATM   16  C21 UNL     1      34.324 160.939  58.284  1.00  0.00     0.044 A 
BRANCH  15  17
HETATM   17  O5  UNL     1      34.502 159.294  59.978  1.00  0.00    -0.347 OA
BRANCH  17  18
HETATM   18  C14 UNL     1      34.909 158.062  59.461  1.00  0.00     0.214 C 
BRANCH  18  19
HETATM   19  C15 UNL     1      33.740 157.282  58.920  1.00  0.00    -0.034 A 
HETATM   20  C16 UNL     1      33.601 157.059  57.567  1.00  0.00     0.009 A 
HETATM   21  C17 UNL     1      32.546 156.360  57.023  1.00  0.00     0.001 A 
HETATM   22  C18 UNL     1      31.572 155.851  57.881  1.00  0.00     0.000 A 
HETATM   23  C19 UNL     1      31.684 156.059  59.257  1.00  0.00     0.001 A 
HETATM   24  C20 UNL     1      32.761 156.766  59.734  1.00  0.00     0.009 A 
ENDBRANCH  18  19
ENDBRANCH  17  18
ENDBRANCH  15  17
ENDBRANCH  10  11
ENDBRANCH   9  10
BRANCH   7  25
HETATM   25  C3  UNL     1      38.885 163.567  57.431  1.00  0.00     0.302 C 
BRANCH  25  26
HETATM   26  O3  UNL     1      39.353 163.268  58.682  1.00  0.00    -0.369 OA
BRANCH  26  27
HETATM   27  C4  UNL     1      40.696 163.545  58.793  1.00  0.00     0.196 C 
BRANCH  27  28
HETATM   28  C5  UNL     1      41.248 163.631  57.360  1.00  0.00     0.190 C 
BRANCH  28  29
HETATM   29  O4  UNL     1      42.071 164.752  57.331  1.00  0.00    -0.399 OA
ATOM     30  H4  UNL     1      41.496 165.503  57.415  1.00  0.00     0.209 HD
ENDBRANCH  28  29
ENDBRANCH  27  28
ENDBRANCH  26  27
ENDBRANCH  25  26
ENDBRANCH   7  25
TORSDOF 10
ENDMDL
