MODEL 17
REMARK VINA RESULT: -8.111178823      2.008      4.962
REMARK  10 active torsions:
REMARK  status: ('A' for Active; 'I' for Inactive)
REMARK    1  A    between atoms: N2_7  and  C3_8 
REMARK    2  A    between atoms: C3_8  and  O3_9 
REMARK    3  A    between atoms: O3_9  and  C4_10 
REMARK    4  A    between atoms: C4_10  and  C5_11 
REMARK    5  A    between atoms: C5_11  and  O4_12 
REMARK    6  A    between atoms: C7_15  and  C8_16 
REMARK    7  A    between atoms: C8_16  and  C9_17 
REMARK    8  A    between atoms: C13_21  and  O5_22 
REMARK    9  A    between atoms: O5_22  and  C14_23 
REMARK   10  A    between atoms: C14_23  and  C15_24 
ROOT
HETATM    1  O1  UNL     1      38.102 166.098  58.532  1.00  0.00    -0.267 OA
HETATM    2  C1  UNL     1      37.271 165.326  58.004  1.00  0.00     0.257 A 
HETATM    3  N1  UNL     1      35.979 165.655  58.119  1.00  0.00    -0.275 N 
ATOM      4  H1  UNL     1      35.711 166.501  58.620  1.00  0.00     0.173 HD
HETATM    5  C2  UNL     1      35.036 164.869  57.574  1.00  0.00     0.331 A 
HETATM    6  O2  UNL     1      33.799 165.142  57.659  1.00  0.00    -0.246 OA
HETATM    7  N2  UNL     1      35.387 163.737  56.904  1.00  0.00    -0.287 N 
HETATM    8  C6  UNL     1      36.671 163.370  56.765  1.00  0.00     0.111 A 
HETATM    9  C7  UNL     1      37.651 164.189  57.333  1.00  0.00     0.030 A 
ENDROOT
BRANCH   9  10
HETATM   10  C8  UNL     1      39.078 163.792  57.192  1.00  0.00     0.084 C 
BRANCH  10  11
HETATM   11  C9  UNL     1      39.404 162.802  58.257  1.00  0.00    -0.051 A 
HETATM   12  C10 UNL     1      40.222 163.291  59.281  1.00  0.00     0.007 A 
HETATM   13  C11 UNL     1      40.552 162.422  60.296  1.00  0.00     0.003 A 
HETATM   14  C12 UNL     1      40.103 161.114  60.324  1.00  0.00     0.037 A 
HETATM   15  C13 UNL     1      39.299 160.633  59.317  1.00  0.00     0.069 A 
HETATM   16  C21 UNL     1      38.958 161.510  58.282  1.00  0.00     0.044 A 
BRANCH  15  17
HETATM   17  O5  UNL     1      38.807 159.358  59.259  1.00  0.00    -0.347 OA
BRANCH  17  18
HETATM   18  C14 UNL     1      37.717 158.948  58.488  1.00  0.00     0.214 C 
BRANCH  18  19
HETATM   19  C15 UNL     1      37.659 157.447  58.377  1.00  0.00    -0.034 A 
HETATM   20  C16 UNL     1      38.003 156.643  59.442  1.00  0.00     0.009 A 
HETATM   21  C17 UNL     1      37.975 155.267  59.386  1.00  0.00     0.001 A 
HETATM   22  C18 UNL     1      37.578 154.657  58.198  1.00  0.00     0.000 A 
HETATM   23  C19 UNL     1      37.223 155.444  57.100  1.00  0.00     0.001 A 
HETATM   24  C20 UNL     1      37.274 156.811  57.221  1.00  0.00     0.009 A 
ENDBRANCH  18  19
ENDBRANCH  17  18
ENDBRANCH  15  17
ENDBRANCH  10  11
ENDBRANCH   9  10
BRANCH   7  25
HETATM   25  C3  UNL     1      34.369 162.888  56.329  1.00  0.00     0.302 C 
BRANCH  25  26
HETATM   26  O3  UNL     1      34.105 161.807  57.127  1.00  0.00    -0.369 OA
BRANCH  26  27
HETATM   27  C4  UNL     1      32.778 161.451  57.063  1.00  0.00     0.196 C 
BRANCH  27  28
HETATM   28  C5  UNL     1      32.184 161.709  58.459  1.00  0.00     0.190 C 
BRANCH  28  29
HETATM   29  O4  UNL     1      31.182 162.656  58.282  1.00  0.00    -0.399 OA
ATOM     30  H4  UNL     1      31.492 163.449  58.702  1.00  0.00     0.209 HD
ENDBRANCH  28  29
ENDBRANCH  27  28
ENDBRANCH  26  27
ENDBRANCH  25  26
ENDBRANCH   7  25
TORSDOF 10
ENDMDL
