MODEL 8
REMARK VINA RESULT: -8.631716593      2.066      5.249
REMARK  10 active torsions:
REMARK  status: ('A' for Active; 'I' for Inactive)
REMARK    1  A    between atoms: N2_7  and  C3_8 
REMARK    2  A    between atoms: C3_8  and  O3_9 
REMARK    3  A    between atoms: O3_9  and  C4_10 
REMARK    4  A    between atoms: C4_10  and  C5_11 
REMARK    5  A    between atoms: C5_11  and  O4_12 
REMARK    6  A    between atoms: C7_15  and  C8_16 
REMARK    7  A    between atoms: C8_16  and  C9_17 
REMARK    8  A    between atoms: C13_21  and  O5_22 
REMARK    9  A    between atoms: O5_22  and  C14_23 
REMARK   10  A    between atoms: C14_23  and  C15_24 
ROOT
HETATM    1  O1  UNL     1      37.983 166.080  58.526  1.00  0.00    -0.267 OA
HETATM    2  C1  UNL     1      37.167 165.298  57.990  1.00  0.00     0.257 A 
HETATM    3  N1  UNL     1      35.868 165.598  58.114  1.00  0.00    -0.275 N 
ATOM      4  H1  UNL     1      35.583 166.432  58.627  1.00  0.00     0.173 HD
HETATM    5  C2  UNL     1      34.940 164.800  57.562  1.00  0.00     0.331 A 
HETATM    6  O2  UNL     1      33.698 165.045  57.654  1.00  0.00    -0.246 OA
HETATM    7  N2  UNL     1      35.313 163.684  56.875  1.00  0.00    -0.287 N 
HETATM    8  C6  UNL     1      36.603 163.346  56.727  1.00  0.00     0.111 A 
HETATM    9  C7  UNL     1      37.568 164.179  57.303  1.00  0.00     0.030 A 
ENDROOT
BRANCH   9  10
HETATM   10  C8  UNL     1      39.002 163.814  57.152  1.00  0.00     0.084 C 
BRANCH  10  11
HETATM   11  C9  UNL     1      39.345 162.795  58.184  1.00  0.00    -0.051 A 
HETATM   12  C10 UNL     1      40.283 163.216  59.133  1.00  0.00     0.007 A 
HETATM   13  C11 UNL     1      40.636 162.318  60.116  1.00  0.00     0.003 A 
HETATM   14  C12 UNL     1      40.095 161.046  60.181  1.00  0.00     0.037 A 
HETATM   15  C13 UNL     1      39.174 160.633  59.248  1.00  0.00     0.069 A 
HETATM   16  C21 UNL     1      38.810 161.540  58.247  1.00  0.00     0.044 A 
BRANCH  15  17
HETATM   17  O5  UNL     1      38.586 159.398  59.232  1.00  0.00    -0.347 OA
BRANCH  17  18
HETATM   18  C14 UNL     1      37.739 158.919  58.229  1.00  0.00     0.214 C 
BRANCH  18  19
HETATM   19  C15 UNL     1      36.356 158.655  58.762  1.00  0.00    -0.034 A 
HETATM   20  C16 UNL     1      35.761 157.421  58.609  1.00  0.00     0.009 A 
HETATM   21  C17 UNL     1      34.495 157.133  59.070  1.00  0.00     0.001 A 
HETATM   22  C18 UNL     1      33.781 158.135  59.724  1.00  0.00     0.000 A 
HETATM   23  C19 UNL     1      34.356 159.396  59.895  1.00  0.00     0.001 A 
HETATM   24  C20 UNL     1      35.622 159.618  59.411  1.00  0.00     0.009 A 
ENDBRANCH  18  19
ENDBRANCH  17  18
ENDBRANCH  15  17
ENDBRANCH  10  11
ENDBRANCH   9  10
BRANCH   7  25
HETATM   25  C3  UNL     1      34.311 162.822  56.292  1.00  0.00     0.302 C 
BRANCH  25  26
HETATM   26  O3  UNL     1      34.027 161.757  57.106  1.00  0.00    -0.369 OA
BRANCH  26  27
HETATM   27  C4  UNL     1      32.707 161.387  57.003  1.00  0.00     0.196 C 
BRANCH  27  28
HETATM   28  C5  UNL     1      32.055 161.695  58.362  1.00  0.00     0.190 C 
BRANCH  28  29
HETATM   29  O4  UNL     1      31.301 162.847  58.176  1.00  0.00    -0.399 OA
ATOM     30  H4  UNL     1      30.570 162.784  58.779  1.00  0.00     0.209 HD
ENDBRANCH  28  29
ENDBRANCH  27  28
ENDBRANCH  26  27
ENDBRANCH  25  26
ENDBRANCH   7  25
TORSDOF 10
ENDMDL
