MODEL 10
REMARK VINA RESULT: -8.537991852      1.949      2.910
REMARK  10 active torsions:
REMARK  status: ('A' for Active; 'I' for Inactive)
REMARK    1  A    between atoms: N2_7  and  C3_8 
REMARK    2  A    between atoms: C3_8  and  O3_9 
REMARK    3  A    between atoms: O3_9  and  C4_10 
REMARK    4  A    between atoms: C4_10  and  C5_11 
REMARK    5  A    between atoms: C5_11  and  O4_12 
REMARK    6  A    between atoms: C7_15  and  C8_16 
REMARK    7  A    between atoms: C8_16  and  C9_17 
REMARK    8  A    between atoms: C13_21  and  O5_22 
REMARK    9  A    between atoms: O5_22  and  C14_23 
REMARK   10  A    between atoms: C14_23  and  C15_24 
ROOT
HETATM    1  O1  UNL     1      33.880 165.263  57.661  1.00  0.00    -0.267 OA
HETATM    2  C1  UNL     1      35.041 164.805  57.592  1.00  0.00     0.257 A 
HETATM    3  N1  UNL     1      36.023 165.560  58.100  1.00  0.00    -0.275 N 
ATOM      4  H1  UNL     1      35.807 166.465  58.518  1.00  0.00     0.173 HD
HETATM    5  C2  UNL     1      37.293 165.126  58.058  1.00  0.00     0.331 A 
HETATM    6  O2  UNL     1      38.255 165.809  58.528  1.00  0.00    -0.246 OA
HETATM    7  N2  UNL     1      37.590 163.919  57.501  1.00  0.00    -0.287 N 
HETATM    8  C6  UNL     1      36.636 163.130  56.980  1.00  0.00     0.111 A 
HETATM    9  C7  UNL     1      35.315 163.585  57.024  1.00  0.00     0.030 A 
ENDROOT
BRANCH   9  10
HETATM   10  C8  UNL     1      34.248 162.724  56.446  1.00  0.00     0.084 C 
BRANCH  10  11
HETATM   11  C9  UNL     1      33.662 161.895  57.537  1.00  0.00    -0.051 A 
HETATM   12  C10 UNL     1      32.308 162.139  57.795  1.00  0.00     0.007 A 
HETATM   13  C11 UNL     1      31.711 161.398  58.789  1.00  0.00     0.003 A 
HETATM   14  C12 UNL     1      32.401 160.445  59.517  1.00  0.00     0.037 A 
HETATM   15  C13 UNL     1      33.732 160.206  59.263  1.00  0.00     0.069 A 
HETATM   16  C21 UNL     1      34.346 160.955  58.254  1.00  0.00     0.044 A 
BRANCH  15  17
HETATM   17  O5  UNL     1      34.495 159.286  59.928  1.00  0.00    -0.347 OA
BRANCH  17  18
HETATM   18  C14 UNL     1      34.845 158.025  59.441  1.00  0.00     0.214 C 
BRANCH  18  19
HETATM   19  C15 UNL     1      33.644 157.293  58.903  1.00  0.00    -0.034 A 
HETATM   20  C16 UNL     1      33.458 157.137  57.546  1.00  0.00     0.009 A 
HETATM   21  C17 UNL     1      32.372 156.484  57.005  1.00  0.00     0.001 A 
HETATM   22  C18 UNL     1      31.417 155.953  57.870  1.00  0.00     0.000 A 
HETATM   23  C19 UNL     1      31.577 156.093  59.250  1.00  0.00     0.001 A 
HETATM   24  C20 UNL     1      32.682 156.757  59.724  1.00  0.00     0.009 A 
ENDBRANCH  18  19
ENDBRANCH  17  18
ENDBRANCH  15  17
ENDBRANCH  10  11
ENDBRANCH   9  10
BRANCH   7  25
HETATM   25  C3  UNL     1      38.959 163.461  57.448  1.00  0.00     0.302 C 
BRANCH  25  26
HETATM   26  O3  UNL     1      39.066 162.148  57.823  1.00  0.00    -0.369 OA
BRANCH  26  27
HETATM   27  C4  UNL     1      40.285 161.892  58.404  1.00  0.00     0.196 C 
BRANCH  27  28
HETATM   28  C5  UNL     1      40.000 161.138  59.715  1.00  0.00     0.190 C 
BRANCH  28  29
HETATM   29  O4  UNL     1      39.151 160.089  59.379  1.00  0.00    -0.399 OA
ATOM     30  H4  UNL     1      39.710 159.337  59.224  1.00  0.00     0.209 HD
ENDBRANCH  28  29
ENDBRANCH  27  28
ENDBRANCH  26  27
ENDBRANCH  25  26
ENDBRANCH   7  25
TORSDOF 10
ENDMDL
