MODEL 4
REMARK VINA RESULT: -8.791119104      2.807      5.973
REMARK  10 active torsions:
REMARK  status: ('A' for Active; 'I' for Inactive)
REMARK    1  A    between atoms: N2_7  and  C3_8 
REMARK    2  A    between atoms: C3_8  and  O3_9 
REMARK    3  A    between atoms: O3_9  and  C4_10 
REMARK    4  A    between atoms: C4_10  and  C5_11 
REMARK    5  A    between atoms: C5_11  and  O4_12 
REMARK    6  A    between atoms: C7_15  and  C8_16 
REMARK    7  A    between atoms: C8_16  and  C9_17 
REMARK    8  A    between atoms: C13_21  and  O5_22 
REMARK    9  A    between atoms: O5_22  and  C14_23 
REMARK   10  A    between atoms: C14_23  and  C15_24 
ROOT
HETATM    1  O1  UNL     1      33.778 165.234  57.590  1.00  0.00    -0.267 OA
HETATM    2  C1  UNL     1      34.953 164.805  57.568  1.00  0.00     0.257 A 
HETATM    3  N1  UNL     1      35.901 165.607  58.067  1.00  0.00    -0.275 N 
ATOM      4  H1  UNL     1      35.650 166.522  58.442  1.00  0.00     0.173 HD
HETATM    5  C2  UNL     1      37.182 165.206  58.073  1.00  0.00     0.331 A 
HETATM    6  O2  UNL     1      38.114 165.934  58.537  1.00  0.00    -0.246 OA
HETATM    7  N2  UNL     1      37.525 163.986  57.574  1.00  0.00    -0.287 N 
HETATM    8  C6  UNL     1      36.606 163.151  57.064  1.00  0.00     0.111 A 
HETATM    9  C7  UNL     1      35.272 163.570  57.058  1.00  0.00     0.030 A 
ENDROOT
BRANCH   9  10
HETATM   10  C8  UNL     1      34.244 162.658  56.491  1.00  0.00     0.084 C 
BRANCH  10  11
HETATM   11  C9  UNL     1      33.706 161.806  57.589  1.00  0.00    -0.051 A 
HETATM   12  C10 UNL     1      34.572 160.797  58.026  1.00  0.00     0.007 A 
HETATM   13  C11 UNL     1      34.131 159.982  59.043  1.00  0.00     0.003 A 
HETATM   14  C12 UNL     1      32.886 160.136  59.626  1.00  0.00     0.037 A 
HETATM   15  C13 UNL     1      32.035 161.127  59.197  1.00  0.00     0.069 A 
HETATM   16  C21 UNL     1      32.476 161.961  58.164  1.00  0.00     0.044 A 
BRANCH  15  17
HETATM   17  O5  UNL     1      30.789 161.356  59.712  1.00  0.00    -0.347 OA
BRANCH  17  18
HETATM   18  C14 UNL     1      29.613 161.460  58.966  1.00  0.00     0.214 C 
BRANCH  18  19
HETATM   19  C15 UNL     1      28.902 162.759  59.241  1.00  0.00    -0.034 A 
HETATM   20  C16 UNL     1      28.798 163.252  60.524  1.00  0.00     0.009 A 
HETATM   21  C17 UNL     1      28.151 164.429  60.828  1.00  0.00     0.001 A 
HETATM   22  C18 UNL     1      27.575 165.159  59.789  1.00  0.00     0.000 A 
HETATM   23  C19 UNL     1      27.664 164.687  58.478  1.00  0.00     0.001 A 
HETATM   24  C20 UNL     1      28.323 163.505  58.244  1.00  0.00     0.009 A 
ENDBRANCH  18  19
ENDBRANCH  17  18
ENDBRANCH  15  17
ENDBRANCH  10  11
ENDBRANCH   9  10
BRANCH   7  25
HETATM   25  C3  UNL     1      38.907 163.564  57.573  1.00  0.00     0.302 C 
BRANCH  25  26
HETATM   26  O3  UNL     1      39.016 162.200  57.521  1.00  0.00    -0.369 OA
BRANCH  26  27
HETATM   27  C4  UNL     1      39.788 161.720  58.553  1.00  0.00     0.196 C 
BRANCH  27  28
HETATM   28  C5  UNL     1      41.252 162.004  58.178  1.00  0.00     0.190 C 
BRANCH  28  29
HETATM   29  O4  UNL     1      41.617 161.016  57.271  1.00  0.00    -0.399 OA
ATOM     30  H4  UNL     1      42.348 160.554  57.664  1.00  0.00     0.209 HD
ENDBRANCH  28  29
ENDBRANCH  27  28
ENDBRANCH  26  27
ENDBRANCH  25  26
ENDBRANCH   7  25
TORSDOF 10
ENDMDL
