MODEL 9
REMARK VINA RESULT: -8.596750055      1.875      2.569
REMARK  10 active torsions:
REMARK  status: ('A' for Active; 'I' for Inactive)
REMARK    1  A    between atoms: N2_7  and  C3_8 
REMARK    2  A    between atoms: C3_8  and  O3_9 
REMARK    3  A    between atoms: O3_9  and  C4_10 
REMARK    4  A    between atoms: C4_10  and  C5_11 
REMARK    5  A    between atoms: C5_11  and  O4_12 
REMARK    6  A    between atoms: C7_15  and  C8_16 
REMARK    7  A    between atoms: C8_16  and  C9_17 
REMARK    8  A    between atoms: C13_21  and  O5_22 
REMARK    9  A    between atoms: O5_22  and  C14_23 
REMARK   10  A    between atoms: C14_23  and  C15_24 
ROOT
HETATM    1  O1  UNL     1      33.871 165.285  57.647  1.00  0.00    -0.267 OA
HETATM    2  C1  UNL     1      35.045 164.858  57.586  1.00  0.00     0.257 A 
HETATM    3  N1  UNL     1      36.002 165.638  58.103  1.00  0.00    -0.275 N 
ATOM      4  H1  UNL     1      35.759 166.536  58.521  1.00  0.00     0.173 HD
HETATM    5  C2  UNL     1      37.284 165.238  58.070  1.00  0.00     0.331 A 
HETATM    6  O2  UNL     1      38.223 165.945  58.547  1.00  0.00    -0.246 OA
HETATM    7  N2  UNL     1      37.617 164.040  57.513  1.00  0.00    -0.287 N 
HETATM    8  C6  UNL     1      36.689 163.227  56.984  1.00  0.00     0.111 A 
HETATM    9  C7  UNL     1      35.355 163.646  57.018  1.00  0.00     0.030 A 
ENDROOT
BRANCH   9  10
HETATM   10  C8  UNL     1      34.317 162.758  56.431  1.00  0.00     0.084 C 
BRANCH  10  11
HETATM   11  C9  UNL     1      33.726 161.931  57.521  1.00  0.00    -0.051 A 
HETATM   12  C10 UNL     1      32.377 162.190  57.787  1.00  0.00     0.007 A 
HETATM   13  C11 UNL     1      31.775 161.452  58.781  1.00  0.00     0.003 A 
HETATM   14  C12 UNL     1      32.457 160.487  59.500  1.00  0.00     0.037 A 
HETATM   15  C13 UNL     1      33.783 160.232  59.239  1.00  0.00     0.069 A 
HETATM   16  C21 UNL     1      34.402 160.978  58.229  1.00  0.00     0.044 A 
BRANCH  15  17
HETATM   17  O5  UNL     1      34.538 159.299  59.894  1.00  0.00    -0.347 OA
BRANCH  17  18
HETATM   18  C14 UNL     1      34.933 158.067  59.370  1.00  0.00     0.214 C 
BRANCH  18  19
HETATM   19  C15 UNL     1      33.756 157.298  58.831  1.00  0.00    -0.034 A 
HETATM   20  C16 UNL     1      32.803 156.775  59.677  1.00  0.00     0.009 A 
HETATM   21  C17 UNL     1      31.714 156.057  59.234  1.00  0.00     0.001 A 
HETATM   22  C18 UNL     1      31.566 155.852  57.863  1.00  0.00     0.000 A 
HETATM   23  C19 UNL     1      32.514 156.371  56.979  1.00  0.00     0.001 A 
HETATM   24  C20 UNL     1      33.577 157.076  57.486  1.00  0.00     0.009 A 
ENDBRANCH  18  19
ENDBRANCH  17  18
ENDBRANCH  15  17
ENDBRANCH  10  11
ENDBRANCH   9  10
BRANCH   7  25
HETATM   25  C3  UNL     1      38.998 163.619  57.470  1.00  0.00     0.302 C 
BRANCH  25  26
HETATM   26  O3  UNL     1      39.123 162.276  57.708  1.00  0.00    -0.369 OA
BRANCH  26  27
HETATM   27  C4  UNL     1      40.275 161.996  58.405  1.00  0.00     0.196 C 
BRANCH  27  28
HETATM   28  C5  UNL     1      40.905 163.349  58.776  1.00  0.00     0.190 C 
BRANCH  28  29
HETATM   29  O4  UNL     1      42.270 163.116  58.906  1.00  0.00    -0.399 OA
ATOM     30  H4  UNL     1      42.506 162.534  58.193  1.00  0.00     0.209 HD
ENDBRANCH  28  29
ENDBRANCH  27  28
ENDBRANCH  26  27
ENDBRANCH  25  26
ENDBRANCH   7  25
TORSDOF 10
ENDMDL
