MODEL 6
REMARK VINA RESULT: -6.840624620      0.895      1.367
REMARK  2 active torsions:
REMARK  status: ('A' for Active; 'I' for Inactive)
REMARK    1  A    between atoms: C2_3  and  O1_4 
REMARK    2  A    between atoms: C6_9  and  C7_10 
ROOT
HETATM    1  N1  UNL     1       7.487  29.102  20.497  1.00  0.00    -0.098 NA
HETATM    2  C1  UNL     1       7.113  30.473  20.354  1.00  0.00     0.096 A 
HETATM    3  C2  UNL     1       6.657  30.950  19.168  1.00  0.00     0.090 A 
HETATM    4  C3  UNL     1       6.310  32.292  19.100  1.00  0.00     0.038 A 
HETATM    5  C4  UNL     1       6.436  33.101  20.225  1.00  0.00     0.004 A 
HETATM    6  C5  UNL     1       6.903  32.581  21.416  1.00  0.00     0.020 A 
HETATM    7  C6  UNL     1       7.245  31.260  21.488  1.00  0.00     0.067 A 
ENDROOT
BRANCH   7   8
HETATM    8  C7  UNL     1       7.739  30.717  22.750  1.00  0.00     0.211 C 
HETATM    9  O2  UNL     1       8.333  29.611  22.780  1.00  0.00    -0.644 OA
HETATM   10  O3  UNL     1       7.584  31.378  23.962  1.00  0.00    -0.644 OA
ENDBRANCH   7   8
BRANCH   3  11
HETATM   11  O1  UNL     1       6.539  30.128  18.059  1.00  0.00    -0.359 OA
ATOM     12  H1  UNL     1       5.756  29.611  17.909  1.00  0.00     0.217 HD
ENDBRANCH   3  11
TORSDOF 2
ENDMDL
