MODEL 1
REMARK VINA RESULT: -7.599356250      0.000      0.000
REMARK  2 active torsions:
REMARK  status: ('A' for Active; 'I' for Inactive)
REMARK    1  A    between atoms: C2_3  and  O1_4 
REMARK    2  A    between atoms: C6_9  and  C7_10 
ROOT
HETATM    1  N1  UNL     1       7.996  28.774  21.438  1.00  0.00    -0.098 NA
HETATM    2  C1  UNL     1       7.439  29.909  20.773  1.00  0.00     0.096 A 
HETATM    3  C2  UNL     1       7.158  29.868  19.446  1.00  0.00     0.090 A 
HETATM    4  C3  UNL     1       6.617  31.006  18.864  1.00  0.00     0.038 A 
HETATM    5  C4  UNL     1       6.381  32.138  19.638  1.00  0.00     0.004 A 
HETATM    6  C5  UNL     1       6.679  32.143  20.986  1.00  0.00     0.020 A 
HETATM    7  C6  UNL     1       7.211  31.025  21.564  1.00  0.00     0.067 A 
ENDROOT
BRANCH   7   8
HETATM    8  C7  UNL     1       7.525  31.037  22.990  1.00  0.00     0.211 C 
HETATM    9  O2  UNL     1       7.163  31.997  23.715  1.00  0.00    -0.644 OA
HETATM   10  O3  UNL     1       8.223  30.010  23.612  1.00  0.00    -0.644 OA
ENDBRANCH   7   8
BRANCH   3  11
HETATM   11  O1  UNL     1       7.401  28.731  18.693  1.00  0.00    -0.359 OA
ATOM     12  H1  UNL     1       7.576  28.785  17.761  1.00  0.00     0.217 HD
ENDBRANCH   3  11
TORSDOF 2
ENDMDL
