MODEL 11
REMARK VINA RESULT: -5.831425855      1.539      2.043
REMARK  2 active torsions:
REMARK  status: ('A' for Active; 'I' for Inactive)
REMARK    1  A    between atoms: C2_3  and  O1_4 
REMARK    2  A    between atoms: C6_9  and  C7_10 
ROOT
HETATM    1  N1  UNL     1       8.259  30.071  22.700  1.00  0.00    -0.098 NA
HETATM    2  C1  UNL     1       7.746  30.049  21.366  1.00  0.00     0.096 A 
HETATM    3  C2  UNL     1       7.828  28.926  20.608  1.00  0.00     0.090 A 
HETATM    4  C3  UNL     1       7.309  28.975  19.322  1.00  0.00     0.038 A 
HETATM    5  C4  UNL     1       6.729  30.149  18.850  1.00  0.00     0.004 A 
HETATM    6  C5  UNL     1       6.663  31.271  19.650  1.00  0.00     0.020 A 
HETATM    7  C6  UNL     1       7.173  31.229  20.917  1.00  0.00     0.067 A 
ENDROOT
BRANCH   7   8
HETATM    8  C7  UNL     1       7.100  32.420  21.758  1.00  0.00     0.211 C 
HETATM    9  O2  UNL     1       7.028  33.563  21.242  1.00  0.00    -0.644 OA
HETATM   10  O3  UNL     1       7.105  32.358  23.146  1.00  0.00    -0.644 OA
ENDBRANCH   7   8
BRANCH   3  11
HETATM   11  O1  UNL     1       8.410  27.768  21.097  1.00  0.00    -0.359 OA
ATOM     12  H1  UNL     1       8.035  26.914  20.916  1.00  0.00     0.217 HD
ENDBRANCH   3  11
TORSDOF 2
ENDMDL
