MODEL 8
REMARK VINA RESULT: -7.003816947      2.967      8.356
REMARK  18 active torsions:
REMARK  status: ('A' for Active; 'I' for Inactive)
REMARK    1  A    between atoms: O1_2  and  C2_3 
REMARK    2  A    between atoms: C3_4  and  C4_5 
REMARK    3  A    between atoms: C4_5  and  O2_6 
REMARK    4  A    between atoms: C5_9  and  O4_10 
REMARK    5  A    between atoms: O4_10  and  C6_11 
REMARK    6  A    between atoms: C7_12  and  C8_13 
REMARK    7  A    between atoms: C8_13  and  O5_14 
REMARK    8  A    between atoms: C9_17  and  O7_18 
REMARK    9  A    between atoms: O7_18  and  C10_19 
REMARK   10  A    between atoms: C11_20  and  C12_21 
REMARK   11  A    between atoms: C12_21  and  O8_22 
REMARK   12  A    between atoms: N2_27  and  O9_29 
REMARK   13  A    between atoms: C14_31  and  O10_32 
REMARK   14  A    between atoms: C15_34  and  O11_35 
REMARK   15  A    between atoms: C16_37  and  O12_38 
REMARK   16  A    between atoms: C17_40  and  O13_41 
REMARK   17  A    between atoms: C18_43  and  O14_44 
REMARK   18  A    between atoms: C19_46  and  O15_47 
ROOT
HETATM    1  C6  UNL     1      13.855  15.802  38.368  1.00  0.00     0.187 C 
HETATM    2  C7  UNL     1      15.355  15.523  38.420  1.00  0.00     0.180 C 
HETATM    3  O6  UNL     1      15.925  15.527  37.182  1.00  0.00    -0.348 OA
HETATM    4  C9  UNL     1      15.065  15.296  36.118  1.00  0.00     0.292 C 
HETATM    5  C16 UNL     1      13.997  16.372  36.022  1.00  0.00     0.204 C 
HETATM    6  C17 UNL     1      13.692  16.948  37.395  1.00  0.00     0.183 C 
ENDROOT
BRANCH   4   7
HETATM    7  O7  UNL     1      15.778  15.244  34.946  1.00  0.00    -0.348 OA
BRANCH   7   8
HETATM    8  C10 UNL     1      15.670  14.035  34.274  1.00  0.00     0.181 C 
HETATM    9  C11 UNL     1      14.779  13.146  35.108  1.00  0.00     0.138 C 
HETATM   10  N1  UNL     1      15.146  11.753  35.084  1.00  0.00    -0.367 N 
HETATM   11  C13 UNL     1      16.492  11.429  35.309  1.00  0.00     0.129 C 
ATOM     12  H1  UNL     1      14.450  11.028  34.909  1.00  0.00     0.161 HD
HETATM   13  N2  UNL     1      16.855  10.251  35.619  1.00  0.00    -0.255 N 
HETATM   14  C14 UNL     1      17.480  12.519  35.172  1.00  0.00     0.218 C 
ATOM     15  H2  UNL     1      16.136   9.533  35.700  1.00  0.00     0.195 HD
HETATM   16  C15 UNL     1      16.970  13.370  34.019  1.00  0.00     0.185 C 
BRANCH   9  17
HETATM   17  C12 UNL     1      13.312  13.337  34.741  1.00  0.00     0.191 C 
BRANCH  17  18
HETATM   18  O8  UNL     1      13.199  13.994  33.536  1.00  0.00    -0.399 OA
ATOM     19  H8  UNL     1      13.076  13.372  32.828  1.00  0.00     0.209 HD
ENDBRANCH  17  18
ENDBRANCH   9  17
BRANCH  13  20
HETATM   20  O9  UNL     1      18.150   9.892  35.848  1.00  0.00    -0.288 OA
ATOM     21  H9  UNL     1      18.424   9.009  36.067  1.00  0.00     0.244 HD
ENDBRANCH  13  20
BRANCH  14  22
HETATM   22  O10 UNL     1      17.575  13.275  36.350  1.00  0.00    -0.385 OA
ATOM     23  H10 UNL     1      17.805  14.178  36.165  1.00  0.00     0.210 HD
ENDBRANCH  14  22
BRANCH  16  24
HETATM   24  O11 UNL     1      16.820  12.497  32.925  1.00  0.00    -0.390 OA
ATOM     25  H11 UNL     1      17.397  12.784  32.228  1.00  0.00     0.210 HD
ENDBRANCH  16  24
ENDBRANCH   7   8
ENDBRANCH   4   7
BRANCH   5  26
HETATM   26  O12 UNL     1      14.364  17.402  35.184  1.00  0.00    -0.388 OA
ATOM     27  H12 UNL     1      13.878  18.200  35.358  1.00  0.00     0.210 HD
ENDBRANCH   5  26
BRANCH   2  28
HETATM   28  C8  UNL     1      15.644  14.251  39.188  1.00  0.00     0.198 C 
BRANCH  28  29
HETATM   29  O5  UNL     1      15.789  14.634  40.535  1.00  0.00    -0.398 OA
ATOM     30  H5  UNL     1      16.624  14.281  40.819  1.00  0.00     0.209 HD
ENDBRANCH  28  29
ENDBRANCH   2  28
BRANCH   6  31
HETATM   31  O13 UNL     1      12.488  17.593  37.462  1.00  0.00    -0.390 OA
ATOM     32  H13 UNL     1      12.057  17.725  36.625  1.00  0.00     0.210 HD
ENDBRANCH   6  31
BRANCH   1  33
HETATM   33  O4  UNL     1      13.359  16.061  39.626  1.00  0.00    -0.348 OA
BRANCH  33  34
HETATM   34  C5  UNL     1      12.345  15.161  39.982  1.00  0.00     0.292 C 
HETATM   35  O3  UNL     1      12.581  14.694  41.299  1.00  0.00    -0.348 OA
HETATM   36  C3  UNL     1      12.970  15.817  42.021  1.00  0.00     0.179 C 
HETATM   37  C2  UNL     1      11.944  16.897  42.090  1.00  0.00     0.183 C 
HETATM   38  C19 UNL     1      11.356  17.246  40.728  1.00  0.00     0.183 C 
HETATM   39  C18 UNL     1      11.036  15.919  40.061  1.00  0.00     0.204 C 
BRANCH  36  40
HETATM   40  C4  UNL     1      13.207  15.331  43.458  1.00  0.00     0.198 C 
BRANCH  40  41
HETATM   41  O2  UNL     1      12.047  15.367  44.195  1.00  0.00    -0.398 OA
ATOM     42  H2  UNL     1      12.105  16.002  44.899  1.00  0.00     0.209 HD
ENDBRANCH  40  41
ENDBRANCH  36  40
BRANCH  37  43
HETATM   43  O1  UNL     1      12.597  18.064  42.530  1.00  0.00    -0.385 OA
HETATM   44  C1  UNL     1      11.910  18.649  43.571  1.00  0.00     0.202 C 
ENDBRANCH  37  43
BRANCH  38  45
HETATM   45  O15 UNL     1      10.216  18.008  40.928  1.00  0.00    -0.390 OA
ATOM     46  H15 UNL     1      10.119  18.600  40.192  1.00  0.00     0.210 HD
ENDBRANCH  38  45
BRANCH  39  47
HETATM   47  O14 UNL     1      10.386  16.043  38.865  1.00  0.00    -0.388 OA
ATOM     48  H14 UNL     1       9.548  16.488  38.921  1.00  0.00     0.210 HD
ENDBRANCH  39  47
ENDBRANCH  33  34
ENDBRANCH   1  33
TORSDOF 18
ENDMDL
