MODEL 7
REMARK VINA RESULT: -7.088536807      3.550      8.700
REMARK  18 active torsions:
REMARK  status: ('A' for Active; 'I' for Inactive)
REMARK    1  A    between atoms: O1_2  and  C2_3 
REMARK    2  A    between atoms: C3_4  and  C4_5 
REMARK    3  A    between atoms: C4_5  and  O2_6 
REMARK    4  A    between atoms: C5_9  and  O4_10 
REMARK    5  A    between atoms: O4_10  and  C6_11 
REMARK    6  A    between atoms: C7_12  and  C8_13 
REMARK    7  A    between atoms: C8_13  and  O5_14 
REMARK    8  A    between atoms: C9_17  and  O7_18 
REMARK    9  A    between atoms: O7_18  and  C10_19 
REMARK   10  A    between atoms: C11_20  and  C12_21 
REMARK   11  A    between atoms: C12_21  and  O8_22 
REMARK   12  A    between atoms: N2_27  and  O9_29 
REMARK   13  A    between atoms: C14_31  and  O10_32 
REMARK   14  A    between atoms: C15_34  and  O11_35 
REMARK   15  A    between atoms: C16_37  and  O12_38 
REMARK   16  A    between atoms: C17_40  and  O13_41 
REMARK   17  A    between atoms: C18_43  and  O14_44 
REMARK   18  A    between atoms: C19_46  and  O15_47 
ROOT
HETATM    1  C6  UNL     1      14.210  15.399  37.469  1.00  0.00     0.187 C 
HETATM    2  C7  UNL     1      15.617  15.216  38.032  1.00  0.00     0.180 C 
HETATM    3  O6  UNL     1      16.491  14.743  37.098  1.00  0.00    -0.348 OA
HETATM    4  C9  UNL     1      15.924  14.076  36.021  1.00  0.00     0.292 C 
HETATM    5  C16 UNL     1      15.006  14.987  35.223  1.00  0.00     0.204 C 
HETATM    6  C17 UNL     1      14.399  16.053  36.119  1.00  0.00     0.183 C 
ENDROOT
BRANCH   4   7
HETATM    7  O7  UNL     1      16.913  13.584  35.206  1.00  0.00    -0.348 OA
BRANCH   7   8
HETATM    8  C10 UNL     1      17.847  12.799  35.867  1.00  0.00     0.181 C 
HETATM    9  C11 UNL     1      18.737  12.190  34.810  1.00  0.00     0.138 C 
HETATM   10  N1  UNL     1      19.179  10.852  35.109  1.00  0.00    -0.367 N 
HETATM   11  C13 UNL     1      18.211   9.921  35.514  1.00  0.00     0.129 C 
ATOM     12  H1  UNL     1      20.162  10.591  35.028  1.00  0.00     0.161 HD
HETATM   13  N2  UNL     1      18.434   8.670  35.493  1.00  0.00    -0.255 N 
HETATM   14  C14 UNL     1      16.910  10.455  35.970  1.00  0.00     0.218 C 
ATOM     15  H2  UNL     1      19.347   8.351  35.171  1.00  0.00     0.195 HD
HETATM   16  C15 UNL     1      17.251  11.738  36.713  1.00  0.00     0.185 C 
BRANCH   9  17
HETATM   17  C12 UNL     1      19.916  13.102  34.491  1.00  0.00     0.191 C 
BRANCH  17  18
HETATM   18  O8  UNL     1      20.699  13.286  35.610  1.00  0.00    -0.399 OA
ATOM     19  H8  UNL     1      20.801  12.467  36.082  1.00  0.00     0.209 HD
ENDBRANCH  17  18
ENDBRANCH   9  17
BRANCH  13  20
HETATM   20  O9  UNL     1      17.523   7.731  35.875  1.00  0.00    -0.288 OA
ATOM     21  H9  UNL     1      17.545   6.825  35.589  1.00  0.00     0.244 HD
ENDBRANCH  13  20
BRANCH  14  22
HETATM   22  O10 UNL     1      16.055  10.714  34.888  1.00  0.00    -0.385 OA
ATOM     23  H10 UNL     1      15.208  11.026  35.182  1.00  0.00     0.210 HD
ENDBRANCH  14  22
BRANCH  16  24
HETATM   24  O11 UNL     1      18.182  11.379  37.706  1.00  0.00    -0.390 OA
ATOM     25  H11 UNL     1      18.928  10.968  37.286  1.00  0.00     0.210 HD
ENDBRANCH  16  24
ENDBRANCH   7   8
ENDBRANCH   4   7
BRANCH   5  26
HETATM   26  O12 UNL     1      15.660  15.607  34.181  1.00  0.00    -0.388 OA
ATOM     27  H12 UNL     1      16.446  16.059  34.465  1.00  0.00     0.210 HD
ENDBRANCH   5  26
BRANCH   2  28
HETATM   28  C8  UNL     1      15.595  14.368  39.285  1.00  0.00     0.198 C 
BRANCH  28  29
HETATM   29  O5  UNL     1      15.773  15.259  40.361  1.00  0.00    -0.398 OA
ATOM     30  H5  UNL     1      16.268  15.992  40.015  1.00  0.00     0.209 HD
ENDBRANCH  28  29
ENDBRANCH   2  28
BRANCH   6  31
HETATM   31  O13 UNL     1      13.274  16.629  35.596  1.00  0.00    -0.390 OA
ATOM     32  H13 UNL     1      12.693  16.032  35.140  1.00  0.00     0.210 HD
ENDBRANCH   6  31
BRANCH   1  33
HETATM   33  O4  UNL     1      13.424  16.123  38.337  1.00  0.00    -0.348 OA
BRANCH  33  34
HETATM   34  C5  UNL     1      12.133  15.587  38.441  1.00  0.00     0.292 C 
HETATM   35  O3  UNL     1      11.973  15.011  39.725  1.00  0.00    -0.348 OA
HETATM   36  C3  UNL     1      12.559  15.912  40.607  1.00  0.00     0.179 C 
HETATM   37  C2  UNL     1      11.928  17.262  40.625  1.00  0.00     0.183 C 
HETATM   38  C19 UNL     1      11.731  17.845  39.231  1.00  0.00     0.183 C 
HETATM   39  C18 UNL     1      11.135  16.725  38.394  1.00  0.00     0.204 C 
BRANCH  36  40
HETATM   40  C4  UNL     1      12.373  15.311  42.007  1.00  0.00     0.198 C 
BRANCH  40  41
HETATM   41  O2  UNL     1      13.570  15.228  42.678  1.00  0.00    -0.398 OA
ATOM     42  H2  UNL     1      13.649  15.914  43.330  1.00  0.00     0.209 HD
ENDBRANCH  40  41
ENDBRANCH  36  40
BRANCH  37  43
HETATM   43  O1  UNL     1      12.825  18.132  41.274  1.00  0.00    -0.385 OA
HETATM   44  C1  UNL     1      12.307  18.567  42.474  1.00  0.00     0.202 C 
ENDBRANCH  37  43
BRANCH  38  45
HETATM   45  O15 UNL     1      10.870  18.927  39.328  1.00  0.00    -0.390 OA
ATOM     46  H15 UNL     1      11.054  19.520  38.609  1.00  0.00     0.210 HD
ENDBRANCH  38  45
BRANCH  39  47
HETATM   47  O14 UNL     1      10.779  17.108  37.130  1.00  0.00    -0.388 OA
ATOM     48  H14 UNL     1      11.514  17.293  36.556  1.00  0.00     0.210 HD
ENDBRANCH  39  47
ENDBRANCH  33  34
ENDBRANCH   1  33
TORSDOF 18
ENDMDL
