MODEL 6
REMARK VINA RESULT: -7.121068026      3.465      8.902
REMARK  18 active torsions:
REMARK  status: ('A' for Active; 'I' for Inactive)
REMARK    1  A    between atoms: O1_2  and  C2_3 
REMARK    2  A    between atoms: C3_4  and  C4_5 
REMARK    3  A    between atoms: C4_5  and  O2_6 
REMARK    4  A    between atoms: C5_9  and  O4_10 
REMARK    5  A    between atoms: O4_10  and  C6_11 
REMARK    6  A    between atoms: C7_12  and  C8_13 
REMARK    7  A    between atoms: C8_13  and  O5_14 
REMARK    8  A    between atoms: C9_17  and  O7_18 
REMARK    9  A    between atoms: O7_18  and  C10_19 
REMARK   10  A    between atoms: C11_20  and  C12_21 
REMARK   11  A    between atoms: C12_21  and  O8_22 
REMARK   12  A    between atoms: N2_27  and  O9_29 
REMARK   13  A    between atoms: C14_31  and  O10_32 
REMARK   14  A    between atoms: C15_34  and  O11_35 
REMARK   15  A    between atoms: C16_37  and  O12_38 
REMARK   16  A    between atoms: C17_40  and  O13_41 
REMARK   17  A    between atoms: C18_43  and  O14_44 
REMARK   18  A    between atoms: C19_46  and  O15_47 
ROOT
HETATM    1  C6  UNL     1      14.210  15.430  38.566  1.00  0.00     0.187 C 
HETATM    2  C7  UNL     1      15.693  15.315  38.909  1.00  0.00     0.180 C 
HETATM    3  O6  UNL     1      16.462  15.089  37.805  1.00  0.00    -0.348 OA
HETATM    4  C9  UNL     1      15.807  14.539  36.712  1.00  0.00     0.292 C 
HETATM    5  C16 UNL     1      14.710  15.458  36.201  1.00  0.00     0.204 C 
HETATM    6  C17 UNL     1      14.147  16.301  37.332  1.00  0.00     0.183 C 
ENDROOT
BRANCH   4   7
HETATM    7  O7  UNL     1      16.708  14.288  35.708  1.00  0.00    -0.348 OA
BRANCH   7   8
HETATM    8  C10 UNL     1      17.198  12.990  35.703  1.00  0.00     0.181 C 
HETATM    9  C11 UNL     1      18.087  12.859  34.490  1.00  0.00     0.138 C 
HETATM   10  N1  UNL     1      18.040  11.566  33.859  1.00  0.00    -0.367 N 
HETATM   11  C13 UNL     1      16.777  11.018  33.587  1.00  0.00     0.129 C 
ATOM     12  H1  UNL     1      18.895  11.065  33.618  1.00  0.00     0.161 HD
HETATM   13  N2  UNL     1      16.624  10.058  32.769  1.00  0.00    -0.255 N 
HETATM   14  C14 UNL     1      15.620  11.606  34.296  1.00  0.00     0.218 C 
ATOM     15  H2  UNL     1      17.452   9.686  32.306  1.00  0.00     0.195 HD
HETATM   16  C15 UNL     1      16.142  11.949  35.683  1.00  0.00     0.185 C 
BRANCH   9  17
HETATM   17  C12 UNL     1      19.521  13.264  34.813  1.00  0.00     0.191 C 
BRANCH  17  18
HETATM   18  O8  UNL     1      19.970  12.593  35.930  1.00  0.00    -0.399 OA
ATOM     19  H8  UNL     1      20.283  13.209  36.583  1.00  0.00     0.209 HD
ENDBRANCH  17  18
ENDBRANCH   9  17
BRANCH  13  20
HETATM   20  O9  UNL     1      15.417   9.497  32.474  1.00  0.00    -0.288 OA
ATOM     21  H9  UNL     1      15.085   8.709  32.888  1.00  0.00     0.244 HD
ENDBRANCH  13  20
BRANCH  14  22
HETATM   22  O10 UNL     1      15.147  12.753  33.640  1.00  0.00    -0.385 OA
ATOM     23  H10 UNL     1      14.357  13.086  34.050  1.00  0.00     0.210 HD
ENDBRANCH  14  22
BRANCH  16  24
HETATM   24  O11 UNL     1      16.677  10.757  36.205  1.00  0.00    -0.390 OA
ATOM     25  H11 UNL     1      16.214  10.544  37.006  1.00  0.00     0.210 HD
ENDBRANCH  16  24
ENDBRANCH   7   8
ENDBRANCH   4   7
BRANCH   5  26
HETATM   26  O12 UNL     1      15.153  16.298  35.203  1.00  0.00    -0.388 OA
ATOM     27  H12 UNL     1      14.466  16.869  34.880  1.00  0.00     0.210 HD
ENDBRANCH   5  26
BRANCH   2  28
HETATM   28  C8  UNL     1      15.922  14.286  39.995  1.00  0.00     0.198 C 
BRANCH  28  29
HETATM   29  O5  UNL     1      15.766  14.969  41.216  1.00  0.00    -0.398 OA
ATOM     30  H5  UNL     1      16.220  14.448  41.868  1.00  0.00     0.209 HD
ENDBRANCH  28  29
ENDBRANCH   2  28
BRANCH   6  31
HETATM   31  O13 UNL     1      12.914  16.827  37.061  1.00  0.00    -0.390 OA
ATOM     32  H13 UNL     1      12.893  17.446  36.340  1.00  0.00     0.210 HD
ENDBRANCH   6  31
BRANCH   1  33
HETATM   33  O4  UNL     1      13.496  15.923  39.637  1.00  0.00    -0.348 OA
BRANCH  33  34
HETATM   34  C5  UNL     1      12.420  15.089  39.973  1.00  0.00     0.292 C 
HETATM   35  O3  UNL     1      12.551  14.686  41.324  1.00  0.00    -0.348 OA
HETATM   36  C3  UNL     1      12.948  15.828  42.011  1.00  0.00     0.179 C 
HETATM   37  C2  UNL     1      11.973  16.955  41.958  1.00  0.00     0.183 C 
HETATM   38  C19 UNL     1      11.487  17.255  40.544  1.00  0.00     0.183 C 
HETATM   39  C18 UNL     1      11.147  15.908  39.928  1.00  0.00     0.204 C 
BRANCH  36  40
HETATM   40  C4  UNL     1      13.072  15.411  43.483  1.00  0.00     0.198 C 
BRANCH  40  41
HETATM   41  O2  UNL     1      11.858  15.476  44.124  1.00  0.00    -0.398 OA
ATOM     42  H2  UNL     1      11.880  16.096  44.843  1.00  0.00     0.209 HD
ENDBRANCH  40  41
ENDBRANCH  36  40
BRANCH  37  43
HETATM   43  O1  UNL     1      12.652  18.114  42.377  1.00  0.00    -0.385 OA
HETATM   44  C1  UNL     1      12.006  18.705  43.440  1.00  0.00     0.202 C 
ENDBRANCH  37  43
BRANCH  38  45
HETATM   45  O15 UNL     1      10.375  18.076  40.630  1.00  0.00    -0.390 OA
ATOM     46  H15 UNL     1      10.233  18.477  39.781  1.00  0.00     0.210 HD
ENDBRANCH  38  45
BRANCH  39  47
HETATM   47  O14 UNL     1      10.578  15.996  38.688  1.00  0.00    -0.388 OA
ATOM     48  H14 UNL     1       9.831  15.423  38.559  1.00  0.00     0.210 HD
ENDBRANCH  39  47
ENDBRANCH  33  34
ENDBRANCH   1  33
TORSDOF 18
ENDMDL
