MODEL 1
REMARK VINA RESULT: -8.960590641      0.000      0.000
REMARK  10 active torsions:
REMARK  status: ('A' for Active; 'I' for Inactive)
REMARK    1  A    between atoms: N5_13  and  C6_14 
REMARK    2  A    between atoms: C7_16  and  C8_17 
REMARK    3  A    between atoms: C8_17  and  O2_18 
REMARK    4  A    between atoms: O2_18  and  P1_19 
REMARK    5  A    between atoms: P1_19  and  O5_22 
REMARK    6  A    between atoms: O5_22  and  P2_23 
REMARK    7  A    between atoms: P2_23  and  N6_26 
REMARK    8  A    between atoms: N6_26  and  P3_28 
REMARK    9  A    between atoms: C9_32  and  O11_33 
REMARK   10  A    between atoms: C10_35  and  O12_36 
ROOT
HETATM    1  C6  UNL     1      59.968  -1.372  71.490  1.00  0.00     0.262 C 
HETATM    2  O1  UNL     1      60.980  -2.271  71.795  1.00  0.00    -0.353 OA
HETATM    3  C7  UNL     1      62.085  -1.453  71.930  1.00  0.00     0.180 C 
HETATM    4  C9  UNL     1      61.598  -0.428  72.933  1.00  0.00     0.182 C 
HETATM    5  C10 UNL     1      60.187  -0.168  72.410  1.00  0.00     0.198 C 
ENDROOT
BRANCH   3   6
HETATM    6  C8  UNL     1      63.289  -2.192  72.472  1.00  0.00     0.216 C 
BRANCH   6   7
HETATM    7  O2  UNL     1      63.757  -3.061  71.520  1.00  0.00    -0.287 OA
BRANCH   7   8
HETATM    8  P1  UNL     1      65.144  -2.397  70.820  1.00  0.00     0.417 P 
HETATM    9  O3  UNL     1      65.832  -1.578  71.886  1.00  0.00    -0.624 OA
HETATM   10  O4  UNL     1      64.663  -1.427  69.522  1.00  0.00    -0.624 OA
BRANCH   8  11
HETATM   11  O5  UNL     1      66.111  -3.687  70.307  1.00  0.00    -0.186 OA
BRANCH  11  12
HETATM   12  P2  UNL     1      66.246  -4.748  71.640  1.00  0.00     0.379 P 
HETATM   13  O6  UNL     1      66.727  -4.039  72.864  1.00  0.00    -0.629 OA
HETATM   14  O7  UNL     1      67.352  -5.957  71.157  1.00  0.00    -0.629 OA
BRANCH  12  15
HETATM   15  N6  UNL     1      64.703  -5.525  71.871  1.00  0.00    -0.218 N 
ATOM     16  H6  UNL     1      63.828  -5.171  71.483  1.00  0.00     0.179 HD
BRANCH  15  17
HETATM   17  P3  UNL     1      64.814  -6.968  72.832  1.00  0.00     0.381 P 
HETATM   18  O8  UNL     1      65.980  -6.943  73.791  1.00  0.00    -0.622 OA
HETATM   19  O9  UNL     1      64.924  -8.359  71.846  1.00  0.00    -0.622 OA
HETATM   20  O10 UNL     1      63.382  -7.132  73.737  1.00  0.00    -0.622 OA
ENDBRANCH  15  17
ENDBRANCH  12  15
ENDBRANCH  11  12
ENDBRANCH   8  11
ENDBRANCH   7   8
ENDBRANCH   6   7
ENDBRANCH   3   6
BRANCH   4  21
HETATM   21  O11 UNL     1      62.375   0.717  72.901  1.00  0.00    -0.390 OA
ATOM     22  H11 UNL     1      62.667   0.961  73.771  1.00  0.00     0.210 HD
ENDBRANCH   4  21
BRANCH   1  23
HETATM   23  N5  UNL     1      58.652  -1.937  71.719  1.00  0.00    -0.297 N 
HETATM   24  C3  UNL     1      57.799  -2.313  70.731  1.00  0.00     0.142 A 
HETATM   25  N3  UNL     1      57.866  -2.296  69.387  1.00  0.00    -0.336 N 
HETATM   26  C4  UNL     1      56.644  -2.805  71.313  1.00  0.00     0.119 A 
HETATM   27  C2  UNL     1      56.881  -2.727  68.583  1.00  0.00     0.183 A 
ATOM     28  H3  UNL     1      58.716  -1.934  68.953  1.00  0.00     0.168 HD
HETATM   29  N2  UNL     1      55.756  -3.207  69.155  1.00  0.00    -0.339 N 
HETATM   30  C1  UNL     1      55.631  -3.249  70.490  1.00  0.00     0.148 A 
ATOM     31  H2  UNL     1      54.993  -3.541  68.565  1.00  0.00     0.167 HD
HETATM   32  N1  UNL     1      54.425  -3.763  71.037  1.00  0.00    -0.080 NA
HETATM   33  N4  UNL     1      56.813  -2.722  72.637  1.00  0.00    -0.346 N 
HETATM   34  C5  UNL     1      58.035  -2.193  72.885  1.00  0.00     0.188 A 
ATOM     35  H4  UNL     1      56.135  -3.008  73.343  1.00  0.00     0.167 HD
ENDBRANCH   1  23
BRANCH   5  36
HETATM   36  O12 UNL     1      60.215   1.003  71.674  1.00  0.00    -0.388 OA
ATOM     37  H12 UNL     1      60.722   1.666  72.126  1.00  0.00     0.210 HD
ENDBRANCH   5  36
TORSDOF 10
ENDMDL
