MODEL 2
REMARK VINA RESULT: -8.923097448      1.604      2.253
REMARK  10 active torsions:
REMARK  status: ('A' for Active; 'I' for Inactive)
REMARK    1  A    between atoms: N5_13  and  C6_14 
REMARK    2  A    between atoms: C7_16  and  C8_17 
REMARK    3  A    between atoms: C8_17  and  O2_18 
REMARK    4  A    between atoms: O2_18  and  P1_19 
REMARK    5  A    between atoms: P1_19  and  O5_22 
REMARK    6  A    between atoms: O5_22  and  P2_23 
REMARK    7  A    between atoms: P2_23  and  N6_26 
REMARK    8  A    between atoms: N6_26  and  P3_28 
REMARK    9  A    between atoms: C9_32  and  O11_33 
REMARK   10  A    between atoms: C10_35  and  O12_36 
ROOT
HETATM    1  C6  UNL     1      60.269  -1.098  71.057  1.00  0.00     0.262 C 
HETATM    2  O1  UNL     1      61.199  -1.335  72.058  1.00  0.00    -0.353 OA
HETATM    3  C7  UNL     1      62.144  -0.352  71.837  1.00  0.00     0.180 C 
HETATM    4  C9  UNL     1      61.295   0.902  71.817  1.00  0.00     0.182 C 
HETATM    5  C10 UNL     1      60.101   0.423  70.994  1.00  0.00     0.198 C 
ENDROOT
BRANCH   3   6
HETATM    6  C8  UNL     1      63.171  -0.277  72.946  1.00  0.00     0.216 C 
BRANCH   6   7
HETATM    7  O2  UNL     1      64.384   0.087  72.419  1.00  0.00    -0.287 OA
BRANCH   7   8
HETATM    8  P1  UNL     1      65.348  -1.293  72.285  1.00  0.00     0.417 P 
HETATM    9  O3  UNL     1      64.945  -2.228  73.401  1.00  0.00    -0.624 OA
HETATM   10  O4  UNL     1      66.964  -0.822  72.441  1.00  0.00    -0.624 OA
BRANCH   8  11
HETATM   11  O5  UNL     1      65.042  -1.972  70.766  1.00  0.00    -0.186 OA
BRANCH  11  12
HETATM   12  P2  UNL     1      65.631  -3.574  70.826  1.00  0.00     0.379 P 
HETATM   13  O6  UNL     1      66.010  -4.075  69.470  1.00  0.00    -0.629 OA
HETATM   14  O7  UNL     1      64.365  -4.506  71.493  1.00  0.00    -0.629 OA
BRANCH  12  15
HETATM   15  N6  UNL     1      66.956  -3.621  71.959  1.00  0.00    -0.218 N 
ATOM     16  H6  UNL     1      67.399  -2.788  72.345  1.00  0.00     0.179 HD
BRANCH  15  17
HETATM   17  P3  UNL     1      67.441  -5.241  72.357  1.00  0.00     0.381 P 
HETATM   18  O8  UNL     1      66.568  -5.869  73.416  1.00  0.00    -0.622 OA
HETATM   19  O9  UNL     1      69.071  -5.288  72.870  1.00  0.00    -0.622 OA
HETATM   20  O10 UNL     1      67.351  -6.199  70.953  1.00  0.00    -0.622 OA
ENDBRANCH  15  17
ENDBRANCH  12  15
ENDBRANCH  11  12
ENDBRANCH   8  11
ENDBRANCH   7   8
ENDBRANCH   6   7
ENDBRANCH   3   6
BRANCH   4  21
HETATM   21  O11 UNL     1      61.957   1.948  71.199  1.00  0.00    -0.390 OA
ATOM     22  H11 UNL     1      62.594   1.631  70.570  1.00  0.00     0.210 HD
ENDBRANCH   4  21
BRANCH   1  23
HETATM   23  N5  UNL     1      58.992  -1.725  71.341  1.00  0.00    -0.297 N 
HETATM   24  C3  UNL     1      58.102  -2.109  70.390  1.00  0.00     0.142 A 
HETATM   25  N3  UNL     1      58.093  -2.053  69.046  1.00  0.00    -0.336 N 
HETATM   26  C4  UNL     1      57.002  -2.667  71.020  1.00  0.00     0.119 A 
HETATM   27  C2  UNL     1      57.082  -2.504  68.285  1.00  0.00     0.183 A 
ATOM     28  H3  UNL     1      58.901  -1.644  68.577  1.00  0.00     0.168 HD
HETATM   29  N2  UNL     1      56.012  -3.047  68.902  1.00  0.00    -0.339 N 
HETATM   30  C1  UNL     1      55.964  -3.131  70.241  1.00  0.00     0.148 A 
ATOM     31  H2  UNL     1      55.232  -3.397  68.346  1.00  0.00     0.167 HD
HETATM   32  N1  UNL     1      54.813  -3.711  70.837  1.00  0.00    -0.080 NA
HETATM   33  N4  UNL     1      57.242  -2.612  72.335  1.00  0.00    -0.346 N 
HETATM   34  C5  UNL     1      58.452  -2.038  72.531  1.00  0.00     0.188 A 
ATOM     35  H4  UNL     1      56.616  -2.947  73.067  1.00  0.00     0.167 HD
ENDBRANCH   1  23
BRANCH   5  36
HETATM   36  O12 UNL     1      60.271   0.874  69.697  1.00  0.00    -0.388 OA
ATOM     37  H12 UNL     1      61.119   0.609  69.362  1.00  0.00     0.210 HD
ENDBRANCH   5  36
TORSDOF 10
ENDMDL
