MODEL 3
REMARK VINA RESULT: -8.889602086      1.367      2.311
REMARK  10 active torsions:
REMARK  status: ('A' for Active; 'I' for Inactive)
REMARK    1  A    between atoms: N5_13  and  C6_14 
REMARK    2  A    between atoms: C7_16  and  C8_17 
REMARK    3  A    between atoms: C8_17  and  O2_18 
REMARK    4  A    between atoms: O2_18  and  P1_19 
REMARK    5  A    between atoms: P1_19  and  O5_22 
REMARK    6  A    between atoms: O5_22  and  P2_23 
REMARK    7  A    between atoms: P2_23  and  N6_26 
REMARK    8  A    between atoms: N6_26  and  P3_28 
REMARK    9  A    between atoms: C9_32  and  O11_33 
REMARK   10  A    between atoms: C10_35  and  O12_36 
ROOT
HETATM    1  C6  UNL     1      59.724  -1.414  70.261  1.00  0.00     0.262 C 
HETATM    2  O1  UNL     1      60.384  -1.774  71.426  1.00  0.00    -0.353 OA
HETATM    3  C7  UNL     1      61.444  -0.889  71.463  1.00  0.00     0.180 C 
HETATM    4  C9  UNL     1      60.743   0.447  71.323  1.00  0.00     0.182 C 
HETATM    5  C10 UNL     1      59.719   0.117  70.239  1.00  0.00     0.198 C 
ENDROOT
BRANCH   3   6
HETATM    6  C8  UNL     1      62.205  -0.951  72.769  1.00  0.00     0.216 C 
BRANCH   6   7
HETATM    7  O2  UNL     1      63.464  -0.440  72.588  1.00  0.00    -0.287 OA
BRANCH   7   8
HETATM    8  P1  UNL     1      64.591  -1.649  72.940  1.00  0.00     0.417 P 
HETATM    9  O3  UNL     1      63.880  -2.694  73.767  1.00  0.00    -0.624 OA
HETATM   10  O4  UNL     1      65.860  -0.946  73.808  1.00  0.00    -0.624 OA
BRANCH   8  11
HETATM   11  O5  UNL     1      65.123  -2.281  71.464  1.00  0.00    -0.186 OA
BRANCH  11  12
HETATM   12  P2  UNL     1      65.814  -3.805  71.813  1.00  0.00     0.379 P 
HETATM   13  O6  UNL     1      66.825  -3.715  72.909  1.00  0.00    -0.629 OA
HETATM   14  O7  UNL     1      66.533  -4.329  70.356  1.00  0.00    -0.629 OA
BRANCH  12  15
HETATM   15  N6  UNL     1      64.519  -4.915  72.176  1.00  0.00    -0.218 N 
ATOM     16  H6  UNL     1      63.540  -4.638  72.243  1.00  0.00     0.179 HD
BRANCH  15  17
HETATM   17  P3  UNL     1      65.077  -6.543  72.410  1.00  0.00     0.381 P 
HETATM   18  O8  UNL     1      66.380  -6.612  73.168  1.00  0.00    -0.622 OA
HETATM   19  O9  UNL     1      65.249  -7.357  70.916  1.00  0.00    -0.622 OA
HETATM   20  O10 UNL     1      63.901  -7.401  73.291  1.00  0.00    -0.622 OA
ENDBRANCH  15  17
ENDBRANCH  12  15
ENDBRANCH  11  12
ENDBRANCH   8  11
ENDBRANCH   7   8
ENDBRANCH   6   7
ENDBRANCH   3   6
BRANCH   4  21
HETATM   21  O11 UNL     1      61.621   1.436  70.916  1.00  0.00    -0.390 OA
ATOM     22  H11 UNL     1      61.425   2.266  71.333  1.00  0.00     0.210 HD
ENDBRANCH   4  21
BRANCH   1  23
HETATM   23  N5  UNL     1      58.362  -1.913  70.231  1.00  0.00    -0.297 N 
HETATM   24  C3  UNL     1      57.520  -1.900  71.297  1.00  0.00     0.142 A 
HETATM   25  N3  UNL     1      57.637  -1.481  72.570  1.00  0.00    -0.336 N 
HETATM   26  C4  UNL     1      56.312  -2.451  70.907  1.00  0.00     0.119 A 
HETATM   27  C2  UNL     1      56.652  -1.566  73.479  1.00  0.00     0.183 A 
ATOM     28  H3  UNL     1      58.526  -1.074  72.862  1.00  0.00     0.168 HD
HETATM   29  N2  UNL     1      55.475  -2.104  73.095  1.00  0.00    -0.339 N 
HETATM   30  C1  UNL     1      55.299  -2.539  71.838  1.00  0.00     0.148 A 
ATOM     31  H2  UNL     1      54.711  -2.179  73.768  1.00  0.00     0.167 HD
HETATM   32  N1  UNL     1      54.040  -3.096  71.490  1.00  0.00    -0.080 NA
HETATM   33  N4  UNL     1      56.438  -2.787  69.619  1.00  0.00    -0.346 N 
HETATM   34  C5  UNL     1      57.686  -2.460  69.206  1.00  0.00     0.188 A 
ATOM     35  H4  UNL     1      55.715  -3.217  69.042  1.00  0.00     0.167 HD
ENDBRANCH   1  23
BRANCH   5  36
HETATM   36  O12 UNL     1      60.211   0.584  69.034  1.00  0.00    -0.388 OA
ATOM     37  H12 UNL     1      60.353   1.523  69.075  1.00  0.00     0.210 HD
ENDBRANCH   5  36
TORSDOF 10
ENDMDL
