MODEL 13
REMARK VINA RESULT: -9.252052546      1.079      1.425
REMARK  3 active torsions:
REMARK  status: ('A' for Active; 'I' for Inactive)
REMARK    1  A    between atoms: O1_1  and  C1_3 
REMARK    2  A    between atoms: C5_9  and  C6_10 
REMARK    3  A    between atoms: C11_15  and  O2_16 
ROOT
HETATM    1  C1  UNL     1      25.411  36.005  41.345  1.00  0.00     0.068 A 
HETATM    2  C2  UNL     1      26.200  36.643  42.285  1.00  0.00     0.039 A 
HETATM    3  C3  UNL     1      27.566  36.785  42.161  1.00  0.00     0.035 A 
HETATM    4  C4  UNL     1      28.144  36.245  41.014  1.00  0.00     0.068 A 
HETATM    5  N1  UNL     1      29.404  36.209  40.594  1.00  0.00    -0.334 N 
ATOM      6  H1  UNL     1      30.215  36.599  41.075  1.00  0.00     0.168 HD
HETATM    7  C5  UNL     1      29.409  35.547  39.388  1.00  0.00     0.160 A 
HETATM    8  O3  UNL     1      28.202  35.205  39.105  1.00  0.00    -0.291 OA
HETATM    9  C16 UNL     1      27.377  35.603  40.062  1.00  0.00     0.107 A 
HETATM   10  C17 UNL     1      26.013  35.484  40.227  1.00  0.00     0.076 A 
ENDROOT
BRANCH   7  11
HETATM   11  C6  UNL     1      30.621  35.314  38.622  1.00  0.00     0.026 A 
HETATM   12  C7  UNL     1      31.560  34.393  39.126  1.00  0.00     0.017 A 
HETATM   13  C8  UNL     1      32.717  34.137  38.444  1.00  0.00     0.002 A 
HETATM   14  C9  UNL     1      32.941  34.801  37.253  1.00  0.00     0.015 A 
HETATM   15  C10 UNL     1      32.038  35.704  36.744  1.00  0.00     0.008 A 
HETATM   16  C11 UNL     1      32.350  36.323  35.542  1.00  0.00     0.076 A 
HETATM   17  C15 UNL     1      30.851  35.968  37.442  1.00  0.00    -0.009 A 
HETATM   18  C12 UNL     1      31.442  37.248  35.003  1.00  0.00     0.037 A 
HETATM   19  C13 UNL     1      30.296  37.493  35.691  1.00  0.00     0.004 A 
HETATM   20  C14 UNL     1      29.985  36.875  36.893  1.00  0.00     0.013 A 
BRANCH  16  21
HETATM   21  O2  UNL     1      33.499  36.090  34.833  1.00  0.00    -0.360 OA
ATOM     22  H2  UNL     1      34.023  36.772  34.428  1.00  0.00     0.217 HD
ENDBRANCH  16  21
ENDBRANCH   7  11
BRANCH   1  23
HETATM   23  O1  UNL     1      24.026  35.906  41.556  1.00  0.00    -0.361 OA
ATOM     24  H1  UNL     1      23.428  36.335  40.954  1.00  0.00     0.217 HD
ENDBRANCH   1  23
TORSDOF 3
ENDMDL
