MODEL 1
REMARK VINA RESULT: -10.959937025      0.000      0.000
REMARK  3 active torsions:
REMARK  status: ('A' for Active; 'I' for Inactive)
REMARK    1  A    between atoms: O1_1  and  C1_3 
REMARK    2  A    between atoms: C5_9  and  C6_10 
REMARK    3  A    between atoms: C11_15  and  O2_16 
ROOT
HETATM    1  C1  UNL     1      25.361  36.197  40.870  1.00  0.00     0.068 A 
HETATM    2  C2  UNL     1      25.164  36.846  39.665  1.00  0.00     0.039 A 
HETATM    3  C3  UNL     1      26.143  36.977  38.702  1.00  0.00     0.035 A 
HETATM    4  C4  UNL     1      27.382  36.412  38.997  1.00  0.00     0.068 A 
HETATM    5  N1  UNL     1      28.515  36.359  38.306  1.00  0.00    -0.334 N 
ATOM      6  H1  UNL     1      28.678  36.751  37.378  1.00  0.00     0.168 HD
HETATM    7  C5  UNL     1      29.428  35.676  39.077  1.00  0.00     0.160 A 
HETATM    8  O3  UNL     1      28.858  35.339  40.179  1.00  0.00    -0.291 OA
HETATM    9  C16 UNL     1      27.603  35.759  40.195  1.00  0.00     0.107 A 
HETATM   10  C17 UNL     1      26.594  35.652  41.128  1.00  0.00     0.076 A 
ENDROOT
BRANCH   7  11
HETATM   11  C6  UNL     1      30.791  35.421  38.643  1.00  0.00     0.026 A 
HETATM   12  C7  UNL     1      31.598  34.590  39.443  1.00  0.00     0.017 A 
HETATM   13  C8  UNL     1      32.888  34.317  39.080  1.00  0.00     0.002 A 
HETATM   14  C9  UNL     1      33.376  34.874  37.913  1.00  0.00     0.015 A 
HETATM   15  C10 UNL     1      32.604  35.688  37.118  1.00  0.00     0.008 A 
HETATM   16  C11 UNL     1      33.180  36.202  35.965  1.00  0.00     0.076 A 
HETATM   17  C15 UNL     1      31.282  35.969  37.489  1.00  0.00    -0.009 A 
HETATM   18  C12 UNL     1      32.411  37.035  35.138  1.00  0.00     0.037 A 
HETATM   19  C13 UNL     1      31.131  37.298  35.512  1.00  0.00     0.004 A 
HETATM   20  C14 UNL     1      30.555  36.784  36.664  1.00  0.00     0.013 A 
BRANCH  16  21
HETATM   21  O2  UNL     1      34.469  35.949  35.571  1.00  0.00    -0.360 OA
ATOM     22  H2  UNL     1      34.862  36.298  34.780  1.00  0.00     0.217 HD
ENDBRANCH  16  21
ENDBRANCH   7  11
BRANCH   1  23
HETATM   23  O1  UNL     1      24.305  36.113  41.792  1.00  0.00    -0.361 OA
ATOM     24  H1  UNL     1      24.495  36.102  42.723  1.00  0.00     0.217 HD
ENDBRANCH   1  23
TORSDOF 3
ENDMDL
