MODEL 3
REMARK VINA RESULT: -10.416706898      1.264      6.758
REMARK  3 active torsions:
REMARK  status: ('A' for Active; 'I' for Inactive)
REMARK    1  A    between atoms: O1_1  and  C1_3 
REMARK    2  A    between atoms: C5_9  and  C6_10 
REMARK    3  A    between atoms: C11_15  and  O2_16 
ROOT
HETATM    1  C1  UNL     1      33.760  36.084  36.320  1.00  0.00     0.068 A 
HETATM    2  C2  UNL     1      33.244  37.322  35.984  1.00  0.00     0.039 A 
HETATM    3  C3  UNL     1      32.096  37.845  36.544  1.00  0.00     0.035 A 
HETATM    4  C4  UNL     1      31.452  37.052  37.492  1.00  0.00     0.068 A 
HETATM    5  N1  UNL     1      30.350  37.252  38.206  1.00  0.00    -0.334 N 
ATOM      6  H1  UNL     1      29.749  38.076  38.177  1.00  0.00     0.168 HD
HETATM    7  C5  UNL     1      30.171  36.136  38.992  1.00  0.00     0.160 A 
HETATM    8  O3  UNL     1      31.128  35.311  38.753  1.00  0.00    -0.291 OA
HETATM    9  C16 UNL     1      31.948  35.812  37.842  1.00  0.00     0.107 A 
HETATM   10  C17 UNL     1      33.100  35.330  37.257  1.00  0.00     0.076 A 
ENDROOT
BRANCH   7  11
HETATM   11  C6  UNL     1      29.058  35.993  39.914  1.00  0.00     0.026 A 
HETATM   12  C7  UNL     1      29.313  35.442  41.185  1.00  0.00     0.017 A 
HETATM   13  C8  UNL     1      28.301  35.287  42.090  1.00  0.00     0.002 A 
HETATM   14  C9  UNL     1      27.026  35.681  41.730  1.00  0.00     0.015 A 
HETATM   15  C10 UNL     1      26.756  36.221  40.494  1.00  0.00     0.008 A 
HETATM   16  C11 UNL     1      25.446  36.587  40.221  1.00  0.00     0.076 A 
HETATM   17  C15 UNL     1      27.792  36.381  39.564  1.00  0.00    -0.009 A 
HETATM   18  C12 UNL     1      25.146  37.141  38.967  1.00  0.00     0.037 A 
HETATM   19  C13 UNL     1      26.162  37.290  38.076  1.00  0.00     0.004 A 
HETATM   20  C14 UNL     1      27.471  36.923  38.349  1.00  0.00     0.013 A 
BRANCH  16  21
HETATM   21  O2  UNL     1      24.408  36.446  41.105  1.00  0.00    -0.360 OA
ATOM     22  H2  UNL     1      23.491  36.496  40.862  1.00  0.00     0.217 HD
ENDBRANCH  16  21
ENDBRANCH   7  11
BRANCH   1  23
HETATM   23  O1  UNL     1      34.936  35.632  35.697  1.00  0.00    -0.361 OA
ATOM     24  H1  UNL     1      34.917  35.391  34.779  1.00  0.00     0.217 HD
ENDBRANCH   1  23
TORSDOF 3
ENDMDL
