MODEL 12
REMARK VINA RESULT: -9.680517690      1.347      1.949
REMARK  3 active torsions:
REMARK  status: ('A' for Active; 'I' for Inactive)
REMARK    1  A    between atoms: O1_1  and  C1_3 
REMARK    2  A    between atoms: C5_9  and  C6_10 
REMARK    3  A    between atoms: C11_15  and  O2_16 
ROOT
HETATM    1  C1  UNL     1      25.207  36.357  41.097  1.00  0.00     0.068 A 
HETATM    2  C2  UNL     1      26.013  35.796  42.071  1.00  0.00     0.039 A 
HETATM    3  C3  UNL     1      27.331  35.447  41.860  1.00  0.00     0.035 A 
HETATM    4  C4  UNL     1      27.839  35.687  40.585  1.00  0.00     0.068 A 
HETATM    5  N1  UNL     1      29.040  35.474  40.059  1.00  0.00    -0.334 N 
ATOM      6  H1  UNL     1      29.848  35.070  40.535  1.00  0.00     0.168 HD
HETATM    7  C5  UNL     1      28.991  35.900  38.751  1.00  0.00     0.160 A 
HETATM    8  O3  UNL     1      27.809  36.347  38.513  1.00  0.00    -0.291 OA
HETATM    9  C16 UNL     1      27.053  36.245  39.595  1.00  0.00     0.107 A 
HETATM   10  C17 UNL     1      25.741  36.579  39.852  1.00  0.00     0.076 A 
ENDROOT
BRANCH   7  11
HETATM   11  C6  UNL     1      30.131  35.822  37.854  1.00  0.00     0.026 A 
HETATM   12  C7  UNL     1      30.881  34.631  37.833  1.00  0.00     0.017 A 
HETATM   13  C8  UNL     1      31.963  34.507  37.006  1.00  0.00     0.002 A 
HETATM   14  C9  UNL     1      32.300  35.574  36.196  1.00  0.00     0.015 A 
HETATM   15  C10 UNL     1      31.581  36.745  36.202  1.00  0.00     0.008 A 
HETATM   16  C11 UNL     1      31.995  37.763  35.354  1.00  0.00     0.076 A 
HETATM   17  C15 UNL     1      30.472  36.876  37.049  1.00  0.00    -0.009 A 
HETATM   18  C12 UNL     1      31.276  38.968  35.343  1.00  0.00     0.037 A 
HETATM   19  C13 UNL     1      30.203  39.078  36.170  1.00  0.00     0.004 A 
HETATM   20  C14 UNL     1      29.790  38.062  37.017  1.00  0.00     0.013 A 
BRANCH  16  21
HETATM   21  O2  UNL     1      33.074  37.672  34.513  1.00  0.00    -0.360 OA
ATOM     22  H2  UNL     1      33.012  37.461  33.589  1.00  0.00     0.217 HD
ENDBRANCH  16  21
ENDBRANCH   7  11
BRANCH   1  23
HETATM   23  O1  UNL     1      23.875  36.680  41.402  1.00  0.00    -0.361 OA
ATOM     24  H1  UNL     1      23.189  36.485  40.774  1.00  0.00     0.217 HD
ENDBRANCH   1  23
TORSDOF 3
ENDMDL
