MODEL 5
REMARK VINA RESULT: -10.254242496      1.402      7.118
REMARK  3 active torsions:
REMARK  status: ('A' for Active; 'I' for Inactive)
REMARK    1  A    between atoms: O1_1  and  C1_3 
REMARK    2  A    between atoms: C5_9  and  C6_10 
REMARK    3  A    between atoms: C11_15  and  O2_16 
ROOT
HETATM    1  C1  UNL     1      33.413  36.320  36.122  1.00  0.00     0.068 A 
HETATM    2  C2  UNL     1      32.878  37.011  35.050  1.00  0.00     0.039 A 
HETATM    3  C3  UNL     1      31.561  37.416  34.986  1.00  0.00     0.035 A 
HETATM    4  C4  UNL     1      30.759  37.091  36.079  1.00  0.00     0.068 A 
HETATM    5  N1  UNL     1      29.477  37.325  36.332  1.00  0.00    -0.334 N 
ATOM      6  H1  UNL     1      28.819  37.817  35.727  1.00  0.00     0.168 HD
HETATM    7  C5  UNL     1      29.202  36.780  37.566  1.00  0.00     0.160 A 
HETATM    8  O3  UNL     1      30.278  36.245  38.024  1.00  0.00    -0.291 OA
HETATM    9  C16 UNL     1      31.270  36.400  37.160  1.00  0.00     0.107 A 
HETATM   10  C17 UNL     1      32.595  36.017  37.181  1.00  0.00     0.076 A 
ENDROOT
BRANCH   7  11
HETATM   11  C6  UNL     1      27.887  36.842  38.180  1.00  0.00     0.026 A 
HETATM   12  C7  UNL     1      26.878  37.567  37.518  1.00  0.00     0.017 A 
HETATM   13  C8  UNL     1      25.623  37.656  38.052  1.00  0.00     0.002 A 
HETATM   14  C9  UNL     1      25.370  37.020  39.253  1.00  0.00     0.015 A 
HETATM   15  C10 UNL     1      26.342  36.308  39.915  1.00  0.00     0.008 A 
HETATM   16  C11 UNL     1      25.995  35.703  41.115  1.00  0.00     0.076 A 
HETATM   17  C15 UNL     1      27.629  36.215  39.369  1.00  0.00    -0.009 A 
HETATM   18  C12 UNL     1      26.971  34.970  41.809  1.00  0.00     0.037 A 
HETATM   19  C13 UNL     1      28.215  34.890  41.266  1.00  0.00     0.004 A 
HETATM   20  C14 UNL     1      28.560  35.494  40.067  1.00  0.00     0.013 A 
BRANCH  16  21
HETATM   21  O2  UNL     1      24.748  35.772  41.679  1.00  0.00    -0.360 OA
ATOM     22  H2  UNL     1      24.193  36.542  41.651  1.00  0.00     0.217 HD
ENDBRANCH  16  21
ENDBRANCH   7  11
BRANCH   1  23
HETATM   23  O1  UNL     1      34.767  35.948  36.100  1.00  0.00    -0.361 OA
ATOM     24  H1  UNL     1      35.014  35.096  35.758  1.00  0.00     0.217 HD
ENDBRANCH   1  23
TORSDOF 3
ENDMDL
