MODEL 8
REMARK VINA RESULT: -10.089219605      1.514      7.083
REMARK  3 active torsions:
REMARK  status: ('A' for Active; 'I' for Inactive)
REMARK    1  A    between atoms: O1_1  and  C1_3 
REMARK    2  A    between atoms: C5_9  and  C6_10 
REMARK    3  A    between atoms: C11_15  and  O2_16 
ROOT
HETATM    1  C1  UNL     1      34.487  35.519  37.703  1.00  0.00     0.068 A 
HETATM    2  C2  UNL     1      34.231  35.878  36.392  1.00  0.00     0.039 A 
HETATM    3  C3  UNL     1      32.987  36.262  35.937  1.00  0.00     0.035 A 
HETATM    4  C4  UNL     1      31.959  36.276  36.879  1.00  0.00     0.068 A 
HETATM    5  N1  UNL     1      30.673  36.589  36.776  1.00  0.00    -0.334 N 
ATOM      6  H1  UNL     1      30.188  36.893  35.931  1.00  0.00     0.168 HD
HETATM    7  C5  UNL     1      30.116  36.427  38.024  1.00  0.00     0.160 A 
HETATM    8  O3  UNL     1      31.036  36.034  38.832  1.00  0.00    -0.291 OA
HETATM    9  C16 UNL     1      32.190  35.922  38.194  1.00  0.00     0.107 A 
HETATM   10  C17 UNL     1      33.452  35.545  38.604  1.00  0.00     0.076 A 
ENDROOT
BRANCH   7  11
HETATM   11  C6  UNL     1      28.713  36.679  38.300  1.00  0.00     0.026 A 
HETATM   12  C7  UNL     1      27.979  37.442  37.371  1.00  0.00     0.017 A 
HETATM   13  C8  UNL     1      26.655  37.708  37.583  1.00  0.00     0.002 A 
HETATM   14  C9  UNL     1      26.057  37.212  38.725  1.00  0.00     0.015 A 
HETATM   15  C10 UNL     1      26.755  36.465  39.644  1.00  0.00     0.008 A 
HETATM   16  C11 UNL     1      26.070  36.010  40.762  1.00  0.00     0.076 A 
HETATM   17  C15 UNL     1      28.113  36.191  39.430  1.00  0.00    -0.009 A 
HETATM   18  C12 UNL     1      26.763  35.245  41.714  1.00  0.00     0.037 A 
HETATM   19  C13 UNL     1      28.079  34.988  41.491  1.00  0.00     0.004 A 
HETATM   20  C14 UNL     1      28.763  35.444  40.374  1.00  0.00     0.013 A 
BRANCH  16  21
HETATM   21  O2  UNL     1      24.744  36.257  41.005  1.00  0.00    -0.360 OA
ATOM     22  H2  UNL     1      24.316  36.094  41.837  1.00  0.00     0.217 HD
ENDBRANCH  16  21
ENDBRANCH   7  11
BRANCH   1  23
HETATM   23  O1  UNL     1      35.787  35.140  38.077  1.00  0.00    -0.361 OA
ATOM     24  H1  UNL     1      36.534  35.557  37.663  1.00  0.00     0.217 HD
ENDBRANCH   1  23
TORSDOF 3
ENDMDL
