MODEL 6
REMARK VINA RESULT: -10.223584420      0.993      1.432
REMARK  3 active torsions:
REMARK  status: ('A' for Active; 'I' for Inactive)
REMARK    1  A    between atoms: O1_1  and  C1_3 
REMARK    2  A    between atoms: C5_9  and  C6_10 
REMARK    3  A    between atoms: C11_15  and  O2_16 
ROOT
HETATM    1  C1  UNL     1      25.609  36.588  40.279  1.00  0.00     0.068 A 
HETATM    2  C2  UNL     1      26.072  36.300  41.550  1.00  0.00     0.039 A 
HETATM    3  C3  UNL     1      27.371  35.921  41.819  1.00  0.00     0.035 A 
HETATM    4  C4  UNL     1      28.231  35.835  40.725  1.00  0.00     0.068 A 
HETATM    5  N1  UNL     1      29.515  35.508  40.636  1.00  0.00    -0.334 N 
ATOM      6  H1  UNL     1      30.128  35.246  41.408  1.00  0.00     0.168 HD
HETATM    7  C5  UNL     1      29.861  35.588  39.306  1.00  0.00     0.160 A 
HETATM    8  O3  UNL     1      28.825  35.949  38.637  1.00  0.00    -0.291 OA
HETATM    9  C16 UNL     1      27.791  36.117  39.446  1.00  0.00     0.107 A 
HETATM   10  C17 UNL     1      26.483  36.493  39.225  1.00  0.00     0.076 A 
ENDROOT
BRANCH   7  11
HETATM   11  C6  UNL     1      31.199  35.297  38.822  1.00  0.00     0.026 A 
HETATM   12  C7  UNL     1      31.969  34.349  39.523  1.00  0.00     0.017 A 
HETATM   13  C8  UNL     1      33.234  34.039  39.109  1.00  0.00     0.002 A 
HETATM   14  C9  UNL     1      33.737  34.675  37.990  1.00  0.00     0.015 A 
HETATM   15  C10 UNL     1      33.002  35.604  37.292  1.00  0.00     0.008 A 
HETATM   16  C11 UNL     1      33.590  36.192  36.181  1.00  0.00     0.076 A 
HETATM   17  C15 UNL     1      31.704  35.924  37.715  1.00  0.00    -0.009 A 
HETATM   18  C12 UNL     1      32.859  37.143  35.453  1.00  0.00     0.037 A 
HETATM   19  C13 UNL     1      31.602  37.442  35.876  1.00  0.00     0.004 A 
HETATM   20  C14 UNL     1      31.015  36.855  36.986  1.00  0.00     0.013 A 
BRANCH  16  21
HETATM   21  O2  UNL     1      34.855  35.905  35.738  1.00  0.00    -0.360 OA
ATOM     22  H2  UNL     1      35.043  35.385  34.966  1.00  0.00     0.217 HD
ENDBRANCH  16  21
ENDBRANCH   7  11
BRANCH   1  23
HETATM   23  O1  UNL     1      24.267  36.965  40.099  1.00  0.00    -0.361 OA
ATOM     24  H1  UNL     1      23.614  36.300  39.917  1.00  0.00     0.217 HD
ENDBRANCH   1  23
TORSDOF 3
ENDMDL
