MODEL 11
REMARK VINA RESULT: -5.472239822      2.302      3.205
REMARK  3 active torsions:
REMARK  status: ('A' for Active; 'I' for Inactive)
REMARK    1  A    between atoms: C1_2  and  N1_3 
REMARK    2  A    between atoms: N1_3  and  C2_5 
REMARK    3  A    between atoms: C2_5  and  C3_6 
ROOT
HETATM    1  C3  UNL     1      -0.002  -0.551 -18.397  1.00  0.00    -0.041 A 
HETATM    2  C4  UNL     1      -0.505  -0.717 -19.668  1.00  0.00     0.009 A 
HETATM    3  C5  UNL     1      -1.747  -0.239 -20.007  1.00  0.00     0.001 A 
HETATM    4  C6  UNL     1      -2.530   0.429 -19.069  1.00  0.00     0.000 A 
HETATM    5  C7  UNL     1      -2.033   0.597 -17.800  1.00  0.00     0.001 A 
HETATM    6  C8  UNL     1      -0.786   0.109 -17.481  1.00  0.00     0.009 A 
ENDROOT
BRANCH   1   7
HETATM    7  C2  UNL     1       1.345  -1.053 -17.993  1.00  0.00     0.160 C 
BRANCH   7   8
HETATM    8  N1  UNL     1       1.788  -2.154 -18.823  1.00  0.00    -0.364 N 
ATOM      9  H1  UNL     1       1.284  -3.040 -18.785  1.00  0.00     0.162 HD
BRANCH   8  10
HETATM   10  C1  UNL     1       2.904  -2.031 -19.687  1.00  0.00     0.348 C 
HETATM   11  O1  UNL     1       2.820  -1.406 -20.801  1.00  0.00    -0.284 OA
ENDBRANCH   8  10
ENDBRANCH   7   8
ENDBRANCH   1   7
TORSDOF 3
ENDMDL
