MODEL 10
REMARK VINA RESULT: -5.488433246      1.724      2.483
REMARK  3 active torsions:
REMARK  status: ('A' for Active; 'I' for Inactive)
REMARK    1  A    between atoms: C1_2  and  N1_3 
REMARK    2  A    between atoms: N1_3  and  C2_5 
REMARK    3  A    between atoms: C2_5  and  C3_6 
ROOT
HETATM    1  C3  UNL     1       0.140  -0.481 -19.333  1.00  0.00    -0.041 A 
HETATM    2  C4  UNL     1       0.058   0.183 -18.128  1.00  0.00     0.009 A 
HETATM    3  C5  UNL     1      -1.128   0.723 -17.697  1.00  0.00     0.001 A 
HETATM    4  C6  UNL     1      -2.282   0.611 -18.468  1.00  0.00     0.000 A 
HETATM    5  C7  UNL     1      -2.205  -0.050 -19.670  1.00  0.00     0.001 A 
HETATM    6  C8  UNL     1      -1.006  -0.583 -20.085  1.00  0.00     0.009 A 
ENDROOT
BRANCH   1   7
HETATM    7  C2  UNL     1       1.411  -1.084 -19.833  1.00  0.00     0.160 C 
BRANCH   7   8
HETATM    8  N1  UNL     1       1.885  -2.148 -18.974  1.00  0.00    -0.364 N 
ATOM      9  H1  UNL     1       1.214  -2.667 -18.407  1.00  0.00     0.162 HD
BRANCH   8  10
HETATM   10  C1  UNL     1       3.259  -2.488 -18.900  1.00  0.00     0.348 C 
HETATM   11  O1  UNL     1       3.689  -3.619 -19.316  1.00  0.00    -0.284 OA
ENDBRANCH   8  10
ENDBRANCH   7   8
ENDBRANCH   1   7
TORSDOF 3
ENDMDL
