MODEL 14
REMARK VINA RESULT: -5.283834580      3.115      6.158
REMARK  3 active torsions:
REMARK  status: ('A' for Active; 'I' for Inactive)
REMARK    1  A    between atoms: C1_2  and  N1_3 
REMARK    2  A    between atoms: N1_3  and  C2_5 
REMARK    3  A    between atoms: C2_5  and  C3_6 
ROOT
HETATM    1  C3  UNL     1       3.857  -6.280 -17.468  1.00  0.00    -0.041 A 
HETATM    2  C4  UNL     1       3.908  -6.380 -16.095  1.00  0.00     0.009 A 
HETATM    3  C5  UNL     1       3.641  -7.567 -15.461  1.00  0.00     0.001 A 
HETATM    4  C6  UNL     1       3.311  -8.705 -16.193  1.00  0.00     0.000 A 
HETATM    5  C7  UNL     1       3.258  -8.611 -17.562  1.00  0.00     0.001 A 
HETATM    6  C8  UNL     1       3.529  -7.411 -18.179  1.00  0.00     0.009 A 
ENDROOT
BRANCH   1   7
HETATM    7  C2  UNL     1       4.146  -5.008 -18.194  1.00  0.00     0.160 C 
BRANCH   7   8
HETATM    8  N1  UNL     1       3.182  -3.972 -17.882  1.00  0.00    -0.364 N 
ATOM      9  H1  UNL     1       2.187  -4.174 -17.975  1.00  0.00     0.162 HD
BRANCH   8  10
HETATM   10  C1  UNL     1       3.589  -2.685 -17.450  1.00  0.00     0.348 C 
HETATM   11  O1  UNL     1       4.808  -2.308 -17.534  1.00  0.00    -0.284 OA
ENDBRANCH   8  10
ENDBRANCH   7   8
ENDBRANCH   1   7
TORSDOF 3
ENDMDL
