MODEL 9
REMARK VINA RESULT: -5.490066784      1.721      2.807
REMARK  3 active torsions:
REMARK  status: ('A' for Active; 'I' for Inactive)
REMARK    1  A    between atoms: C1_2  and  N1_3 
REMARK    2  A    between atoms: N1_3  and  C2_5 
REMARK    3  A    between atoms: C2_5  and  C3_6 
ROOT
HETATM    1  C3  UNL     1       0.123  -0.493 -19.360  1.00  0.00    -0.041 A 
HETATM    2  C4  UNL     1      -1.044  -0.569 -20.086  1.00  0.00     0.009 A 
HETATM    3  C5  UNL     1      -2.210  -0.018 -19.615  1.00  0.00     0.001 A 
HETATM    4  C6  UNL     1      -2.239   0.635 -18.385  1.00  0.00     0.000 A 
HETATM    5  C7  UNL     1      -1.078   0.714 -17.657  1.00  0.00     0.001 A 
HETATM    6  C8  UNL     1       0.080   0.154 -18.147  1.00  0.00     0.009 A 
ENDROOT
BRANCH   1   7
HETATM    7  C2  UNL     1       1.410  -1.077 -19.841  1.00  0.00     0.160 C 
BRANCH   7   8
HETATM    8  N1  UNL     1       1.880  -2.144 -18.982  1.00  0.00    -0.364 N 
ATOM      9  H1  UNL     1       1.207  -2.660 -18.417  1.00  0.00     0.162 HD
BRANCH   8  10
HETATM   10  C1  UNL     1       3.253  -2.489 -18.909  1.00  0.00     0.348 C 
HETATM   11  O1  UNL     1       3.678  -3.623 -19.322  1.00  0.00    -0.284 OA
ENDBRANCH   8  10
ENDBRANCH   7   8
ENDBRANCH   1   7
TORSDOF 3
ENDMDL
