MODEL 8
REMARK VINA RESULT: -5.492485319      3.044      6.264
REMARK  3 active torsions:
REMARK  status: ('A' for Active; 'I' for Inactive)
REMARK    1  A    between atoms: C1_2  and  N1_3 
REMARK    2  A    between atoms: N1_3  and  C2_5 
REMARK    3  A    between atoms: C2_5  and  C3_6 
ROOT
HETATM    1  C3  UNL     1       3.697  -6.104 -16.873  1.00  0.00    -0.041 A 
HETATM    2  C4  UNL     1       3.592  -6.730 -18.096  1.00  0.00     0.009 A 
HETATM    3  C5  UNL     1       3.524  -8.098 -18.189  1.00  0.00     0.001 A 
HETATM    4  C6  UNL     1       3.559  -8.890 -17.044  1.00  0.00     0.000 A 
HETATM    5  C7  UNL     1       3.663  -8.271 -15.822  1.00  0.00     0.001 A 
HETATM    6  C8  UNL     1       3.731  -6.898 -15.751  1.00  0.00     0.009 A 
ENDROOT
BRANCH   1   7
HETATM    7  C2  UNL     1       3.770  -4.620 -16.732  1.00  0.00     0.160 C 
BRANCH   7   8
HETATM    8  N1  UNL     1       2.962  -3.938 -17.721  1.00  0.00    -0.364 N 
ATOM      9  H1  UNL     1       1.991  -4.222 -17.852  1.00  0.00     0.162 HD
BRANCH   8  10
HETATM   10  C1  UNL     1       3.487  -2.886 -18.513  1.00  0.00     0.348 C 
HETATM   11  O1  UNL     1       3.321  -2.860 -19.781  1.00  0.00    -0.284 OA
ENDBRANCH   8  10
ENDBRANCH   7   8
ENDBRANCH   1   7
TORSDOF 3
ENDMDL
