MODEL 7
REMARK VINA RESULT: -5.500975037      3.005      6.078
REMARK  3 active torsions:
REMARK  status: ('A' for Active; 'I' for Inactive)
REMARK    1  A    between atoms: C1_2  and  N1_3 
REMARK    2  A    between atoms: N1_3  and  C2_5 
REMARK    3  A    between atoms: C2_5  and  C3_6 
ROOT
HETATM    1  C3  UNL     1       3.724  -6.077 -16.841  1.00  0.00    -0.041 A 
HETATM    2  C4  UNL     1       3.757  -6.901 -15.738  1.00  0.00     0.009 A 
HETATM    3  C5  UNL     1       3.669  -8.265 -15.869  1.00  0.00     0.001 A 
HETATM    4  C6  UNL     1       3.544  -8.850 -17.126  1.00  0.00     0.000 A 
HETATM    5  C7  UNL     1       3.511  -8.034 -18.230  1.00  0.00     0.001 A 
HETATM    6  C8  UNL     1       3.600  -6.668 -18.077  1.00  0.00     0.009 A 
ENDROOT
BRANCH   1   7
HETATM    7  C2  UNL     1       3.821  -4.591 -16.739  1.00  0.00     0.160 C 
BRANCH   7   8
HETATM    8  N1  UNL     1       2.969  -3.921 -17.699  1.00  0.00    -0.364 N 
ATOM      9  H1  UNL     1       2.001  -4.226 -17.803  1.00  0.00     0.162 HD
BRANCH   8  10
HETATM   10  C1  UNL     1       3.446  -2.852 -18.498  1.00  0.00     0.348 C 
HETATM   11  O1  UNL     1       3.343  -2.875 -19.773  1.00  0.00    -0.284 OA
ENDBRANCH   8  10
ENDBRANCH   7   8
ENDBRANCH   1   7
TORSDOF 3
ENDMDL
