MODEL 4
REMARK VINA RESULT: -9.666926391      3.012      5.523
REMARK  9 active torsions:
REMARK  status: ('A' for Active; 'I' for Inactive)
REMARK    1  A    between atoms: N1_2  and  C2_3 
REMARK    2  A    between atoms: N1_2  and  C9_20 
REMARK    3  A    between atoms: C2_3  and  C3_4 
REMARK    4  A    between atoms: C12_23  and  C13_24 
REMARK       I    between atoms: C13_24  and  N8_26 
REMARK    5  A    between atoms: N8_26  and  C14_28 
REMARK    6  A    between atoms: C14_28  and  C15_29 
REMARK    7  A    between atoms: C14_28  and  C18_34 
REMARK    8  A    between atoms: C15_29  and  C16_30 
REMARK    9  A    between atoms: C16_30  and  C17_31 
ROOT
HETATM    1  C9  UNL     1      -2.943   1.761  14.179  1.00  0.00     0.030 A 
HETATM    2  C10 UNL     1      -3.489   0.636  13.607  1.00  0.00     0.030 A 
HETATM    3  C11 UNL     1      -4.681   0.707  12.896  1.00  0.00     0.019 A 
HETATM    4  C12 UNL     1      -5.374   1.881  12.725  1.00  0.00     0.032 A 
HETATM    5  C19 UNL     1      -4.822   3.005  13.301  1.00  0.00     0.019 A 
HETATM    6  C20 UNL     1      -3.642   2.970  14.011  1.00  0.00     0.030 A 
ENDROOT
BRANCH   1   7
HETATM    7  N1  UNL     1      -1.734   1.734  14.913  1.00  0.00    -0.380 N 
HETATM    8  C1  UNL     1      -0.490   1.994  14.174  1.00  0.00     0.150 C 
BRANCH   7   9
HETATM    9  C2  UNL     1      -1.603   1.476  16.302  1.00  0.00     0.181 C 
BRANCH   9  10
HETATM   10  C3  UNL     1      -2.063   0.113  16.704  1.00  0.00     0.043 A 
HETATM   11  C4  UNL     1      -1.215  -0.963  16.545  1.00  0.00     0.116 A 
HETATM   12  N2  UNL     1      -1.599  -2.217  16.902  1.00  0.00    -0.348 N 
HETATM   13  C5  UNL     1      -2.817  -2.450  17.420  1.00  0.00     0.138 A 
ATOM     14  H2  UNL     1      -0.952  -2.994  16.774  1.00  0.00     0.167 HD
HETATM   15  N3  UNL     1      -3.230  -3.692  17.786  1.00  0.00    -0.315 N 
HETATM   16  C8  UNL     1      -3.667  -1.387  17.583  1.00  0.00     0.119 A 
HETATM   17  C6  UNL     1      -4.450  -3.927  18.305  1.00  0.00     0.195 A 
ATOM     18  H3  UNL     1      -2.591  -4.477  17.662  1.00  0.00     0.170 HD
HETATM   19  N4  UNL     1      -4.829  -5.257  18.670  1.00  0.00    -0.063 NA
HETATM   20  N5  UNL     1      -5.270  -2.881  18.458  1.00  0.00    -0.317 N 
HETATM   21  C7  UNL     1      -4.917  -1.628  18.115  1.00  0.00     0.149 A 
ATOM     22  H5  UNL     1      -6.199  -3.040  18.850  1.00  0.00     0.169 HD
HETATM   23  N6  UNL     1      -5.781  -0.514  18.279  1.00  0.00    -0.080 NA
HETATM   24  N7  UNL     1      -3.277  -0.137  17.225  1.00  0.00    -0.351 N 
ATOM     25  H7  UNL     1      -3.926   0.638  17.355  1.00  0.00     0.166 HD
ENDBRANCH   9  10
ENDBRANCH   7   9
ENDBRANCH   1   7
BRANCH   4  26
HETATM   26  C13 UNL     1      -6.614   1.972  11.967  1.00  0.00     0.252 C 
HETATM   27  O1  UNL     1      -7.171   0.925  11.486  1.00  0.00    -0.268 OA
HETATM   28  N8  UNL     1      -7.296   3.183  11.701  1.00  0.00    -0.342 N 
ATOM     29  H8  UNL     1      -6.901   4.048  12.069  1.00  0.00     0.163 HD
BRANCH  28  30
HETATM   30  C14 UNL     1      -8.517   3.262  10.942  1.00  0.00     0.186 C 
BRANCH  30  31
HETATM   31  C15 UNL     1      -9.747   3.447  11.776  1.00  0.00     0.046 C 
BRANCH  31  32
HETATM   32  C16 UNL     1      -9.682   4.521  12.803  1.00  0.00     0.116 C 
BRANCH  32  33
HETATM   33  C17 UNL     1      -9.630   3.998  14.188  1.00  0.00     0.172 C 
HETATM   34  O2  UNL     1      -8.966   2.967  14.457  1.00  0.00    -0.648 OA
HETATM   35  O3  UNL     1     -10.299   4.602  15.265  1.00  0.00    -0.648 OA
ENDBRANCH  32  33
ENDBRANCH  31  32
ENDBRANCH  30  31
BRANCH  30  36
HETATM   36  C18 UNL     1      -8.435   4.223   9.826  1.00  0.00     0.196 C 
HETATM   37  O4  UNL     1      -7.513   5.084   9.727  1.00  0.00    -0.646 OA
HETATM   38  O5  UNL     1      -9.382   4.225   8.813  1.00  0.00    -0.646 OA
ENDBRANCH  30  36
ENDBRANCH  28  30
ENDBRANCH   4  26
TORSDOF 9
ENDMDL
