MODEL 6
REMARK VINA RESULT: -9.561623083      3.498      5.816
REMARK  9 active torsions:
REMARK  status: ('A' for Active; 'I' for Inactive)
REMARK    1  A    between atoms: N1_2  and  C2_3 
REMARK    2  A    between atoms: N1_2  and  C9_20 
REMARK    3  A    between atoms: C2_3  and  C3_4 
REMARK    4  A    between atoms: C12_23  and  C13_24 
REMARK       I    between atoms: C13_24  and  N8_26 
REMARK    5  A    between atoms: N8_26  and  C14_28 
REMARK    6  A    between atoms: C14_28  and  C15_29 
REMARK    7  A    between atoms: C14_28  and  C18_34 
REMARK    8  A    between atoms: C15_29  and  C16_30 
REMARK    9  A    between atoms: C16_30  and  C17_31 
ROOT
HETATM    1  C9  UNL     1      -3.108   1.582  14.977  1.00  0.00     0.030 A 
HETATM    2  C10 UNL     1      -3.905   0.514  14.638  1.00  0.00     0.030 A 
HETATM    3  C11 UNL     1      -4.956   0.668  13.742  1.00  0.00     0.019 A 
HETATM    4  C12 UNL     1      -5.256   1.871  13.149  1.00  0.00     0.032 A 
HETATM    5  C19 UNL     1      -4.452   2.937  13.492  1.00  0.00     0.019 A 
HETATM    6  C20 UNL     1      -3.403   2.819  14.377  1.00  0.00     0.030 A 
ENDROOT
BRANCH   1   7
HETATM    7  N1  UNL     1      -2.030   1.471  15.887  1.00  0.00    -0.380 N 
HETATM    8  C1  UNL     1      -0.735   1.030  15.349  1.00  0.00     0.150 C 
BRANCH   7   9
HETATM    9  C2  UNL     1      -2.078   1.744  17.279  1.00  0.00     0.181 C 
BRANCH   9  10
HETATM   10  C3  UNL     1      -2.465   0.562  18.107  1.00  0.00     0.043 A 
HETATM   11  C4  UNL     1      -1.499  -0.102  18.833  1.00  0.00     0.116 A 
HETATM   12  N2  UNL     1      -1.815  -1.179  19.599  1.00  0.00    -0.348 N 
HETATM   13  C5  UNL     1      -3.078  -1.633  19.675  1.00  0.00     0.138 A 
ATOM     14  H2  UNL     1      -1.081  -1.652  20.126  1.00  0.00     0.167 HD
HETATM   15  N3  UNL     1      -3.425  -2.707  20.431  1.00  0.00    -0.315 N 
HETATM   16  C8  UNL     1      -4.046  -0.978  18.958  1.00  0.00     0.119 A 
HETATM   17  C6  UNL     1      -4.690  -3.162  20.508  1.00  0.00     0.195 A 
ATOM     18  H3  UNL     1      -2.699  -3.187  20.963  1.00  0.00     0.170 HD
HETATM   19  N4  UNL     1      -4.995  -4.298  21.321  1.00  0.00    -0.063 NA
HETATM   20  N5  UNL     1      -5.625  -2.514  19.803  1.00  0.00    -0.317 N 
HETATM   21  C7  UNL     1      -5.342  -1.444  19.036  1.00  0.00     0.149 A 
ATOM     22  H5  UNL     1      -6.589  -2.845  19.848  1.00  0.00     0.169 HD
HETATM   23  N6  UNL     1      -6.330  -0.751  18.289  1.00  0.00    -0.080 NA
HETATM   24  N7  UNL     1      -3.723   0.097  18.195  1.00  0.00    -0.351 N 
ATOM     25  H7  UNL     1      -4.460   0.568  17.670  1.00  0.00     0.166 HD
ENDBRANCH   9  10
ENDBRANCH   7   9
ENDBRANCH   1   7
BRANCH   4  26
HETATM   26  C13 UNL     1      -6.341   2.040  12.194  1.00  0.00     0.252 C 
HETATM   27  O1  UNL     1      -6.715   1.074  11.442  1.00  0.00    -0.268 OA
HETATM   28  N8  UNL     1      -7.061   3.246  12.014  1.00  0.00    -0.342 N 
ATOM     29  H8  UNL     1      -6.811   4.046  12.594  1.00  0.00     0.163 HD
BRANCH  28  30
HETATM   30  C14 UNL     1      -8.127   3.405  11.059  1.00  0.00     0.186 C 
BRANCH  30  31
HETATM   31  C15 UNL     1      -9.499   3.337  11.655  1.00  0.00     0.046 C 
BRANCH  31  32
HETATM   32  C16 UNL     1      -9.822   4.381  12.665  1.00  0.00     0.116 C 
BRANCH  32  33
HETATM   33  C17 UNL     1      -9.698   3.899  14.060  1.00  0.00     0.172 C 
HETATM   34  O2  UNL     1     -10.204   4.550  15.007  1.00  0.00    -0.648 OA
HETATM   35  O3  UNL     1      -9.026   2.717  14.410  1.00  0.00    -0.648 OA
ENDBRANCH  32  33
ENDBRANCH  31  32
ENDBRANCH  30  31
BRANCH  30  36
HETATM   36  C18 UNL     1      -7.941   4.578  10.186  1.00  0.00     0.196 C 
HETATM   37  O4  UNL     1      -8.388   4.633   9.003  1.00  0.00    -0.646 OA
HETATM   38  O5  UNL     1      -7.256   5.699  10.631  1.00  0.00    -0.646 OA
ENDBRANCH  30  36
ENDBRANCH  28  30
ENDBRANCH   4  26
TORSDOF 9
ENDMDL
