MODEL 11
REMARK VINA RESULT: -9.463541279      0.823      1.888
REMARK  9 active torsions:
REMARK  status: ('A' for Active; 'I' for Inactive)
REMARK    1  A    between atoms: N1_2  and  C2_3 
REMARK    2  A    between atoms: N1_2  and  C9_20 
REMARK    3  A    between atoms: C2_3  and  C3_4 
REMARK    4  A    between atoms: C12_23  and  C13_24 
REMARK       I    between atoms: C13_24  and  N8_26 
REMARK    5  A    between atoms: N8_26  and  C14_28 
REMARK    6  A    between atoms: C14_28  and  C15_29 
REMARK    7  A    between atoms: C14_28  and  C18_34 
REMARK    8  A    between atoms: C15_29  and  C16_30 
REMARK    9  A    between atoms: C16_30  and  C17_31 
ROOT
HETATM    1  C9  UNL     1      -6.646   0.903  14.139  1.00  0.00     0.030 A 
HETATM    2  C10 UNL     1      -6.152   1.008  12.860  1.00  0.00     0.030 A 
HETATM    3  C11 UNL     1      -6.837   1.729  11.890  1.00  0.00     0.019 A 
HETATM    4  C12 UNL     1      -8.026   2.370  12.144  1.00  0.00     0.032 A 
HETATM    5  C19 UNL     1      -8.516   2.261  13.428  1.00  0.00     0.019 A 
HETATM    6  C20 UNL     1      -7.862   1.554  14.413  1.00  0.00     0.030 A 
ENDROOT
BRANCH   1   7
HETATM    7  N1  UNL     1      -5.983   0.176  15.156  1.00  0.00    -0.380 N 
HETATM    8  C1  UNL     1      -6.146  -1.284  15.159  1.00  0.00     0.150 C 
BRANCH   7   9
HETATM    9  C2  UNL     1      -5.170   0.725  16.183  1.00  0.00     0.181 C 
BRANCH   9  10
HETATM   10  C3  UNL     1      -4.150   1.696  15.684  1.00  0.00     0.043 A 
HETATM   11  C4  UNL     1      -4.511   3.009  15.467  1.00  0.00     0.116 A 
HETATM   12  N2  UNL     1      -3.609   3.919  15.016  1.00  0.00    -0.348 N 
HETATM   13  C5  UNL     1      -2.335   3.571  14.766  1.00  0.00     0.138 A 
ATOM     14  H2  UNL     1      -3.903   4.883  14.865  1.00  0.00     0.167 HD
HETATM   15  N3  UNL     1      -1.410   4.457  14.314  1.00  0.00    -0.315 N 
HETATM   16  C8  UNL     1      -1.966   2.268  14.979  1.00  0.00     0.119 A 
HETATM   17  C6  UNL     1      -0.134   4.110  14.063  1.00  0.00     0.195 A 
ATOM     18  H3  UNL     1      -1.693   5.425  14.159  1.00  0.00     0.170 HD
HETATM   19  N4  UNL     1       0.795   5.087  13.587  1.00  0.00    -0.063 NA
HETATM   20  N5  UNL     1       0.214   2.835  14.274  1.00  0.00    -0.317 N 
HETATM   21  C7  UNL     1      -0.658   1.911  14.722  1.00  0.00     0.149 A 
ATOM     22  H5  UNL     1       1.177   2.552  14.089  1.00  0.00     0.169 HD
HETATM   23  N6  UNL     1      -0.294   0.559  14.952  1.00  0.00    -0.080 NA
HETATM   24  N7  UNL     1      -2.872   1.364  15.430  1.00  0.00    -0.351 N 
ATOM     25  H7  UNL     1      -2.574   0.400  15.581  1.00  0.00     0.166 HD
ENDBRANCH   9  10
ENDBRANCH   7   9
ENDBRANCH   1   7
BRANCH   4  26
HETATM   26  C13 UNL     1      -8.744   3.145  11.141  1.00  0.00     0.252 C 
HETATM   27  O1  UNL     1     -10.018   3.080  11.045  1.00  0.00    -0.268 OA
HETATM   28  N8  UNL     1      -8.120   4.013  10.213  1.00  0.00    -0.342 N 
ATOM     29  H8  UNL     1      -7.106   4.110  10.251  1.00  0.00     0.163 HD
BRANCH  28  30
HETATM   30  C14 UNL     1      -8.838   4.768   9.219  1.00  0.00     0.186 C 
BRANCH  30  31
HETATM   31  C15 UNL     1      -9.315   6.107   9.692  1.00  0.00     0.046 C 
BRANCH  31  32
HETATM   32  C16 UNL     1      -8.279   7.171   9.782  1.00  0.00     0.116 C 
BRANCH  32  33
HETATM   33  C17 UNL     1      -8.811   8.525   9.504  1.00  0.00     0.172 C 
HETATM   34  O2  UNL     1      -9.860   8.673   8.830  1.00  0.00    -0.648 OA
HETATM   35  O3  UNL     1      -8.198   9.703   9.962  1.00  0.00    -0.648 OA
ENDBRANCH  32  33
ENDBRANCH  31  32
ENDBRANCH  30  31
BRANCH  30  36
HETATM   36  C18 UNL     1      -8.126   4.838   7.930  1.00  0.00     0.196 C 
HETATM   37  O4  UNL     1      -6.872   4.701   7.829  1.00  0.00    -0.646 OA
HETATM   38  O5  UNL     1      -8.812   5.061   6.746  1.00  0.00    -0.646 OA
ENDBRANCH  30  36
ENDBRANCH  28  30
ENDBRANCH   4  26
TORSDOF 9
ENDMDL
