MODEL 5
REMARK VINA RESULT: -9.663478624      3.127      5.718
REMARK  9 active torsions:
REMARK  status: ('A' for Active; 'I' for Inactive)
REMARK    1  A    between atoms: N1_2  and  C2_3 
REMARK    2  A    between atoms: N1_2  and  C9_20 
REMARK    3  A    between atoms: C2_3  and  C3_4 
REMARK    4  A    between atoms: C12_23  and  C13_24 
REMARK       I    between atoms: C13_24  and  N8_26 
REMARK    5  A    between atoms: N8_26  and  C14_28 
REMARK    6  A    between atoms: C14_28  and  C15_29 
REMARK    7  A    between atoms: C14_28  and  C18_34 
REMARK    8  A    between atoms: C15_29  and  C16_30 
REMARK    9  A    between atoms: C16_30  and  C17_31 
ROOT
HETATM    1  C9  UNL     1      -3.036   1.702  14.307  1.00  0.00     0.030 A 
HETATM    2  C10 UNL     1      -3.560   0.596  13.680  1.00  0.00     0.030 A 
HETATM    3  C11 UNL     1      -4.721   0.691  12.923  1.00  0.00     0.019 A 
HETATM    4  C12 UNL     1      -5.404   1.872  12.756  1.00  0.00     0.032 A 
HETATM    5  C19 UNL     1      -4.874   2.977  13.387  1.00  0.00     0.019 A 
HETATM    6  C20 UNL     1      -3.725   2.917  14.145  1.00  0.00     0.030 A 
ENDROOT
BRANCH   1   7
HETATM    7  N1  UNL     1      -1.859   1.650  15.089  1.00  0.00    -0.380 N 
HETATM    8  C1  UNL     1      -0.574   1.744  14.383  1.00  0.00     0.150 C 
BRANCH   7   9
HETATM    9  C2  UNL     1      -1.797   1.511  16.501  1.00  0.00     0.181 C 
BRANCH   9  10
HETATM   10  C3  UNL     1      -2.626   0.386  17.029  1.00  0.00     0.043 A 
HETATM   11  C4  UNL     1      -3.905   0.638  17.477  1.00  0.00     0.116 A 
HETATM   12  N2  UNL     1      -4.688  -0.362  17.961  1.00  0.00    -0.348 N 
HETATM   13  C5  UNL     1      -4.242  -1.628  18.021  1.00  0.00     0.138 A 
ATOM     14  H2  UNL     1      -5.630  -0.147  18.286  1.00  0.00     0.167 HD
HETATM   15  N3  UNL     1      -5.000  -2.649  18.500  1.00  0.00    -0.315 N 
HETATM   16  C8  UNL     1      -2.971  -1.889  17.577  1.00  0.00     0.119 A 
HETATM   17  C6  UNL     1      -4.554  -3.917  18.561  1.00  0.00     0.195 A 
ATOM     18  H3  UNL     1      -5.944  -2.445  18.827  1.00  0.00     0.170 HD
HETATM   19  N4  UNL     1      -5.398  -4.950  19.077  1.00  0.00    -0.063 NA
HETATM   20  N5  UNL     1      -3.312  -4.159  18.125  1.00  0.00    -0.317 N 
HETATM   21  C7  UNL     1      -2.514  -3.189  17.638  1.00  0.00     0.149 A 
ATOM     22  H5  UNL     1      -2.956  -5.114  18.163  1.00  0.00     0.169 HD
HETATM   23  N6  UNL     1      -1.197  -3.440  17.172  1.00  0.00    -0.080 NA
HETATM   24  N7  UNL     1      -2.195  -0.886  17.094  1.00  0.00    -0.351 N 
ATOM     25  H7  UNL     1      -1.253  -1.104  16.770  1.00  0.00     0.166 HD
ENDBRANCH   9  10
ENDBRANCH   7   9
ENDBRANCH   1   7
BRANCH   4  26
HETATM   26  C13 UNL     1      -6.610   1.988  11.950  1.00  0.00     0.252 C 
HETATM   27  O1  UNL     1      -7.141   0.959  11.405  1.00  0.00    -0.268 OA
HETATM   28  N8  UNL     1      -7.286   3.207  11.702  1.00  0.00    -0.342 N 
ATOM     29  H8  UNL     1      -6.911   4.059  12.120  1.00  0.00     0.163 HD
BRANCH  28  30
HETATM   30  C14 UNL     1      -8.473   3.312  10.894  1.00  0.00     0.186 C 
BRANCH  30  31
HETATM   31  C15 UNL     1      -9.737   3.482  11.681  1.00  0.00     0.046 C 
BRANCH  31  32
HETATM   32  C16 UNL     1      -9.702   4.513  12.753  1.00  0.00     0.116 C 
BRANCH  32  33
HETATM   33  C17 UNL     1      -9.691   3.934  14.116  1.00  0.00     0.172 C 
HETATM   34  O2  UNL     1      -8.979   2.934  14.379  1.00  0.00    -0.648 OA
HETATM   35  O3  UNL     1     -10.452   4.448  15.178  1.00  0.00    -0.648 OA
ENDBRANCH  32  33
ENDBRANCH  31  32
ENDBRANCH  30  31
BRANCH  30  36
HETATM   36  C18 UNL     1      -8.340   4.301   9.809  1.00  0.00     0.196 C 
HETATM   37  O4  UNL     1      -7.478   5.227   9.824  1.00  0.00    -0.646 OA
HETATM   38  O5  UNL     1      -9.169   4.258   8.697  1.00  0.00    -0.646 OA
ENDBRANCH  30  36
ENDBRANCH  28  30
ENDBRANCH   4  26
TORSDOF 9
ENDMDL
