MODEL 1
REMARK VINA RESULT: -9.753666946      0.000      0.000
REMARK  9 active torsions:
REMARK  status: ('A' for Active; 'I' for Inactive)
REMARK    1  A    between atoms: N1_2  and  C2_3 
REMARK    2  A    between atoms: N1_2  and  C9_20 
REMARK    3  A    between atoms: C2_3  and  C3_4 
REMARK    4  A    between atoms: C12_23  and  C13_24 
REMARK       I    between atoms: C13_24  and  N8_26 
REMARK    5  A    between atoms: N8_26  and  C14_28 
REMARK    6  A    between atoms: C14_28  and  C15_29 
REMARK    7  A    between atoms: C14_28  and  C18_34 
REMARK    8  A    between atoms: C15_29  and  C16_30 
REMARK    9  A    between atoms: C16_30  and  C17_31 
ROOT
HETATM    1  C9  UNL     1      -6.909   0.793  14.055  1.00  0.00     0.030 A 
HETATM    2  C10 UNL     1      -8.086   1.437  14.359  1.00  0.00     0.030 A 
HETATM    3  C11 UNL     1      -8.722   2.236  13.417  1.00  0.00     0.019 A 
HETATM    4  C12 UNL     1      -8.225   2.429  12.150  1.00  0.00     0.032 A 
HETATM    5  C19 UNL     1      -7.046   1.781  11.852  1.00  0.00     0.019 A 
HETATM    6  C20 UNL     1      -6.390   0.981  12.762  1.00  0.00     0.030 A 
ENDROOT
BRANCH   1   7
HETATM    7  N1  UNL     1      -6.227  -0.028  14.984  1.00  0.00    -0.380 N 
HETATM    8  C1  UNL     1      -6.451  -1.477  14.896  1.00  0.00     0.150 C 
BRANCH   7   9
HETATM    9  C2  UNL     1      -5.343   0.416  16.002  1.00  0.00     0.181 C 
BRANCH   9  10
HETATM   10  C3  UNL     1      -4.118   1.092  15.477  1.00  0.00     0.043 A 
HETATM   11  C4  UNL     1      -3.261   0.395  14.652  1.00  0.00     0.116 A 
HETATM   12  N2  UNL     1      -2.138   0.978  14.154  1.00  0.00    -0.348 N 
HETATM   13  C5  UNL     1      -1.826   2.252  14.450  1.00  0.00     0.138 A 
ATOM     14  H2  UNL     1      -1.522   0.440  13.545  1.00  0.00     0.167 HD
HETATM   15  N3  UNL     1      -0.712   2.862  13.969  1.00  0.00    -0.315 N 
HETATM   16  C8  UNL     1      -2.672   2.952  15.270  1.00  0.00     0.119 A 
HETATM   17  C6  UNL     1      -0.398   4.137  14.265  1.00  0.00     0.195 A 
ATOM     18  H3  UNL     1      -0.088   2.333  13.359  1.00  0.00     0.170 HD
HETATM   19  N4  UNL     1       0.791   4.726  13.729  1.00  0.00    -0.063 NA
HETATM   20  N5  UNL     1      -1.232   4.810  15.066  1.00  0.00    -0.317 N 
HETATM   21  C7  UNL     1      -2.351   4.259  15.573  1.00  0.00     0.149 A 
ATOM     22  H5  UNL     1      -1.010   5.778  15.303  1.00  0.00     0.169 HD
HETATM   23  N6  UNL     1      -3.241   4.970  16.420  1.00  0.00    -0.080 NA
HETATM   24  N7  UNL     1      -3.792   2.364  15.763  1.00  0.00    -0.351 N 
ATOM     25  H7  UNL     1      -4.406   2.905  16.370  1.00  0.00     0.166 HD
ENDBRANCH   9  10
ENDBRANCH   7   9
ENDBRANCH   1   7
BRANCH   4  26
HETATM   26  C13 UNL     1      -8.893   3.248  11.148  1.00  0.00     0.252 C 
HETATM   27  O1  UNL     1     -10.168   3.246  11.037  1.00  0.00    -0.268 OA
HETATM   28  N8  UNL     1      -8.218   4.095  10.236  1.00  0.00    -0.342 N 
ATOM     29  H8  UNL     1      -7.200   4.141  10.286  1.00  0.00     0.163 HD
BRANCH  28  30
HETATM   30  C14 UNL     1      -8.887   4.893   9.243  1.00  0.00     0.186 C 
BRANCH  30  31
HETATM   31  C15 UNL     1      -9.254   6.269   9.708  1.00  0.00     0.046 C 
BRANCH  31  32
HETATM   32  C16 UNL     1      -8.232   7.327   9.483  1.00  0.00     0.116 C 
BRANCH  32  33
HETATM   33  C17 UNL     1      -8.705   8.681   9.851  1.00  0.00     0.172 C 
HETATM   34  O2  UNL     1      -8.072   9.700   9.480  1.00  0.00    -0.648 OA
HETATM   35  O3  UNL     1      -9.860   8.913  10.615  1.00  0.00    -0.648 OA
ENDBRANCH  32  33
ENDBRANCH  31  32
ENDBRANCH  30  31
BRANCH  30  36
HETATM   36  C18 UNL     1      -8.187   4.898   7.946  1.00  0.00     0.196 C 
HETATM   37  O4  UNL     1      -8.781   5.078   6.843  1.00  0.00    -0.646 OA
HETATM   38  O5  UNL     1      -6.815   4.704   7.874  1.00  0.00    -0.646 OA
ENDBRANCH  30  36
ENDBRANCH  28  30
ENDBRANCH   4  26
TORSDOF 9
ENDMDL
