MODEL 2
REMARK VINA RESULT: -9.015998526      1.882      2.138
REMARK  4 active torsions:
REMARK  status: ('A' for Active; 'I' for Inactive)
REMARK    1  A    between atoms: O1_2  and  C2_3 
REMARK    2  A    between atoms: C5_6  and  O2_7 
REMARK    3  A    between atoms: C7_9  and  C8_10 
REMARK    4  A    between atoms: C8_10  and  C9_11 
ROOT
HETATM    1  C9  UNL     1      30.919  10.196   0.505  1.00  0.00    -0.013 A 
HETATM    2  C10 UNL     1      32.130  10.401   1.234  1.00  0.00     0.101 A 
HETATM    3  N1  UNL     1      32.250  10.151   2.533  1.00  0.00    -0.351 N 
ATOM      4  H1  UNL     1      33.149  10.326   2.982  1.00  0.00     0.166 HD
HETATM    5  C11 UNL     1      31.243   9.678   3.280  1.00  0.00     0.121 A 
HETATM    6  N2  UNL     1      31.426   9.402   4.590  1.00  0.00    -0.316 N 
ATOM      7  H2  UNL     1      32.331   9.583   5.027  1.00  0.00     0.170 HD
HETATM    8  C12 UNL     1      30.432   8.898   5.309  1.00  0.00     0.195 A 
HETATM    9  N3  UNL     1      30.632   8.605   6.712  1.00  0.00    -0.063 NA
HETATM   10  N4  UNL     1      29.244   8.664   4.721  1.00  0.00    -0.318 N 
ATOM     11  H4  UNL     1      28.483   8.274   5.276  1.00  0.00     0.169 HD
HETATM   12  C13 UNL     1      29.033   8.937   3.386  1.00  0.00     0.133 A 
HETATM   13  N5  UNL     1      27.767   8.574   2.906  1.00  0.00    -0.082 NA
HETATM   14  C14 UNL     1      30.043   9.458   2.637  1.00  0.00     0.056 A 
HETATM   15  C15 UNL     1      29.897   9.722   1.270  1.00  0.00    -0.033 A 
HETATM   16  C16 UNL     1      28.557   9.613   0.661  1.00  0.00     0.050 C 
ENDROOT
BRANCH   1  17
HETATM   17  C8  UNL     1      30.988  10.406  -0.914  1.00  0.00     0.027 C 
BRANCH  17  18
HETATM   18  C7  UNL     1      30.381  11.462  -1.659  1.00  0.00     0.001 A 
HETATM   19  C5  UNL     1      30.938  12.723  -1.796  1.00  0.00     0.078 A 
HETATM   20  C4  UNL     1      30.375  13.711  -2.554  1.00  0.00     0.040 A 
HETATM   21  C3  UNL     1      29.207  13.448  -3.211  1.00  0.00     0.039 A 
HETATM   22  C2  UNL     1      28.583  12.231  -3.133  1.00  0.00     0.069 A 
HETATM   23  C17 UNL     1      29.177  11.267  -2.364  1.00  0.00     0.051 A 
BRANCH  19  24
HETATM   24  O2  UNL     1      32.134  13.037  -1.128  1.00  0.00    -0.355 OA
HETATM   25  C6  UNL     1      32.636  14.337  -1.151  1.00  0.00     0.210 C 
ENDBRANCH  19  24
BRANCH  22  26
HETATM   26  O1  UNL     1      27.388  12.008  -3.820  1.00  0.00    -0.356 OA
HETATM   27  C1  UNL     1      27.059  12.722  -4.978  1.00  0.00     0.210 C 
ENDBRANCH  22  26
ENDBRANCH  17  18
ENDBRANCH   1  17
TORSDOF 4
ENDMDL
