MODEL 9
REMARK VINA RESULT: -8.721669834      3.948      6.627
REMARK  4 active torsions:
REMARK  status: ('A' for Active; 'I' for Inactive)
REMARK    1  A    between atoms: O1_2  and  C2_3 
REMARK    2  A    between atoms: C5_6  and  O2_7 
REMARK    3  A    between atoms: C7_9  and  C8_10 
REMARK    4  A    between atoms: C8_10  and  C9_11 
ROOT
HETATM    1  C9  UNL     1      30.372  14.379  -1.458  1.00  0.00    -0.013 A 
HETATM    2  C10 UNL     1      30.860  14.543  -2.791  1.00  0.00     0.101 A 
HETATM    3  N1  UNL     1      30.200  14.128  -3.865  1.00  0.00    -0.351 N 
ATOM      4  H1  UNL     1      30.617  14.281  -4.783  1.00  0.00     0.166 HD
HETATM    5  C11 UNL     1      29.009  13.516  -3.798  1.00  0.00     0.121 A 
HETATM    6  N2  UNL     1      28.358  13.147  -4.923  1.00  0.00    -0.316 N 
ATOM      7  H2  UNL     1      28.787  13.305  -5.835  1.00  0.00     0.170 HD
HETATM    8  C12 UNL     1      27.162  12.578  -4.843  1.00  0.00     0.195 A 
HETATM    9  N3  UNL     1      26.469  12.183  -6.050  1.00  0.00    -0.063 NA
HETATM   10  N4  UNL     1      26.607  12.376  -3.634  1.00  0.00    -0.318 N 
ATOM     11  H4  UNL     1      25.686  11.940  -3.576  1.00  0.00     0.169 HD
HETATM   12  C13 UNL     1      27.251  12.743  -2.472  1.00  0.00     0.133 A 
HETATM   13  N5  UNL     1      26.514  12.529  -1.299  1.00  0.00    -0.082 NA
HETATM   14  C14 UNL     1      28.480  13.325  -2.538  1.00  0.00     0.056 A 
HETATM   15  C15 UNL     1      29.166  13.751  -1.395  1.00  0.00    -0.033 A 
HETATM   16  C16 UNL     1      28.631  13.391  -0.067  1.00  0.00     0.050 C 
ENDROOT
BRANCH   1  17
HETATM   17  C8  UNL     1      31.152  14.985  -0.416  1.00  0.00     0.027 C 
BRANCH  17  18
HETATM   18  C7  UNL     1      32.292  14.430   0.240  1.00  0.00     0.001 A 
HETATM   19  C5  UNL     1      33.569  14.958   0.139  1.00  0.00     0.078 A 
HETATM   20  C4  UNL     1      34.644  14.449   0.814  1.00  0.00     0.040 A 
HETATM   21  C3  UNL     1      34.456  13.370   1.629  1.00  0.00     0.039 A 
HETATM   22  C2  UNL     1      33.229  12.781   1.789  1.00  0.00     0.069 A 
HETATM   23  C17 UNL     1      32.178  13.317   1.097  1.00  0.00     0.051 A 
BRANCH  19  24
HETATM   24  O2  UNL     1      33.807  16.062  -0.696  1.00  0.00    -0.355 OA
HETATM   25  C6  UNL     1      34.273  17.263  -0.166  1.00  0.00     0.210 C 
ENDBRANCH  19  24
BRANCH  22  26
HETATM   26  O1  UNL     1      33.085  11.676   2.630  1.00  0.00    -0.356 OA
HETATM   27  C1  UNL     1      32.510  10.480   2.186  1.00  0.00     0.210 C 
ENDBRANCH  22  26
ENDBRANCH  17  18
ENDBRANCH   1  17
TORSDOF 4
ENDMDL
