MODEL 1
REMARK VINA RESULT: -9.327113337      0.000      0.000
REMARK  4 active torsions:
REMARK  status: ('A' for Active; 'I' for Inactive)
REMARK    1  A    between atoms: O1_2  and  C2_3 
REMARK    2  A    between atoms: C5_6  and  O2_7 
REMARK    3  A    between atoms: C7_9  and  C8_10 
REMARK    4  A    between atoms: C8_10  and  C9_11 
ROOT
HETATM    1  C9  UNL     1      29.041  12.602   1.145  1.00  0.00    -0.013 A 
HETATM    2  C10 UNL     1      30.054  13.009   2.066  1.00  0.00     0.101 A 
HETATM    3  N1  UNL     1      30.676  12.167   2.884  1.00  0.00    -0.351 N 
ATOM      4  H1  UNL     1      31.387  12.537   3.515  1.00  0.00     0.166 HD
HETATM    5  C11 UNL     1      30.411  10.854   2.918  1.00  0.00     0.121 A 
HETATM    6  N2  UNL     1      31.099  10.032   3.741  1.00  0.00    -0.316 N 
ATOM      7  H2  UNL     1      31.808  10.415   4.367  1.00  0.00     0.170 HD
HETATM    8  C12 UNL     1      30.854   8.728   3.736  1.00  0.00     0.195 A 
HETATM    9  N3  UNL     1      31.592   7.852   4.619  1.00  0.00    -0.063 NA
HETATM   10  N4  UNL     1      29.918   8.236   2.904  1.00  0.00    -0.318 N 
ATOM     11  H4  UNL     1      29.733   7.233   2.901  1.00  0.00     0.169 HD
HETATM   12  C13 UNL     1      29.203   9.054   2.055  1.00  0.00     0.133 A 
HETATM   13  N5  UNL     1      28.314   8.383   1.204  1.00  0.00    -0.082 NA
HETATM   14  C14 UNL     1      29.441  10.394   2.052  1.00  0.00     0.056 A 
HETATM   15  C15 UNL     1      28.771  11.268   1.188  1.00  0.00    -0.033 A 
HETATM   16  C16 UNL     1      27.640  10.755   0.390  1.00  0.00     0.050 C 
ENDROOT
BRANCH   1  17
HETATM   17  C8  UNL     1      28.550  13.614   0.252  1.00  0.00     0.027 C 
BRANCH  17  18
HETATM   18  C7  UNL     1      28.970  13.856  -1.090  1.00  0.00     0.001 A 
HETATM   19  C5  UNL     1      29.942  14.781  -1.436  1.00  0.00     0.078 A 
HETATM   20  C4  UNL     1      30.374  14.967  -2.719  1.00  0.00     0.040 A 
HETATM   21  C3  UNL     1      29.825  14.208  -3.713  1.00  0.00     0.039 A 
HETATM   22  C2  UNL     1      28.857  13.271  -3.465  1.00  0.00     0.069 A 
HETATM   23  C17 UNL     1      28.450  13.113  -2.169  1.00  0.00     0.051 A 
BRANCH  19  24
HETATM   24  O2  UNL     1      30.524  15.588  -0.445  1.00  0.00    -0.355 OA
HETATM   25  C6  UNL     1      31.875  15.457  -0.129  1.00  0.00     0.210 C 
ENDBRANCH  19  24
BRANCH  22  26
HETATM   26  O1  UNL     1      28.322  12.520  -4.514  1.00  0.00    -0.356 OA
HETATM   27  C1  UNL     1      26.998  12.684  -4.938  1.00  0.00     0.210 C 
ENDBRANCH  22  26
ENDBRANCH  17  18
ENDBRANCH   1  17
TORSDOF 4
ENDMDL
