MODEL 3
REMARK VINA RESULT: -9.013817953      2.282      2.865
REMARK  4 active torsions:
REMARK  status: ('A' for Active; 'I' for Inactive)
REMARK    1  A    between atoms: O1_2  and  C2_3 
REMARK    2  A    between atoms: C5_6  and  O2_7 
REMARK    3  A    between atoms: C7_9  and  C8_10 
REMARK    4  A    between atoms: C8_10  and  C9_11 
ROOT
HETATM    1  C9  UNL     1      30.499  10.354  -0.060  1.00  0.00    -0.013 A 
HETATM    2  C10 UNL     1      31.755  10.713   0.520  1.00  0.00     0.101 A 
HETATM    3  N1  UNL     1      32.026  10.577   1.813  1.00  0.00    -0.351 N 
ATOM      4  H1  UNL     1      32.946  10.859   2.151  1.00  0.00     0.166 HD
HETATM    5  C11 UNL     1      31.144  10.086   2.695  1.00  0.00     0.121 A 
HETATM    6  N2  UNL     1      31.480   9.931   3.995  1.00  0.00    -0.316 N 
ATOM      7  H2  UNL     1      32.404  10.217   4.319  1.00  0.00     0.170 HD
HETATM    8  C12 UNL     1      30.611   9.407   4.849  1.00  0.00     0.195 A 
HETATM    9  N3  UNL     1      30.975   9.243   6.240  1.00  0.00    -0.063 NA
HETATM   10  N4  UNL     1      29.396   9.032   4.408  1.00  0.00    -0.318 N 
ATOM     11  H4  UNL     1      28.731   8.628   5.067  1.00  0.00     0.169 HD
HETATM   12  C13 UNL     1      29.029   9.180   3.087  1.00  0.00     0.133 A 
HETATM   13  N5  UNL     1      27.758   8.680   2.771  1.00  0.00    -0.082 NA
HETATM   14  C14 UNL     1      29.909   9.720   2.200  1.00  0.00     0.056 A 
HETATM   15  C15 UNL     1      29.605   9.862   0.842  1.00  0.00    -0.033 A 
HETATM   16  C16 UNL     1      28.225   9.598   0.388  1.00  0.00     0.050 C 
ENDROOT
BRANCH   1  17
HETATM   17  C8  UNL     1      30.407  10.456  -1.489  1.00  0.00     0.027 C 
BRANCH  17  18
HETATM   18  C7  UNL     1      30.555  11.635  -2.280  1.00  0.00     0.001 A 
HETATM   19  C5  UNL     1      29.634  12.670  -2.294  1.00  0.00     0.078 A 
HETATM   20  C4  UNL     1      29.811  13.818  -3.015  1.00  0.00     0.040 A 
HETATM   21  C3  UNL     1      30.948  13.958  -3.758  1.00  0.00     0.039 A 
HETATM   22  C2  UNL     1      31.913  12.986  -3.805  1.00  0.00     0.069 A 
HETATM   23  C17 UNL     1      31.701  11.851  -3.071  1.00  0.00     0.051 A 
BRANCH  19  24
HETATM   24  O2  UNL     1      28.447  12.562  -1.551  1.00  0.00    -0.355 OA
HETATM   25  C6  UNL     1      28.222  13.389  -0.453  1.00  0.00     0.210 C 
ENDBRANCH  19  24
BRANCH  22  26
HETATM   26  O1  UNL     1      33.058  13.171  -4.582  1.00  0.00    -0.356 OA
HETATM   27  C1  UNL     1      33.300  12.412  -5.733  1.00  0.00     0.210 C 
ENDBRANCH  22  26
ENDBRANCH  17  18
ENDBRANCH   1  17
TORSDOF 4
ENDMDL
