MODEL 6
REMARK VINA RESULT: -9.730757558      3.210      5.272
REMARK  9 active torsions:
REMARK  status: ('A' for Active; 'I' for Inactive)
REMARK    1  A    between atoms: N1_2  and  C2_3 
REMARK    2  A    between atoms: N1_2  and  C9_20 
REMARK    3  A    between atoms: C2_3  and  C3_4 
REMARK    4  A    between atoms: C12_23  and  C13_24 
REMARK       I    between atoms: C13_24  and  N8_26 
REMARK    5  A    between atoms: N8_26  and  C14_28 
REMARK    6  A    between atoms: C14_28  and  C15_29 
REMARK    7  A    between atoms: C14_28  and  C18_34 
REMARK    8  A    between atoms: C15_29  and  C16_30 
REMARK    9  A    between atoms: C16_30  and  C17_31 
ROOT
HETATM    1  C9  UNL     1      31.409  15.266   0.853  1.00  0.00     0.030 A 
HETATM    2  C10 UNL     1      32.672  15.778   1.038  1.00  0.00     0.030 A 
HETATM    3  C11 UNL     1      32.947  17.112   0.760  1.00  0.00     0.019 A 
HETATM    4  C12 UNL     1      31.992  17.984   0.292  1.00  0.00     0.032 A 
HETATM    5  C19 UNL     1      30.729  17.465   0.109  1.00  0.00     0.019 A 
HETATM    6  C20 UNL     1      30.423  16.148   0.376  1.00  0.00     0.030 A 
ENDROOT
BRANCH   1   7
HETATM    7  N1  UNL     1      31.087  13.915   1.122  1.00  0.00    -0.380 N 
HETATM    8  C1  UNL     1      30.476  13.612   2.424  1.00  0.00     0.150 C 
BRANCH   7   9
HETATM    9  C2  UNL     1      31.299  12.815   0.250  1.00  0.00     0.181 C 
BRANCH   9  10
HETATM   10  C3  UNL     1      30.537  12.911  -1.031  1.00  0.00     0.043 A 
HETATM   11  C4  UNL     1      31.210  13.193  -2.201  1.00  0.00     0.116 A 
HETATM   12  N2  UNL     1      30.550  13.285  -3.386  1.00  0.00    -0.348 N 
HETATM   13  C5  UNL     1      29.220  13.106  -3.456  1.00  0.00     0.138 A 
ATOM     14  H2  UNL     1      31.073  13.494  -4.235  1.00  0.00     0.167 HD
HETATM   15  N3  UNL     1      28.531  13.192  -4.624  1.00  0.00    -0.315 N 
HETATM   16  C8  UNL     1      28.541  12.825  -2.298  1.00  0.00     0.119 A 
HETATM   17  C6  UNL     1      27.199  13.013  -4.696  1.00  0.00     0.195 A 
ATOM     18  H3  UNL     1      29.044  13.401  -5.481  1.00  0.00     0.170 HD
HETATM   19  N4  UNL     1      26.529  13.118  -5.955  1.00  0.00    -0.063 NA
HETATM   20  N5  UNL     1      26.549  12.740  -3.560  1.00  0.00    -0.317 N 
HETATM   21  C7  UNL     1      27.176  12.641  -2.372  1.00  0.00     0.149 A 
ATOM     22  H5  UNL     1      25.538  12.601  -3.594  1.00  0.00     0.169 HD
HETATM   23  N6  UNL     1      26.492  12.347  -1.164  1.00  0.00    -0.080 NA
HETATM   24  N7  UNL     1      29.207  12.733  -1.119  1.00  0.00    -0.351 N 
ATOM     25  H7  UNL     1      28.681  12.523  -0.271  1.00  0.00     0.166 HD
ENDBRANCH   9  10
ENDBRANCH   7   9
ENDBRANCH   1   7
BRANCH   4  26
HETATM   26  C13 UNL     1      32.263  19.387   0.015  1.00  0.00     0.252 C 
HETATM   27  O1  UNL     1      33.236  19.996   0.582  1.00  0.00    -0.268 OA
HETATM   28  N8  UNL     1      31.503  20.182  -0.876  1.00  0.00    -0.342 N 
ATOM     29  H8  UNL     1      30.720  19.745  -1.362  1.00  0.00     0.163 HD
BRANCH  28  30
HETATM   30  C14 UNL     1      31.774  21.572  -1.135  1.00  0.00     0.186 C 
BRANCH  30  31
HETATM   31  C15 UNL     1      32.516  21.825  -2.412  1.00  0.00     0.046 C 
BRANCH  31  32
HETATM   32  C16 UNL     1      33.184  20.643  -3.020  1.00  0.00     0.116 C 
BRANCH  32  33
HETATM   33  C17 UNL     1      34.595  20.489  -2.595  1.00  0.00     0.172 C 
HETATM   34  O2  UNL     1      35.349  21.490  -2.512  1.00  0.00    -0.648 OA
HETATM   35  O3  UNL     1      35.170  19.252  -2.264  1.00  0.00    -0.648 OA
ENDBRANCH  32  33
ENDBRANCH  31  32
ENDBRANCH  30  31
BRANCH  30  36
HETATM   36  C18 UNL     1      30.579  22.423  -0.993  1.00  0.00     0.196 C 
HETATM   37  O4  UNL     1      30.371  23.153   0.020  1.00  0.00    -0.646 OA
HETATM   38  O5  UNL     1      29.609  22.465  -1.983  1.00  0.00    -0.646 OA
ENDBRANCH  30  36
ENDBRANCH  28  30
ENDBRANCH   4  26
TORSDOF 9
ENDMDL
