MODEL 4
REMARK VINA RESULT: -9.808329525      0.806      1.259
REMARK  9 active torsions:
REMARK  status: ('A' for Active; 'I' for Inactive)
REMARK    1  A    between atoms: N1_2  and  C2_3 
REMARK    2  A    between atoms: N1_2  and  C9_20 
REMARK    3  A    between atoms: C2_3  and  C3_4 
REMARK    4  A    between atoms: C12_23  and  C13_24 
REMARK       I    between atoms: C13_24  and  N8_26 
REMARK    5  A    between atoms: N8_26  and  C14_28 
REMARK    6  A    between atoms: C14_28  and  C15_29 
REMARK    7  A    between atoms: C14_28  and  C18_34 
REMARK    8  A    between atoms: C15_29  and  C16_30 
REMARK    9  A    between atoms: C16_30  and  C17_31 
ROOT
HETATM    1  C9  UNL     1      31.399  15.367   1.039  1.00  0.00     0.030 A 
HETATM    2  C10 UNL     1      30.407  16.135   0.476  1.00  0.00     0.030 A 
HETATM    3  C11 UNL     1      30.661  17.442   0.076  1.00  0.00     0.019 A 
HETATM    4  C12 UNL     1      31.893  18.034   0.215  1.00  0.00     0.032 A 
HETATM    5  C19 UNL     1      32.883  17.259   0.779  1.00  0.00     0.019 A 
HETATM    6  C20 UNL     1      32.665  15.961   1.186  1.00  0.00     0.030 A 
ENDROOT
BRANCH   1   7
HETATM    7  N1  UNL     1      31.183  14.034   1.463  1.00  0.00    -0.380 N 
HETATM    8  C1  UNL     1      30.461  13.836   2.727  1.00  0.00     0.150 C 
BRANCH   7   9
HETATM    9  C2  UNL     1      31.603  12.861   0.782  1.00  0.00     0.181 C 
BRANCH   9  10
HETATM   10  C3  UNL     1      32.026  11.758   1.696  1.00  0.00     0.043 A 
HETATM   11  C4  UNL     1      33.263  11.815   2.301  1.00  0.00     0.116 A 
HETATM   12  N2  UNL     1      33.680  10.831   3.140  1.00  0.00    -0.348 N 
HETATM   13  C5  UNL     1      32.901   9.768   3.408  1.00  0.00     0.138 A 
ATOM     14  H2  UNL     1      34.600  10.899   3.574  1.00  0.00     0.167 HD
HETATM   15  N3  UNL     1      33.289   8.768   4.241  1.00  0.00    -0.315 N 
HETATM   16  C8  UNL     1      31.668   9.703   2.811  1.00  0.00     0.119 A 
HETATM   17  C6  UNL     1      32.510   7.704   4.509  1.00  0.00     0.195 A 
ATOM     18  H3  UNL     1      34.208   8.826   4.681  1.00  0.00     0.170 HD
HETATM   19  N4  UNL     1      32.974   6.681   5.394  1.00  0.00    -0.063 NA
HETATM   20  N5  UNL     1      31.310   7.651   3.921  1.00  0.00    -0.317 N 
HETATM   21  C7  UNL     1      30.869   8.612   3.086  1.00  0.00     0.149 A 
ATOM     22  H5  UNL     1      30.705   6.852   4.111  1.00  0.00     0.169 HD
HETATM   23  N6  UNL     1      29.596   8.563   2.462  1.00  0.00    -0.080 NA
HETATM   24  N7  UNL     1      31.258  10.690   1.974  1.00  0.00    -0.351 N 
ATOM     25  H7  UNL     1      30.338  10.619   1.543  1.00  0.00     0.166 HD
ENDBRANCH   9  10
ENDBRANCH   7   9
ENDBRANCH   1   7
BRANCH   4  26
HETATM   26  C13 UNL     1      32.176  19.395  -0.219  1.00  0.00     0.252 C 
HETATM   27  O1  UNL     1      33.134  20.066   0.299  1.00  0.00    -0.268 OA
HETATM   28  N8  UNL     1      31.444  20.078  -1.219  1.00  0.00    -0.342 N 
ATOM     29  H8  UNL     1      30.674  19.587  -1.672  1.00  0.00     0.163 HD
BRANCH  28  30
HETATM   30  C14 UNL     1      31.726  21.428  -1.634  1.00  0.00     0.186 C 
BRANCH  30  31
HETATM   31  C15 UNL     1      32.558  21.527  -2.876  1.00  0.00     0.046 C 
BRANCH  31  32
HETATM   32  C16 UNL     1      31.828  21.359  -4.162  1.00  0.00     0.116 C 
BRANCH  32  33
HETATM   33  C17 UNL     1      32.629  21.760  -5.341  1.00  0.00     0.172 C 
HETATM   34  O2  UNL     1      32.065  22.096  -6.412  1.00  0.00    -0.648 OA
HETATM   35  O3  UNL     1      34.033  21.792  -5.345  1.00  0.00    -0.648 OA
ENDBRANCH  32  33
ENDBRANCH  31  32
ENDBRANCH  30  31
BRANCH  30  36
HETATM   36  C18 UNL     1      30.520  22.274  -1.686  1.00  0.00     0.196 C 
HETATM   37  O4  UNL     1      29.356  21.803  -1.842  1.00  0.00    -0.646 OA
HETATM   38  O5  UNL     1      30.608  23.653  -1.562  1.00  0.00    -0.646 OA
ENDBRANCH  30  36
ENDBRANCH  28  30
ENDBRANCH   4  26
TORSDOF 9
ENDMDL
