MODEL 8
REMARK VINA RESULT: -9.693288334      2.932      5.051
REMARK  9 active torsions:
REMARK  status: ('A' for Active; 'I' for Inactive)
REMARK    1  A    between atoms: N1_2  and  C2_3 
REMARK    2  A    between atoms: N1_2  and  C9_20 
REMARK    3  A    between atoms: C2_3  and  C3_4 
REMARK    4  A    between atoms: C12_23  and  C13_24 
REMARK       I    between atoms: C13_24  and  N8_26 
REMARK    5  A    between atoms: N8_26  and  C14_28 
REMARK    6  A    between atoms: C14_28  and  C15_29 
REMARK    7  A    between atoms: C14_28  and  C18_34 
REMARK    8  A    between atoms: C15_29  and  C16_30 
REMARK    9  A    between atoms: C16_30  and  C17_31 
ROOT
HETATM    1  C9  UNL     1      31.757  15.182   1.147  1.00  0.00     0.030 A 
HETATM    2  C10 UNL     1      30.684  15.998   0.874  1.00  0.00     0.030 A 
HETATM    3  C11 UNL     1      30.875  17.323   0.503  1.00  0.00     0.019 A 
HETATM    4  C12 UNL     1      32.122  17.889   0.386  1.00  0.00     0.032 A 
HETATM    5  C19 UNL     1      33.193  17.066   0.661  1.00  0.00     0.019 A 
HETATM    6  C20 UNL     1      33.039  15.748   1.031  1.00  0.00     0.030 A 
ENDROOT
BRANCH   1   7
HETATM    7  N1  UNL     1      31.608  13.828   1.531  1.00  0.00    -0.380 N 
HETATM    8  C1  UNL     1      32.835  13.051   1.756  1.00  0.00     0.150 C 
BRANCH   7   9
HETATM    9  C2  UNL     1      30.380  13.142   1.719  1.00  0.00     0.181 C 
BRANCH   9  10
HETATM   10  C3  UNL     1      29.544  13.059   0.483  1.00  0.00     0.043 A 
HETATM   11  C4  UNL     1      28.171  13.016   0.595  1.00  0.00     0.116 A 
HETATM   12  N2  UNL     1      27.380  12.944  -0.508  1.00  0.00    -0.348 N 
HETATM   13  C5  UNL     1      27.909  12.911  -1.743  1.00  0.00     0.138 A 
ATOM     14  H2  UNL     1      26.367  12.913  -0.396  1.00  0.00     0.167 HD
HETATM   15  N3  UNL     1      27.145  12.838  -2.864  1.00  0.00    -0.315 N 
HETATM   16  C8  UNL     1      29.274  12.954  -1.864  1.00  0.00     0.119 A 
HETATM   17  C6  UNL     1      27.674  12.804  -4.101  1.00  0.00     0.195 A 
ATOM     18  H3  UNL     1      26.130  12.807  -2.764  1.00  0.00     0.170 HD
HETATM   19  N4  UNL     1      26.819  12.726  -5.245  1.00  0.00    -0.063 NA
HETATM   20  N5  UNL     1      29.007  12.847  -4.206  1.00  0.00    -0.317 N 
HETATM   21  C7  UNL     1      29.816  12.920  -3.132  1.00  0.00     0.149 A 
ATOM     22  H5  UNL     1      29.427  12.822  -5.136  1.00  0.00     0.169 HD
HETATM   23  N6  UNL     1      31.231  12.969  -3.238  1.00  0.00    -0.080 NA
HETATM   24  N7  UNL     1      30.058  13.027  -0.758  1.00  0.00    -0.351 N 
ATOM     25  H7  UNL     1      31.071  13.058  -0.874  1.00  0.00     0.166 HD
ENDBRANCH   9  10
ENDBRANCH   7   9
ENDBRANCH   1   7
BRANCH   4  26
HETATM   26  C13 UNL     1      32.335  19.270  -0.021  1.00  0.00     0.252 C 
HETATM   27  O1  UNL     1      33.343  19.935   0.404  1.00  0.00    -0.268 OA
HETATM   28  N8  UNL     1      31.479  19.981  -0.896  1.00  0.00    -0.342 N 
ATOM     29  H8  UNL     1      30.665  19.496  -1.272  1.00  0.00     0.163 HD
BRANCH  28  30
HETATM   30  C14 UNL     1      31.694  21.351  -1.285  1.00  0.00     0.186 C 
BRANCH  30  31
HETATM   31  C15 UNL     1      32.667  21.523  -2.410  1.00  0.00     0.046 C 
BRANCH  31  32
HETATM   32  C16 UNL     1      32.186  21.107  -3.756  1.00  0.00     0.116 C 
BRANCH  32  33
HETATM   33  C17 UNL     1      32.373  22.151  -4.789  1.00  0.00     0.172 C 
HETATM   34  O2  UNL     1      32.788  23.294  -4.473  1.00  0.00    -0.648 OA
HETATM   35  O3  UNL     1      32.107  21.944  -6.152  1.00  0.00    -0.648 OA
ENDBRANCH  32  33
ENDBRANCH  31  32
ENDBRANCH  30  31
BRANCH  30  36
HETATM   36  C18 UNL     1      30.436  22.088  -1.501  1.00  0.00     0.196 C 
HETATM   37  O4  UNL     1      29.313  21.515  -1.608  1.00  0.00    -0.646 OA
HETATM   38  O5  UNL     1      30.426  23.472  -1.596  1.00  0.00    -0.646 OA
ENDBRANCH  30  36
ENDBRANCH  28  30
ENDBRANCH   4  26
TORSDOF 9
ENDMDL
