MODEL 2
REMARK VINA RESULT: -9.929380371      1.085      1.300
REMARK  9 active torsions:
REMARK  status: ('A' for Active; 'I' for Inactive)
REMARK    1  A    between atoms: N1_2  and  C2_3 
REMARK    2  A    between atoms: N1_2  and  C9_20 
REMARK    3  A    between atoms: C2_3  and  C3_4 
REMARK    4  A    between atoms: C12_23  and  C13_24 
REMARK       I    between atoms: C13_24  and  N8_26 
REMARK    5  A    between atoms: N8_26  and  C14_28 
REMARK    6  A    between atoms: C14_28  and  C15_29 
REMARK    7  A    between atoms: C14_28  and  C18_34 
REMARK    8  A    between atoms: C15_29  and  C16_30 
REMARK    9  A    between atoms: C16_30  and  C17_31 
ROOT
HETATM    1  C9  UNL     1      30.880  14.655   0.515  1.00  0.00     0.030 A 
HETATM    2  C10 UNL     1      31.982  15.208   1.124  1.00  0.00     0.030 A 
HETATM    3  C11 UNL     1      32.313  16.542   0.919  1.00  0.00     0.019 A 
HETATM    4  C12 UNL     1      31.574  17.374   0.112  1.00  0.00     0.032 A 
HETATM    5  C19 UNL     1      30.471  16.814  -0.495  1.00  0.00     0.019 A 
HETATM    6  C20 UNL     1      30.115  15.495  -0.313  1.00  0.00     0.030 A 
ENDROOT
BRANCH   1   7
HETATM    7  N1  UNL     1      30.509  13.301   0.694  1.00  0.00    -0.380 N 
HETATM    8  C1  UNL     1      30.670  12.399  -0.455  1.00  0.00     0.150 C 
BRANCH   7   9
HETATM    9  C2  UNL     1      29.991  12.725   1.884  1.00  0.00     0.181 C 
BRANCH   9  10
HETATM   10  C3  UNL     1      30.861  11.655   2.459  1.00  0.00     0.043 A 
HETATM   11  C4  UNL     1      32.224  11.708   2.256  1.00  0.00     0.116 A 
HETATM   12  N2  UNL     1      33.046  10.753   2.767  1.00  0.00    -0.348 N 
HETATM   13  C5  UNL     1      32.558   9.727   3.485  1.00  0.00     0.138 A 
ATOM     14  H2  UNL     1      34.050  10.817   2.602  1.00  0.00     0.167 HD
HETATM   15  N3  UNL     1      33.354   8.757   4.007  1.00  0.00    -0.315 N 
HETATM   16  C8  UNL     1      31.204   9.666   3.691  1.00  0.00     0.119 A 
HETATM   17  C6  UNL     1      32.867   7.728   4.725  1.00  0.00     0.195 A 
ATOM     18  H3  UNL     1      34.360   8.811   3.848  1.00  0.00     0.170 HD
HETATM   19  N4  UNL     1      33.754   6.736   5.249  1.00  0.00    -0.063 NA
HETATM   20  N5  UNL     1      31.544   7.680   4.920  1.00  0.00    -0.317 N 
HETATM   21  C7  UNL     1      30.705   8.612   4.428  1.00  0.00     0.149 A 
ATOM     22  H5  UNL     1      31.155   6.908   5.462  1.00  0.00     0.169 HD
HETATM   23  N6  UNL     1      29.301   8.568   4.635  1.00  0.00    -0.080 NA
HETATM   24  N7  UNL     1      30.389  10.623   3.179  1.00  0.00    -0.351 N 
ATOM     25  H7  UNL     1      29.386  10.557   3.346  1.00  0.00     0.166 HD
ENDBRANCH   9  10
ENDBRANCH   7   9
ENDBRANCH   1   7
BRANCH   4  26
HETATM   26  C13 UNL     1      31.898  18.778  -0.094  1.00  0.00     0.252 C 
HETATM   27  O1  UNL     1      32.846  19.339   0.558  1.00  0.00    -0.268 OA
HETATM   28  N8  UNL     1      31.222  19.624  -1.006  1.00  0.00    -0.342 N 
ATOM     29  H8  UNL     1      30.463  19.226  -1.559  1.00  0.00     0.163 HD
BRANCH  28  30
HETATM   30  C14 UNL     1      31.544  21.015  -1.195  1.00  0.00     0.186 C 
BRANCH  30  31
HETATM   31  C15 UNL     1      32.543  21.269  -2.283  1.00  0.00     0.046 C 
BRANCH  31  32
HETATM   32  C16 UNL     1      32.088  20.968  -3.667  1.00  0.00     0.116 C 
BRANCH  32  33
HETATM   33  C17 UNL     1      32.271  22.104  -4.599  1.00  0.00     0.172 C 
HETATM   34  O2  UNL     1      31.939  21.999  -5.806  1.00  0.00    -0.648 OA
HETATM   35  O3  UNL     1      32.813  23.340  -4.211  1.00  0.00    -0.648 OA
ENDBRANCH  32  33
ENDBRANCH  31  32
ENDBRANCH  30  31
BRANCH  30  36
HETATM   36  C18 UNL     1      30.349  21.869  -1.308  1.00  0.00     0.196 C 
HETATM   37  O4  UNL     1      29.254  21.459  -1.793  1.00  0.00    -0.646 OA
HETATM   38  O5  UNL     1      30.369  23.187  -0.877  1.00  0.00    -0.646 OA
ENDBRANCH  30  36
ENDBRANCH  28  30
ENDBRANCH   4  26
TORSDOF 9
ENDMDL
