MODEL 19
REMARK VINA RESULT: -9.482328618      3.103      5.156
REMARK  9 active torsions:
REMARK  status: ('A' for Active; 'I' for Inactive)
REMARK    1  A    between atoms: N1_2  and  C2_3 
REMARK    2  A    between atoms: N1_2  and  C9_20 
REMARK    3  A    between atoms: C2_3  and  C3_4 
REMARK    4  A    between atoms: C12_23  and  C13_24 
REMARK       I    between atoms: C13_24  and  N8_26 
REMARK    5  A    between atoms: N8_26  and  C14_28 
REMARK    6  A    between atoms: C14_28  and  C15_29 
REMARK    7  A    between atoms: C14_28  and  C18_34 
REMARK    8  A    between atoms: C15_29  and  C16_30 
REMARK    9  A    between atoms: C16_30  and  C17_31 
ROOT
HETATM    1  C9  UNL     1      31.720  15.296   1.091  1.00  0.00     0.030 A 
HETATM    2  C10 UNL     1      30.615  16.024   0.720  1.00  0.00     0.030 A 
HETATM    3  C11 UNL     1      30.735  17.354   0.334  1.00  0.00     0.019 A 
HETATM    4  C12 UNL     1      31.943  18.010   0.299  1.00  0.00     0.032 A 
HETATM    5  C19 UNL     1      33.047  17.275   0.671  1.00  0.00     0.019 A 
HETATM    6  C20 UNL     1      32.962  15.955   1.059  1.00  0.00     0.030 A 
ENDROOT
BRANCH   1   7
HETATM    7  N1  UNL     1      31.643  13.942   1.493  1.00  0.00    -0.380 N 
HETATM    8  C1  UNL     1      32.909  13.231   1.717  1.00  0.00     0.150 C 
BRANCH   7   9
HETATM    9  C2  UNL     1      30.452  13.197   1.701  1.00  0.00     0.181 C 
BRANCH   9  10
HETATM   10  C3  UNL     1      29.591  13.095   0.484  1.00  0.00     0.043 A 
HETATM   11  C4  UNL     1      28.222  13.010   0.628  1.00  0.00     0.116 A 
HETATM   12  N2  UNL     1      27.407  12.918  -0.456  1.00  0.00    -0.348 N 
HETATM   13  C5  UNL     1      27.908  12.907  -1.703  1.00  0.00     0.138 A 
ATOM     14  H2  UNL     1      26.399  12.857  -0.320  1.00  0.00     0.167 HD
HETATM   15  N3  UNL     1      27.120  12.815  -2.806  1.00  0.00    -0.315 N 
HETATM   16  C8  UNL     1      29.268  12.992  -1.856  1.00  0.00     0.119 A 
HETATM   17  C6  UNL     1      27.620  12.803  -4.056  1.00  0.00     0.195 A 
ATOM     18  H3  UNL     1      26.110  12.753  -2.683  1.00  0.00     0.170 HD
HETATM   19  N4  UNL     1      26.741  12.704  -5.179  1.00  0.00    -0.063 NA
HETATM   20  N5  UNL     1      28.949  12.887  -4.192  1.00  0.00    -0.317 N 
HETATM   21  C7  UNL     1      29.780  12.980  -3.137  1.00  0.00     0.149 A 
ATOM     22  H5  UNL     1      29.347  12.879  -5.132  1.00  0.00     0.169 HD
HETATM   23  N6  UNL     1      31.190  13.072  -3.276  1.00  0.00    -0.080 NA
HETATM   24  N7  UNL     1      30.075  13.084  -0.769  1.00  0.00    -0.351 N 
ATOM     25  H7  UNL     1      31.084  13.146  -0.908  1.00  0.00     0.166 HD
ENDBRANCH   9  10
ENDBRANCH   7   9
ENDBRANCH   1   7
BRANCH   4  26
HETATM   26  C13 UNL     1      32.084  19.396  -0.122  1.00  0.00     0.252 C 
HETATM   27  O1  UNL     1      32.837  20.208   0.520  1.00  0.00    -0.268 OA
HETATM   28  N8  UNL     1      31.427  19.957  -1.244  1.00  0.00    -0.342 N 
ATOM     29  H8  UNL     1      30.821  19.352  -1.798  1.00  0.00     0.163 HD
BRANCH  28  30
HETATM   30  C14 UNL     1      31.566  21.332  -1.646  1.00  0.00     0.186 C 
BRANCH  30  31
HETATM   31  C15 UNL     1      32.113  21.514  -3.029  1.00  0.00     0.046 C 
BRANCH  31  32
HETATM   32  C16 UNL     1      33.314  20.702  -3.365  1.00  0.00     0.116 C 
BRANCH  32  33
HETATM   33  C17 UNL     1      34.511  21.082  -2.580  1.00  0.00     0.172 C 
HETATM   34  O2  UNL     1      35.135  20.221  -1.911  1.00  0.00    -0.648 OA
HETATM   35  O3  UNL     1      35.018  22.391  -2.532  1.00  0.00    -0.648 OA
ENDBRANCH  32  33
ENDBRANCH  31  32
ENDBRANCH  30  31
BRANCH  30  36
HETATM   36  C18 UNL     1      30.346  22.124  -1.407  1.00  0.00     0.196 C 
HETATM   37  O4  UNL     1      29.247  21.885  -1.987  1.00  0.00    -0.646 OA
HETATM   38  O5  UNL     1      30.347  23.187  -0.516  1.00  0.00    -0.646 OA
ENDBRANCH  30  36
ENDBRANCH  28  30
ENDBRANCH   4  26
TORSDOF 9
ENDMDL
