MODEL 1
REMARK VINA RESULT: -10.104058683      0.000      0.000
REMARK  9 active torsions:
REMARK  status: ('A' for Active; 'I' for Inactive)
REMARK    1  A    between atoms: N1_2  and  C2_3 
REMARK    2  A    between atoms: N1_2  and  C9_20 
REMARK    3  A    between atoms: C2_3  and  C3_4 
REMARK    4  A    between atoms: C12_23  and  C13_24 
REMARK       I    between atoms: C13_24  and  N8_26 
REMARK    5  A    between atoms: N8_26  and  C14_28 
REMARK    6  A    between atoms: C14_28  and  C15_29 
REMARK    7  A    between atoms: C14_28  and  C18_34 
REMARK    8  A    between atoms: C15_29  and  C16_30 
REMARK    9  A    between atoms: C16_30  and  C17_31 
ROOT
HETATM    1  C9  UNL     1      31.078  15.291   0.561  1.00  0.00     0.030 A 
HETATM    2  C10 UNL     1      32.221  15.750   1.171  1.00  0.00     0.030 A 
HETATM    3  C11 UNL     1      32.658  17.054   0.973  1.00  0.00     0.019 A 
HETATM    4  C12 UNL     1      31.988  17.948   0.173  1.00  0.00     0.032 A 
HETATM    5  C19 UNL     1      30.842  17.481  -0.436  1.00  0.00     0.019 A 
HETATM    6  C20 UNL     1      30.382  16.195  -0.261  1.00  0.00     0.030 A 
ENDROOT
BRANCH   1   7
HETATM    7  N1  UNL     1      30.599  13.970   0.732  1.00  0.00    -0.380 N 
HETATM    8  C1  UNL     1      29.396  13.790   1.557  1.00  0.00     0.150 C 
BRANCH   7   9
HETATM    9  C2  UNL     1      31.173  12.794   0.183  1.00  0.00     0.181 C 
BRANCH   9  10
HETATM   10  C3  UNL     1      31.709  11.853   1.212  1.00  0.00     0.043 A 
HETATM   11  C4  UNL     1      32.920  12.125   1.813  1.00  0.00     0.116 A 
HETATM   12  N2  UNL     1      33.438  11.293   2.755  1.00  0.00    -0.348 N 
HETATM   13  C5  UNL     1      32.788  10.178   3.131  1.00  0.00     0.138 A 
ATOM     14  H2  UNL     1      34.335  11.518   3.183  1.00  0.00     0.167 HD
HETATM   15  N3  UNL     1      33.280   9.326   4.069  1.00  0.00    -0.315 N 
HETATM   16  C8  UNL     1      31.583   9.900   2.540  1.00  0.00     0.119 A 
HETATM   17  C6  UNL     1      32.630   8.210   4.446  1.00  0.00     0.195 A 
ATOM     18  H3  UNL     1      34.176   9.542   4.504  1.00  0.00     0.170 HD
HETATM   19  N4  UNL     1      33.198   7.350   5.439  1.00  0.00    -0.063 NA
HETATM   20  N5  UNL     1      31.455   7.949   3.862  1.00  0.00    -0.317 N 
HETATM   21  C7  UNL     1      30.917   8.756   2.927  1.00  0.00     0.149 A 
ATOM     22  H5  UNL     1      30.947   7.107   4.135  1.00  0.00     0.169 HD
HETATM   23  N6  UNL     1      29.669   8.486   2.306  1.00  0.00    -0.080 NA
HETATM   24  N7  UNL     1      31.072  10.735   1.600  1.00  0.00    -0.351 N 
ATOM     25  H7  UNL     1      30.174  10.508   1.174  1.00  0.00     0.166 HD
ENDBRANCH   9  10
ENDBRANCH   7   9
ENDBRANCH   1   7
BRANCH   4  26
HETATM   26  C13 UNL     1      32.424  19.322  -0.027  1.00  0.00     0.252 C 
HETATM   27  O1  UNL     1      33.586  19.706   0.347  1.00  0.00    -0.268 OA
HETATM   28  N8  UNL     1      31.633  20.327  -0.633  1.00  0.00    -0.342 N 
ATOM     29  H8  UNL     1      30.700  20.074  -0.958  1.00  0.00     0.163 HD
BRANCH  28  30
HETATM   30  C14 UNL     1      32.071  21.687  -0.816  1.00  0.00     0.186 C 
BRANCH  30  31
HETATM   31  C15 UNL     1      32.656  21.965  -2.167  1.00  0.00     0.046 C 
BRANCH  31  32
HETATM   32  C16 UNL     1      31.927  21.381  -3.325  1.00  0.00     0.116 C 
BRANCH  32  33
HETATM   33  C17 UNL     1      32.610  21.611  -4.618  1.00  0.00     0.172 C 
HETATM   34  O2  UNL     1      33.845  21.410  -4.732  1.00  0.00    -0.648 OA
HETATM   35  O3  UNL     1      31.946  22.054  -5.773  1.00  0.00    -0.648 OA
ENDBRANCH  32  33
ENDBRANCH  31  32
ENDBRANCH  30  31
BRANCH  30  36
HETATM   36  C18 UNL     1      31.050  22.674  -0.422  1.00  0.00     0.196 C 
HETATM   37  O4  UNL     1      29.829  22.563  -0.736  1.00  0.00    -0.646 OA
HETATM   38  O5  UNL     1      31.388  23.792   0.326  1.00  0.00    -0.646 OA
ENDBRANCH  30  36
ENDBRANCH  28  30
ENDBRANCH   4  26
TORSDOF 9
ENDMDL
