MODEL 2
REMARK VINA RESULT: -10.334657120      2.729     11.052
REMARK  15 active torsions:
REMARK  status: ('A' for Active; 'I' for Inactive)
REMARK    1  A    between atoms: C1_2  and  C2_4 
REMARK    2  A    between atoms: N2_8  and  C6_9 
REMARK    3  A    between atoms: C7_11  and  C8_12 
REMARK    4  A    between atoms: C8_12  and  O3_13 
REMARK    5  A    between atoms: O3_13  and  P1_14 
REMARK    6  A    between atoms: P1_14  and  O6_17 
REMARK    7  A    between atoms: O6_17  and  P2_18 
REMARK    8  A    between atoms: P2_18  and  O9_21 
REMARK    9  A    between atoms: O9_21  and  C9_22 
REMARK   10  A    between atoms: C9_22  and  C10_23 
REMARK   11  A    between atoms: C11_25  and  N3_26 
REMARK   12  A    between atoms: C17_39  and  O11_40 
REMARK   13  A    between atoms: C18_42  and  O12_43 
REMARK   14  A    between atoms: C19_45  and  O13_46 
REMARK   15  A    between atoms: C20_48  and  O14_49 
ROOT
HETATM    1  P2  UNL     1      94.067  18.611   3.610  1.00  0.00     0.417 P 
HETATM    2  O7  UNL     1      93.608  19.536   2.522  1.00  0.00    -0.624 OA
HETATM    3  O8  UNL     1      92.807  18.662   4.822  1.00  0.00    -0.624 OA
ENDROOT
BRANCH   1   4
HETATM    4  O6  UNL     1      94.304  17.089   3.132  1.00  0.00    -0.180 OA
BRANCH   4   5
HETATM    5  P1  UNL     1      95.706  16.731   2.331  1.00  0.00     0.417 P 
HETATM    6  O4  UNL     1      96.568  17.886   2.050  1.00  0.00    -0.624 OA
HETATM    7  O5  UNL     1      95.225  16.165   0.698  1.00  0.00    -0.624 OA
BRANCH   5   8
HETATM    8  O3  UNL     1      96.447  15.429   2.992  1.00  0.00    -0.287 OA
BRANCH   8   9
HETATM    9  C8  UNL     1      95.989  15.109   4.289  1.00  0.00     0.216 C 
BRANCH   9  10
HETATM   10  C7  UNL     1      96.746  16.186   5.125  1.00  0.00     0.180 C 
HETATM   11  O2  UNL     1      96.049  16.419   6.284  1.00  0.00    -0.353 OA
HETATM   12  C6  UNL     1      96.884  16.412   7.377  1.00  0.00     0.259 C 
HETATM   13  C20 UNL     1      98.273  16.657   6.776  1.00  0.00     0.198 C 
HETATM   14  C19 UNL     1      98.126  15.820   5.471  1.00  0.00     0.182 C 
BRANCH  12  15
HETATM   15  N2  UNL     1      96.883  15.010   7.846  1.00  0.00    -0.336 N 
HETATM   16  C5  UNL     1      95.813  14.225   7.708  1.00  0.00     0.093 A 
HETATM   17  C4  UNL     1      95.812  12.949   8.268  1.00  0.00     0.018 A 
HETATM   18  C3  UNL     1      96.906  12.510   8.958  1.00  0.00     0.019 A 
HETATM   19  C2  UNL     1      97.985  13.344   9.082  1.00  0.00     0.044 A 
HETATM   20  C21 UNL     1      97.965  14.601   8.519  1.00  0.00     0.110 A 
BRANCH  19  21
HETATM   21  C1  UNL     1      99.151  12.942   9.846  1.00  0.00     0.266 C 
HETATM   22  N1  UNL     1      99.070  11.854  10.743  1.00  0.00    -0.057 NA
HETATM   23  O1  UNL     1     100.280  13.535   9.754  1.00  0.00    -0.271 OA
ENDBRANCH  19  21
ENDBRANCH  12  15
BRANCH  13  24
HETATM   24  O14 UNL     1      98.376  17.981   6.352  1.00  0.00    -0.388 OA
ATOM     25  H14 UNL     1      97.837  18.114   5.581  1.00  0.00     0.210 HD
ENDBRANCH  13  24
BRANCH  14  26
HETATM   26  O13 UNL     1      99.096  16.206   4.538  1.00  0.00    -0.390 OA
ATOM     27  H13 UNL     1      99.925  16.486   4.910  1.00  0.00     0.210 HD
ENDBRANCH  14  26
ENDBRANCH   9  10
ENDBRANCH   8   9
ENDBRANCH   5   8
ENDBRANCH   4   5
ENDBRANCH   1   4
BRANCH   1  28
HETATM   28  O9  UNL     1      95.364  19.433   4.406  1.00  0.00    -0.287 OA
BRANCH  28  29
HETATM   29  C9  UNL     1      95.042  20.811   4.173  1.00  0.00     0.216 C 
BRANCH  29  30
HETATM   30  C10 UNL     1      94.975  21.509   5.463  1.00  0.00     0.180 C 
HETATM   31  O10 UNL     1      93.613  21.598   5.869  1.00  0.00    -0.353 OA
HETATM   32  C11 UNL     1      93.792  22.217   7.124  1.00  0.00     0.262 C 
HETATM   33  C17 UNL     1      94.655  21.086   7.746  1.00  0.00     0.198 C 
HETATM   34  C18 UNL     1      95.687  20.904   6.596  1.00  0.00     0.182 C 
BRANCH  32  35
HETATM   35  N3  UNL     1      92.539  22.375   7.753  1.00  0.00    -0.297 N 
HETATM   36  C12 UNL     1      92.125  21.897   8.975  1.00  0.00     0.188 A 
HETATM   37  N4  UNL     1      90.868  22.266   9.222  1.00  0.00    -0.346 N 
HETATM   38  C13 UNL     1      90.462  23.005   8.148  1.00  0.00     0.119 A 
ATOM     39  H4  UNL     1      90.318  22.042  10.051  1.00  0.00     0.167 HD
HETATM   40  C14 UNL     1      89.272  23.615   7.875  1.00  0.00     0.148 A 
HETATM   41  C16 UNL     1      91.514  23.056   7.247  1.00  0.00     0.142 A 
HETATM   42  N5  UNL     1      88.203  23.595   8.816  1.00  0.00    -0.080 NA
HETATM   43  N6  UNL     1      89.105  24.265   6.712  1.00  0.00    -0.339 N 
HETATM   44  C15 UNL     1      90.099  24.319   5.821  1.00  0.00     0.183 A 
ATOM     45  H6  UNL     1      88.216  24.719   6.507  1.00  0.00     0.167 HD
HETATM   46  N7  UNL     1      91.294  23.714   6.102  1.00  0.00    -0.336 N 
ATOM     47  H7  UNL     1      92.044  23.766   5.413  1.00  0.00     0.168 HD
ENDBRANCH  32  35
BRANCH  33  48
HETATM   48  O11 UNL     1      95.195  21.396   8.946  1.00  0.00    -0.388 OA
ATOM     49  H11 UNL     1      94.653  21.961   9.484  1.00  0.00     0.210 HD
ENDBRANCH  33  48
BRANCH  34  50
HETATM   50  O12 UNL     1      96.791  21.735   6.961  1.00  0.00    -0.390 OA
ATOM     51  H12 UNL     1      96.706  21.991   7.872  1.00  0.00     0.210 HD
ENDBRANCH  34  50
ENDBRANCH  29  30
ENDBRANCH  28  29
ENDBRANCH   1  28
TORSDOF 15
ENDMDL
