MODEL 6
REMARK VINA RESULT: -9.976854582      2.676      4.592
REMARK  15 active torsions:
REMARK  status: ('A' for Active; 'I' for Inactive)
REMARK    1  A    between atoms: C1_2  and  C2_4 
REMARK    2  A    between atoms: N2_8  and  C6_9 
REMARK    3  A    between atoms: C7_11  and  C8_12 
REMARK    4  A    between atoms: C8_12  and  O3_13 
REMARK    5  A    between atoms: O3_13  and  P1_14 
REMARK    6  A    between atoms: P1_14  and  O6_17 
REMARK    7  A    between atoms: O6_17  and  P2_18 
REMARK    8  A    between atoms: P2_18  and  O9_21 
REMARK    9  A    between atoms: O9_21  and  C9_22 
REMARK   10  A    between atoms: C9_22  and  C10_23 
REMARK   11  A    between atoms: C11_25  and  N3_26 
REMARK   12  A    between atoms: C17_39  and  O11_40 
REMARK   13  A    between atoms: C18_42  and  O12_43 
REMARK   14  A    between atoms: C19_45  and  O13_46 
REMARK   15  A    between atoms: C20_48  and  O14_49 
ROOT
HETATM    1  P2  UNL     1      92.358  21.105   8.983  1.00  0.00     0.417 P 
HETATM    2  O7  UNL     1      93.089  22.103   9.830  1.00  0.00    -0.624 OA
HETATM    3  O8  UNL     1      92.724  19.545   9.687  1.00  0.00    -0.624 OA
ENDROOT
BRANCH   1   4
HETATM    4  O6  UNL     1      90.760  21.320   8.934  1.00  0.00    -0.180 OA
BRANCH   4   5
HETATM    5  P1  UNL     1      90.183  22.745   8.325  1.00  0.00     0.417 P 
HETATM    6  O4  UNL     1      91.149  23.513   7.529  1.00  0.00    -0.624 OA
HETATM    7  O5  UNL     1      89.870  23.807   9.737  1.00  0.00    -0.624 OA
BRANCH   5   8
HETATM    8  O3  UNL     1      88.703  22.543   7.653  1.00  0.00    -0.287 OA
BRANCH   8   9
HETATM    9  C8  UNL     1      88.382  23.513   6.677  1.00  0.00     0.216 C 
BRANCH   9  10
HETATM   10  C7  UNL     1      87.008  24.009   7.222  1.00  0.00     0.180 C 
HETATM   11  O2  UNL     1      86.131  24.125   6.171  1.00  0.00    -0.353 OA
HETATM   12  C6  UNL     1      84.920  23.545   6.469  1.00  0.00     0.259 C 
HETATM   13  C20 UNL     1      84.911  23.481   8.000  1.00  0.00     0.198 C 
HETATM   14  C19 UNL     1      86.410  23.133   8.239  1.00  0.00     0.182 C 
BRANCH  12  15
HETATM   15  N2  UNL     1      85.045  22.148   6.002  1.00  0.00    -0.336 N 
HETATM   16  C5  UNL     1      85.780  21.828   4.935  1.00  0.00     0.093 A 
HETATM   17  C4  UNL     1      85.777  20.517   4.458  1.00  0.00     0.018 A 
HETATM   18  C3  UNL     1      85.019  19.570   5.084  1.00  0.00     0.019 A 
HETATM   19  C2  UNL     1      84.274  19.935   6.174  1.00  0.00     0.044 A 
HETATM   20  C21 UNL     1      84.293  21.235   6.629  1.00  0.00     0.110 A 
BRANCH  19  21
HETATM   21  C1  UNL     1      83.416  18.976   6.843  1.00  0.00     0.266 C 
HETATM   22  N1  UNL     1      82.384  18.328   6.128  1.00  0.00    -0.057 NA
HETATM   23  O1  UNL     1      83.541  18.677   8.080  1.00  0.00    -0.271 OA
ENDBRANCH  19  21
ENDBRANCH  12  15
BRANCH  13  24
HETATM   24  O14 UNL     1      84.744  24.762   8.523  1.00  0.00    -0.388 OA
ATOM     25  H14 UNL     1      85.377  24.911   9.216  1.00  0.00     0.210 HD
ENDBRANCH  13  24
BRANCH  14  26
HETATM   26  O13 UNL     1      86.769  23.425   9.560  1.00  0.00    -0.390 OA
ATOM     27  H13 UNL     1      86.648  22.714  10.178  1.00  0.00     0.210 HD
ENDBRANCH  14  26
ENDBRANCH   9  10
ENDBRANCH   8   9
ENDBRANCH   5   8
ENDBRANCH   4   5
ENDBRANCH   1   4
BRANCH   1  28
HETATM   28  O9  UNL     1      93.225  21.035   7.488  1.00  0.00    -0.287 OA
BRANCH  28  29
HETATM   29  C9  UNL     1      94.445  21.716   7.810  1.00  0.00     0.216 C 
BRANCH  29  30
HETATM   30  C10 UNL     1      95.553  20.754   7.763  1.00  0.00     0.180 C 
HETATM   31  O10 UNL     1      95.068  19.515   7.257  1.00  0.00    -0.353 OA
HETATM   32  C11 UNL     1      96.279  18.792   7.231  1.00  0.00     0.262 C 
HETATM   33  C17 UNL     1      97.016  19.735   6.241  1.00  0.00     0.198 C 
HETATM   34  C18 UNL     1      96.712  21.097   6.928  1.00  0.00     0.182 C 
BRANCH  32  35
HETATM   35  N3  UNL     1      96.046  17.503   6.707  1.00  0.00    -0.297 N 
HETATM   36  C12 UNL     1      95.160  17.122   5.725  1.00  0.00     0.188 A 
HETATM   37  N4  UNL     1      95.243  15.810   5.501  1.00  0.00    -0.346 N 
HETATM   38  C13 UNL     1      96.205  15.332   6.344  1.00  0.00     0.119 A 
ATOM     39  H4  UNL     1      94.695  15.270   4.832  1.00  0.00     0.167 HD
HETATM   40  C14 UNL     1      96.683  14.069   6.539  1.00  0.00     0.148 A 
HETATM   41  C16 UNL     1      96.687  16.401   7.086  1.00  0.00     0.142 A 
HETATM   42  N5  UNL     1      96.215  12.978   5.753  1.00  0.00    -0.080 NA
HETATM   43  N6  UNL     1      97.625  13.847   7.469  1.00  0.00    -0.339 N 
HETATM   44  C15 UNL     1      98.098  14.856   8.205  1.00  0.00     0.183 A 
ATOM     45  H6  UNL     1      97.981  12.902   7.615  1.00  0.00     0.167 HD
HETATM   46  N7  UNL     1      97.623  16.123   8.001  1.00  0.00    -0.336 N 
ATOM     47  H7  UNL     1      97.996  16.884   8.569  1.00  0.00     0.168 HD
ENDBRANCH  32  35
BRANCH  33  48
HETATM   48  O11 UNL     1      98.330  19.461   6.088  1.00  0.00    -0.388 OA
ATOM     49  H11 UNL     1      98.709  19.799   5.284  1.00  0.00     0.210 HD
ENDBRANCH  33  48
BRANCH  34  50
HETATM   50  O12 UNL     1      97.843  21.346   7.764  1.00  0.00    -0.390 OA
ATOM     51  H12 UNL     1      98.136  20.529   8.149  1.00  0.00     0.210 HD
ENDBRANCH  34  50
ENDBRANCH  29  30
ENDBRANCH  28  29
ENDBRANCH   1  28
TORSDOF 15
ENDMDL
