MODEL 8
REMARK VINA RESULT: -6.896597121      3.507      7.532
REMARK  11 active torsions:
REMARK  status: ('A' for Active; 'I' for Inactive)
REMARK    1  A    between atoms: C2_2  and  C3_3 
REMARK    2  A    between atoms: C2_2  and  N1_9 
REMARK    3  A    between atoms: C4_4  and  C5_5 
REMARK    4  A    between atoms: C5_5  and  C6_7 
REMARK       I    between atoms: N1_9  and  C7_11 
REMARK    5  A    between atoms: C7_11  and  C8_13 
REMARK    6  A    between atoms: C8_13  and  C9_14 
REMARK    7  A    between atoms: C8_13  and  N2_21 
REMARK    8  A    between atoms: C9_14  and  C10_15 
REMARK       I    between atoms: N2_21  and  C16_23 
REMARK    9  A    between atoms: C16_23  and  O5_25 
REMARK   10  A    between atoms: O5_25  and  C17_26 
REMARK   11  A    between atoms: C17_26  and  C18_27 
ROOT
HETATM    1  C8  UNL     1       2.616  12.447   6.725  1.00  0.00     0.183 C 
ENDROOT
BRANCH   1   2
HETATM    2  C7  UNL     1       3.645  13.057   7.598  1.00  0.00     0.241 C 
HETATM    3  N1  UNL     1       3.444  13.312   8.976  1.00  0.00    -0.352 N 
ATOM      4  H1  UNL     1       2.550  13.063   9.400  1.00  0.00     0.163 HD
HETATM    5  O3  UNL     1       4.793  13.387   7.146  1.00  0.00    -0.271 OA
BRANCH   3   6
HETATM    6  C2  UNL     1       4.468  13.916   9.803  1.00  0.00     0.103 C 
HETATM    7  C1  UNL     1       3.758  14.771  10.830  1.00  0.00     0.036 C 
BRANCH   6   8
HETATM    8  C3  UNL     1       5.371  12.938  10.414  1.00  0.00     0.002 C 
HETATM    9  C4  UNL     1       5.942  13.183  11.585  1.00  0.00     0.056 C 
BRANCH   9  10
HETATM   10  C5  UNL     1       6.838  12.257  12.235  1.00  0.00     0.209 C 
HETATM   11  O1  UNL     1       7.045  11.139  11.720  1.00  0.00    -0.285 OA
BRANCH  10  12
HETATM   12  C6  UNL     1       7.494  12.609  13.464  1.00  0.00     0.313 C 
HETATM   13  O2  UNL     1       8.668  12.210  13.667  1.00  0.00    -0.298 OA
ENDBRANCH  10  12
ENDBRANCH   9  10
ENDBRANCH   6   8
ENDBRANCH   3   6
ENDBRANCH   1   2
BRANCH   1  14
HETATM   14  C9  UNL     1       1.434  11.965   7.538  1.00  0.00     0.073 C 
BRANCH  14  15
HETATM   15  C10 UNL     1       1.117  10.547   7.431  1.00  0.00    -0.056 A 
HETATM   16  C11 UNL     1      -0.152  10.029   7.525  1.00  0.00     0.007 A 
HETATM   17  C12 UNL     1      -0.387   8.675   7.448  1.00  0.00     0.001 A 
HETATM   18  C13 UNL     1       0.669   7.791   7.269  1.00  0.00     0.000 A 
HETATM   19  C14 UNL     1       1.932   8.286   7.173  1.00  0.00     0.001 A 
HETATM   20  C15 UNL     1       2.172   9.646   7.251  1.00  0.00     0.007 A 
ENDBRANCH  14  15
ENDBRANCH   1  14
BRANCH   1  21
HETATM   21  N2  UNL     1       2.138  13.533   5.828  1.00  0.00    -0.323 N 
HETATM   22  C16 UNL     1       1.585  13.216   4.566  1.00  0.00     0.361 C 
HETATM   23  O4  UNL     1       1.525  11.996   4.257  1.00  0.00    -0.238 OA
ATOM     24  H2  UNL     1       2.209  14.507   6.124  1.00  0.00     0.165 HD
BRANCH  22  25
HETATM   25  O5  UNL     1       1.113  14.144   3.661  1.00  0.00    -0.299 OA
BRANCH  25  26
HETATM   26  C17 UNL     1       1.801  14.526   2.500  1.00  0.00     0.219 C 
BRANCH  26  27
HETATM   27  C18 UNL     1       1.385  13.593   1.393  1.00  0.00    -0.034 A 
HETATM   28  C19 UNL     1       0.092  13.092   1.332  1.00  0.00     0.009 A 
HETATM   29  C20 UNL     1      -0.297  12.243   0.333  1.00  0.00     0.001 A 
HETATM   30  C21 UNL     1       0.614  11.886  -0.624  1.00  0.00     0.000 A 
HETATM   31  C22 UNL     1       1.904  12.373  -0.580  1.00  0.00     0.001 A 
HETATM   32  C23 UNL     1       2.270  13.219   0.426  1.00  0.00     0.009 A 
ENDBRANCH  26  27
ENDBRANCH  25  26
ENDBRANCH  22  25
ENDBRANCH   1  21
TORSDOF 11
ENDMDL
