MODEL 1
REMARK VINA RESULT: -7.380361187      0.000      0.000
REMARK  11 active torsions:
REMARK  status: ('A' for Active; 'I' for Inactive)
REMARK    1  A    between atoms: C2_2  and  C3_3 
REMARK    2  A    between atoms: C2_2  and  N1_9 
REMARK    3  A    between atoms: C4_4  and  C5_5 
REMARK    4  A    between atoms: C5_5  and  C6_7 
REMARK       I    between atoms: N1_9  and  C7_11 
REMARK    5  A    between atoms: C7_11  and  C8_13 
REMARK    6  A    between atoms: C8_13  and  C9_14 
REMARK    7  A    between atoms: C8_13  and  N2_21 
REMARK    8  A    between atoms: C9_14  and  C10_15 
REMARK       I    between atoms: N2_21  and  C16_23 
REMARK    9  A    between atoms: C16_23  and  O5_25 
REMARK   10  A    between atoms: O5_25  and  C17_26 
REMARK   11  A    between atoms: C17_26  and  C18_27 
ROOT
HETATM    1  C8  UNL     1       0.961  10.803   6.619  1.00  0.00     0.183 C 
ENDROOT
BRANCH   1   2
HETATM    2  C7  UNL     1       0.374   9.464   6.851  1.00  0.00     0.241 C 
HETATM    3  N1  UNL     1      -0.420   8.786   5.893  1.00  0.00    -0.352 N 
ATOM      4  H1  UNL     1      -0.597   9.233   4.993  1.00  0.00     0.163 HD
HETATM    5  O3  UNL     1       0.559   8.835   7.946  1.00  0.00    -0.271 OA
BRANCH   3   6
HETATM    6  C2  UNL     1      -0.986   7.478   6.151  1.00  0.00     0.103 C 
HETATM    7  C1  UNL     1      -2.489   7.650   6.196  1.00  0.00     0.036 C 
BRANCH   6   8
HETATM    8  C3  UNL     1      -0.565   6.464   5.183  1.00  0.00     0.002 C 
HETATM    9  C4  UNL     1      -1.345   5.427   4.906  1.00  0.00     0.056 C 
BRANCH   9  10
HETATM   10  C5  UNL     1      -0.983   4.398   3.962  1.00  0.00     0.209 C 
HETATM   11  O1  UNL     1      -0.355   4.707   2.928  1.00  0.00    -0.285 OA
BRANCH  10  12
HETATM   12  C6  UNL     1      -1.336   3.025   4.199  1.00  0.00     0.313 C 
HETATM   13  O2  UNL     1      -0.582   2.117   3.770  1.00  0.00    -0.298 OA
ENDBRANCH  10  12
ENDBRANCH   9  10
ENDBRANCH   6   8
ENDBRANCH   3   6
ENDBRANCH   1   2
BRANCH   1  14
HETATM   14  C9  UNL     1       2.396  10.855   7.093  1.00  0.00     0.073 C 
BRANCH  14  15
HETATM   15  C10 UNL     1       2.909  12.172   7.445  1.00  0.00    -0.056 A 
HETATM   16  C11 UNL     1       4.237  12.522   7.403  1.00  0.00     0.007 A 
HETATM   17  C12 UNL     1       4.666  13.774   7.779  1.00  0.00     0.001 A 
HETATM   18  C13 UNL     1       3.752  14.726   8.214  1.00  0.00     0.000 A 
HETATM   19  C14 UNL     1       2.434  14.398   8.262  1.00  0.00     0.001 A 
HETATM   20  C15 UNL     1       1.999  13.139   7.885  1.00  0.00     0.007 A 
ENDBRANCH  14  15
ENDBRANCH   1  14
BRANCH   1  21
HETATM   21  N2  UNL     1       0.962  11.005   5.145  1.00  0.00    -0.323 N 
HETATM   22  C16 UNL     1       0.284  12.110   4.582  1.00  0.00     0.361 C 
HETATM   23  O4  UNL     1      -0.304  12.890   5.379  1.00  0.00    -0.238 OA
ATOM     24  H2  UNL     1       1.451  10.345   4.541  1.00  0.00     0.165 HD
BRANCH  22  25
HETATM   25  O5  UNL     1       0.224  12.389   3.232  1.00  0.00    -0.299 OA
BRANCH  25  26
HETATM   26  C17 UNL     1       1.056  13.313   2.585  1.00  0.00     0.219 C 
BRANCH  26  27
HETATM   27  C18 UNL     1       1.200  12.875   1.150  1.00  0.00    -0.034 A 
HETATM   28  C19 UNL     1       0.236  12.078   0.549  1.00  0.00     0.009 A 
HETATM   29  C20 UNL     1       0.357  11.672  -0.751  1.00  0.00     0.001 A 
HETATM   30  C21 UNL     1       1.453  12.066  -1.469  1.00  0.00     0.000 A 
HETATM   31  C22 UNL     1       2.422  12.859  -0.889  1.00  0.00     0.001 A 
HETATM   32  C23 UNL     1       2.281  13.252   0.411  1.00  0.00     0.009 A 
ENDBRANCH  26  27
ENDBRANCH  25  26
ENDBRANCH  22  25
ENDBRANCH   1  21
TORSDOF 11
ENDMDL
