MODEL 2
REMARK VINA RESULT: -7.206985480      0.783      1.392
REMARK  11 active torsions:
REMARK  status: ('A' for Active; 'I' for Inactive)
REMARK    1  A    between atoms: C2_2  and  C3_3 
REMARK    2  A    between atoms: C2_2  and  N1_9 
REMARK    3  A    between atoms: C4_4  and  C5_5 
REMARK    4  A    between atoms: C5_5  and  C6_7 
REMARK       I    between atoms: N1_9  and  C7_11 
REMARK    5  A    between atoms: C7_11  and  C8_13 
REMARK    6  A    between atoms: C8_13  and  C9_14 
REMARK    7  A    between atoms: C8_13  and  N2_21 
REMARK    8  A    between atoms: C9_14  and  C10_15 
REMARK       I    between atoms: N2_21  and  C16_23 
REMARK    9  A    between atoms: C16_23  and  O5_25 
REMARK   10  A    between atoms: O5_25  and  C17_26 
REMARK   11  A    between atoms: C17_26  and  C18_27 
ROOT
HETATM    1  C8  UNL     1       1.336  10.979   6.599  1.00  0.00     0.183 C 
ENDROOT
BRANCH   1   2
HETATM    2  C7  UNL     1       0.826   9.603   6.797  1.00  0.00     0.241 C 
HETATM    3  N1  UNL     1       0.171   8.863   5.782  1.00  0.00    -0.352 N 
ATOM      4  H1  UNL     1       0.044   9.289   4.864  1.00  0.00     0.163 HD
HETATM    5  O3  UNL     1       0.955   8.997   7.913  1.00  0.00    -0.271 OA
BRANCH   3   6
HETATM    6  C2  UNL     1      -0.324   7.520   6.007  1.00  0.00     0.103 C 
HETATM    7  C1  UNL     1      -1.753   7.652   6.486  1.00  0.00     0.036 C 
BRANCH   6   8
HETATM    8  C3  UNL     1      -0.202   6.654   4.832  1.00  0.00     0.002 C 
HETATM    9  C4  UNL     1      -1.178   5.818   4.504  1.00  0.00     0.056 C 
BRANCH   9  10
HETATM   10  C5  UNL     1      -1.114   4.943   3.358  1.00  0.00     0.209 C 
HETATM   11  O1  UNL     1      -0.240   4.052   3.315  1.00  0.00    -0.285 OA
BRANCH  10  12
HETATM   12  C6  UNL     1      -2.045   5.084   2.273  1.00  0.00     0.313 C 
HETATM   13  O2  UNL     1      -3.012   5.876   2.396  1.00  0.00    -0.298 OA
ENDBRANCH  10  12
ENDBRANCH   9  10
ENDBRANCH   6   8
ENDBRANCH   3   6
ENDBRANCH   1   2
BRANCH   1  14
HETATM   14  C9  UNL     1       2.783  11.086   7.026  1.00  0.00     0.073 C 
BRANCH  14  15
HETATM   15  C10 UNL     1       3.225  12.400   7.473  1.00  0.00    -0.056 A 
HETATM   16  C11 UNL     1       4.537  12.804   7.512  1.00  0.00     0.007 A 
HETATM   17  C12 UNL     1       4.896  14.049   7.975  1.00  0.00     0.001 A 
HETATM   18  C13 UNL     1       3.926  14.938   8.420  1.00  0.00     0.000 A 
HETATM   19  C14 UNL     1       2.622  14.555   8.389  1.00  0.00     0.001 A 
HETATM   20  C15 UNL     1       2.257  13.305   7.925  1.00  0.00     0.007 A 
ENDBRANCH  14  15
ENDBRANCH   1  14
BRANCH   1  21
HETATM   21  N2  UNL     1       1.274  11.237   5.136  1.00  0.00    -0.323 N 
HETATM   22  C16 UNL     1       0.421  12.245   4.631  1.00  0.00     0.361 C 
HETATM   23  O4  UNL     1      -0.264  12.890   5.469  1.00  0.00    -0.238 OA
ATOM     24  H2  UNL     1       1.847  10.686   4.496  1.00  0.00     0.165 HD
BRANCH  22  25
HETATM   25  O5  UNL     1       0.289  12.564   3.294  1.00  0.00    -0.299 OA
BRANCH  25  26
HETATM   26  C17 UNL     1       1.166  13.411   2.602  1.00  0.00     0.219 C 
BRANCH  26  27
HETATM   27  C18 UNL     1       1.238  12.928   1.176  1.00  0.00    -0.034 A 
HETATM   28  C19 UNL     1       2.297  13.289   0.355  1.00  0.00     0.009 A 
HETATM   29  C20 UNL     1       2.373  12.859  -0.941  1.00  0.00     0.001 A 
HETATM   30  C21 UNL     1       1.380  12.055  -1.430  1.00  0.00     0.000 A 
HETATM   31  C22 UNL     1       0.319  11.686  -0.630  1.00  0.00     0.001 A 
HETATM   32  C23 UNL     1       0.263  12.127   0.661  1.00  0.00     0.009 A 
ENDBRANCH  26  27
ENDBRANCH  25  26
ENDBRANCH  22  25
ENDBRANCH   1  21
TORSDOF 11
ENDMDL
