MODEL 15
REMARK VINA RESULT: -8.895601782      4.255      6.998
REMARK  6 active torsions:
REMARK  status: ('A' for Active; 'I' for Inactive)
REMARK    1  A    between atoms: N5_13  and  C6_14 
REMARK    2  A    between atoms: C7_16  and  C8_17 
REMARK    3  A    between atoms: C8_17  and  O2_18 
REMARK    4  A    between atoms: O2_18  and  P1_19 
REMARK    5  A    between atoms: C9_23  and  O6_24 
REMARK    6  A    between atoms: C10_26  and  O7_27 
ROOT
HETATM    1  C6  UNL     1      18.048  15.569   5.489  1.00  0.00     0.262 C 
HETATM    2  O1  UNL     1      17.234  14.656   6.098  1.00  0.00    -0.353 OA
HETATM    3  C7  UNL     1      17.417  13.419   5.556  1.00  0.00     0.180 C 
HETATM    4  C9  UNL     1      18.332  13.549   4.355  1.00  0.00     0.182 C 
HETATM    5  C10 UNL     1      19.064  14.826   4.667  1.00  0.00     0.198 C 
ENDROOT
BRANCH   1   6
HETATM    6  N5  UNL     1      18.651  16.415   6.472  1.00  0.00    -0.297 N 
HETATM    7  C3  UNL     1      18.242  17.629   6.929  1.00  0.00     0.142 A 
HETATM    8  N3  UNL     1      17.175  18.352   6.587  1.00  0.00    -0.336 N 
HETATM    9  C4  UNL     1      19.130  18.096   7.885  1.00  0.00     0.119 A 
HETATM   10  C2  UNL     1      16.990  19.538   7.194  1.00  0.00     0.183 A 
ATOM     11  H3  UNL     1      16.518  18.015   5.884  1.00  0.00     0.168 HD
HETATM   12  N2  UNL     1      17.846  20.018   8.135  1.00  0.00    -0.339 N 
HETATM   13  C1  UNL     1      18.933  19.318   8.506  1.00  0.00     0.148 A 
ATOM     14  H2  UNL     1      17.661  20.925   8.566  1.00  0.00     0.167 HD
HETATM   15  N1  UNL     1      19.865  19.765   9.482  1.00  0.00    -0.080 NA
HETATM   16  N4  UNL     1      20.070  17.149   7.992  1.00  0.00    -0.346 N 
HETATM   17  C5  UNL     1      19.783  16.145   7.147  1.00  0.00     0.188 A 
ATOM     18  H4  UNL     1      20.877  17.184   8.615  1.00  0.00     0.167 HD
ENDBRANCH   1   6
BRANCH   5  19
HETATM   19  O7  UNL     1      19.373  15.465   3.473  1.00  0.00    -0.388 OA
ATOM     20  H7  UNL     1      19.528  14.862   2.756  1.00  0.00     0.210 HD
ENDBRANCH   5  19
BRANCH   3  21
HETATM   21  C8  UNL     1      18.165  12.536   6.555  1.00  0.00     0.217 C 
BRANCH  21  22
HETATM   22  O2  UNL     1      17.673  11.285   6.528  1.00  0.00    -0.280 OA
BRANCH  22  23
HETATM   23  P1  UNL     1      17.828  10.266   7.743  1.00  0.00     0.422 P 
HETATM   24  O3  UNL     1      19.310   9.530   8.087  1.00  0.00    -0.617 OA
HETATM   25  O4  UNL     1      16.504   9.654   8.575  1.00  0.00    -0.617 OA
HETATM   26  O5  UNL     1      18.081  11.311   8.816  1.00  0.00    -0.617 OA
ENDBRANCH  22  23
ENDBRANCH  21  22
ENDBRANCH   3  21
BRANCH   4  27
HETATM   27  O6  UNL     1      17.558  13.751   3.230  1.00  0.00    -0.390 OA
ATOM     28  H6  UNL     1      18.106  14.118   2.547  1.00  0.00     0.210 HD
ENDBRANCH   4  27
TORSDOF 6
ENDMDL
