MODEL 16
REMARK VINA RESULT: -8.839884504      3.204      5.136
REMARK  6 active torsions:
REMARK  status: ('A' for Active; 'I' for Inactive)
REMARK    1  A    between atoms: N5_13  and  C6_14 
REMARK    2  A    between atoms: C7_16  and  C8_17 
REMARK    3  A    between atoms: C8_17  and  O2_18 
REMARK    4  A    between atoms: O2_18  and  P1_19 
REMARK    5  A    between atoms: C9_23  and  O6_24 
REMARK    6  A    between atoms: C10_26  and  O7_27 
ROOT
HETATM    1  C6  UNL     1      18.358  19.404   6.903  1.00  0.00     0.262 C 
HETATM    2  O1  UNL     1      19.198  20.388   7.342  1.00  0.00    -0.353 OA
HETATM    3  C7  UNL     1      18.553  21.209   8.218  1.00  0.00     0.180 C 
HETATM    4  C9  UNL     1      17.087  20.827   8.247  1.00  0.00     0.182 C 
HETATM    5  C10 UNL     1      17.135  19.398   7.778  1.00  0.00     0.198 C 
ENDROOT
BRANCH   1   6
HETATM    6  N5  UNL     1      19.038  18.146   6.905  1.00  0.00    -0.297 N 
HETATM    7  C3  UNL     1      18.652  16.959   6.367  1.00  0.00     0.142 A 
HETATM    8  N3  UNL     1      17.540  16.648   5.699  1.00  0.00    -0.336 N 
HETATM    9  C4  UNL     1      19.620  15.997   6.603  1.00  0.00     0.119 A 
HETATM   10  C2  UNL     1      17.392  15.384   5.264  1.00  0.00     0.183 A 
ATOM     11  H3  UNL     1      16.823  17.351   5.522  1.00  0.00     0.168 HD
HETATM   12  N2  UNL     1      18.327  14.422   5.483  1.00  0.00    -0.339 N 
HETATM   13  C1  UNL     1      19.461  14.696   6.153  1.00  0.00     0.148 A 
ATOM     14  H2  UNL     1      18.167  13.477   5.133  1.00  0.00     0.167 HD
HETATM   15  N1  UNL     1      20.476  13.736   6.414  1.00  0.00    -0.080 NA
HETATM   16  N4  UNL     1      20.587  16.624   7.286  1.00  0.00    -0.346 N 
HETATM   17  C5  UNL     1      20.238  17.908   7.465  1.00  0.00     0.188 A 
ATOM     18  H4  UNL     1      21.450  16.193   7.617  1.00  0.00     0.167 HD
ENDBRANCH   1   6
BRANCH   5  19
HETATM   19  O7  UNL     1      15.966  19.119   7.081  1.00  0.00    -0.388 OA
ATOM     20  H7  UNL     1      15.181  19.361   7.557  1.00  0.00     0.210 HD
ENDBRANCH   5  19
BRANCH   3  21
HETATM   21  C8  UNL     1      19.079  20.950   9.631  1.00  0.00     0.217 C 
BRANCH  21  22
HETATM   22  O2  UNL     1      18.875  22.029  10.406  1.00  0.00    -0.280 OA
BRANCH  22  23
HETATM   23  P1  UNL     1      18.648  23.491   9.814  1.00  0.00     0.422 P 
HETATM   24  O3  UNL     1      17.120  24.004   9.308  1.00  0.00    -0.617 OA
HETATM   25  O4  UNL     1      19.926  24.501   9.402  1.00  0.00    -0.617 OA
HETATM   26  O5  UNL     1      18.460  24.192  11.148  1.00  0.00    -0.617 OA
ENDBRANCH  22  23
ENDBRANCH  21  22
ENDBRANCH   3  21
BRANCH   4  27
HETATM   27  O6  UNL     1      16.417  21.577   7.302  1.00  0.00    -0.390 OA
ATOM     28  H6  UNL     1      16.881  21.509   6.476  1.00  0.00     0.210 HD
ENDBRANCH   4  27
TORSDOF 6
ENDMDL
