MODEL 10
REMARK VINA RESULT: -9.129963852      4.642      6.748
REMARK  6 active torsions:
REMARK  status: ('A' for Active; 'I' for Inactive)
REMARK    1  A    between atoms: N5_13  and  C6_14 
REMARK    2  A    between atoms: C7_16  and  C8_17 
REMARK    3  A    between atoms: C8_17  and  O2_18 
REMARK    4  A    between atoms: O2_18  and  P1_19 
REMARK    5  A    between atoms: C9_23  and  O6_24 
REMARK    6  A    between atoms: C10_26  and  O7_27 
ROOT
HETATM    1  C6  UNL     1      20.344  16.519   6.352  1.00  0.00     0.262 C 
HETATM    2  O1  UNL     1      19.788  15.273   6.296  1.00  0.00    -0.353 OA
HETATM    3  C7  UNL     1      20.350  14.458   7.233  1.00  0.00     0.180 C 
HETATM    4  C9  UNL     1      21.510  15.191   7.875  1.00  0.00     0.182 C 
HETATM    5  C10 UNL     1      21.142  16.627   7.622  1.00  0.00     0.198 C 
ENDROOT
BRANCH   1   6
HETATM    6  N5  UNL     1      19.321  17.514   6.262  1.00  0.00    -0.297 N 
HETATM    7  C3  UNL     1      18.953  18.455   7.172  1.00  0.00     0.142 A 
HETATM    8  N3  UNL     1      19.444  18.702   8.387  1.00  0.00    -0.336 N 
HETATM    9  C4  UNL     1      17.910  19.215   6.669  1.00  0.00     0.119 A 
HETATM   10  C2  UNL     1      18.900  19.703   9.101  1.00  0.00     0.183 A 
ATOM     11  H3  UNL     1      20.212  18.146   8.764  1.00  0.00     0.168 HD
HETATM   12  N2  UNL     1      17.876  20.463   8.631  1.00  0.00    -0.339 N 
HETATM   13  C1  UNL     1      17.353  20.245   7.411  1.00  0.00     0.148 A 
ATOM     14  H2  UNL     1      17.497  21.212   9.212  1.00  0.00     0.167 HD
HETATM   15  N1  UNL     1      16.284  21.003   6.862  1.00  0.00    -0.080 NA
HETATM   16  N4  UNL     1      17.660  18.717   5.451  1.00  0.00    -0.346 N 
HETATM   17  C5  UNL     1      18.504  17.701   5.209  1.00  0.00     0.188 A 
ATOM     18  H4  UNL     1      16.942  19.056   4.810  1.00  0.00     0.167 HD
ENDBRANCH   1   6
BRANCH   5  19
HETATM   19  O7  UNL     1      22.309  17.366   7.473  1.00  0.00    -0.388 OA
ATOM     20  H7  UNL     1      22.882  17.027   6.797  1.00  0.00     0.210 HD
ENDBRANCH   5  19
BRANCH   3  21
HETATM   21  C8  UNL     1      19.341  14.211   8.355  1.00  0.00     0.217 C 
BRANCH  21  22
HETATM   22  O2  UNL     1      19.159  12.891   8.532  1.00  0.00    -0.280 OA
BRANCH  22  23
HETATM   23  P1  UNL     1      18.035  12.062   7.764  1.00  0.00     0.422 P 
HETATM   24  O3  UNL     1      17.354  12.629   6.326  1.00  0.00    -0.617 OA
HETATM   25  O4  UNL     1      17.266  10.738   8.457  1.00  0.00    -0.617 OA
HETATM   26  O5  UNL     1      18.980  11.167   6.984  1.00  0.00    -0.617 OA
ENDBRANCH  22  23
ENDBRANCH  21  22
ENDBRANCH   3  21
BRANCH   4  27
HETATM   27  O6  UNL     1      22.660  14.902   7.168  1.00  0.00    -0.390 OA
ATOM     28  H6  UNL     1      23.347  15.493   7.451  1.00  0.00     0.210 HD
ENDBRANCH   4  27
TORSDOF 6
ENDMDL
