MODEL 4
REMARK VINA RESULT: -9.768638385      3.334      5.318
REMARK  10 active torsions:
REMARK  status: ('A' for Active; 'I' for Inactive)
REMARK    1  A    between atoms: N4_10  and  C5_11 
REMARK    2  A    between atoms: C6_13  and  C7_14 
REMARK    3  A    between atoms: C7_14  and  O2_15 
REMARK    4  A    between atoms: O2_15  and  P1_16 
REMARK    5  A    between atoms: P1_16  and  O5_19 
REMARK    6  A    between atoms: O5_19  and  P2_20 
REMARK    7  A    between atoms: P2_20  and  N5_23 
REMARK    8  A    between atoms: N5_23  and  P3_25 
REMARK    9  A    between atoms: C8_29  and  O11_30 
REMARK   10  A    between atoms: C9_32  and  O12_33 
ROOT
HETATM    1  C5  UNL     1     110.395  62.677  43.550  1.00  0.00     0.262 C 
HETATM    2  O1  UNL     1     110.720  61.331  43.413  1.00  0.00    -0.353 OA
HETATM    3  C6  UNL     1     110.756  61.167  42.026  1.00  0.00     0.180 C 
HETATM    4  C8  UNL     1     111.725  62.279  41.641  1.00  0.00     0.182 C 
HETATM    5  C9  UNL     1     111.150  63.417  42.464  1.00  0.00     0.198 C 
ENDROOT
BRANCH   3   6
HETATM    6  C7  UNL     1     111.267  59.816  41.623  1.00  0.00     0.216 C 
BRANCH   6   7
HETATM    7  O2  UNL     1     110.404  59.288  40.676  1.00  0.00    -0.287 OA
BRANCH   7   8
HETATM    8  P1  UNL     1     109.593  57.982  41.394  1.00  0.00     0.417 P 
HETATM    9  O3  UNL     1     110.336  56.690  41.168  1.00  0.00    -0.624 OA
HETATM   10  O4  UNL     1     108.060  57.808  40.658  1.00  0.00    -0.624 OA
BRANCH   8  11
HETATM   11  O5  UNL     1     109.327  58.250  43.041  1.00  0.00    -0.186 OA
BRANCH  11  12
HETATM   12  P2  UNL     1     107.863  59.028  43.304  1.00  0.00     0.379 P 
HETATM   13  O6  UNL     1     107.882  59.865  44.578  1.00  0.00    -0.629 OA
HETATM   14  O7  UNL     1     106.580  57.936  43.380  1.00  0.00    -0.629 OA
BRANCH  12  15
HETATM   15  N5  UNL     1     107.581  60.150  41.981  1.00  0.00    -0.218 N 
ATOM     16  H5  UNL     1     108.283  60.517  41.337  1.00  0.00     0.179 HD
BRANCH  15  17
HETATM   17  P3  UNL     1     105.867  60.522  41.975  1.00  0.00     0.381 P 
HETATM   18  O8  UNL     1     105.403  60.982  43.326  1.00  0.00    -0.622 OA
HETATM   19  O9  UNL     1     104.948  59.143  41.580  1.00  0.00    -0.622 OA
HETATM   20  O10 UNL     1     105.624  61.733  40.814  1.00  0.00    -0.622 OA
ENDBRANCH  15  17
ENDBRANCH  12  15
ENDBRANCH  11  12
ENDBRANCH   8  11
ENDBRANCH   7   8
ENDBRANCH   6   7
ENDBRANCH   3   6
BRANCH   4  21
HETATM   21  O11 UNL     1     111.705  62.542  40.295  1.00  0.00    -0.390 OA
ATOM     22  H11 UNL     1     111.436  63.433  40.107  1.00  0.00     0.210 HD
ENDBRANCH   4  21
BRANCH   1  23
HETATM   23  N4  UNL     1     110.828  63.217  44.817  1.00  0.00    -0.297 N 
HETATM   24  C2  UNL     1     110.424  62.675  46.000  1.00  0.00     0.146 A 
HETATM   25  N2  UNL     1     109.623  61.633  46.303  1.00  0.00    -0.314 N 
HETATM   26  C3  UNL     1     110.989  63.391  47.037  1.00  0.00     0.146 A 
HETATM   27  C1  UNL     1     109.345  61.253  47.558  1.00  0.00     0.196 A 
ATOM     28  H2  UNL     1     109.206  61.106  45.535  1.00  0.00     0.170 HD
HETATM   29  N1  UNL     1     108.484  60.133  47.825  1.00  0.00    -0.063 NA
HETATM   30  N6  UNL     1     109.895  61.949  48.565  1.00  0.00    -0.295 N 
HETATM   31  C10 UNL     1     110.705  63.003  48.329  1.00  0.00     0.278 A 
ATOM     32  H6  UNL     1     109.697  61.677  49.528  1.00  0.00     0.171 HD
HETATM   33  O13 UNL     1     111.211  63.642  49.290  1.00  0.00    -0.265 OA
HETATM   34  N3  UNL     1     111.727  64.357  46.455  1.00  0.00    -0.345 N 
HETATM   35  C4  UNL     1     111.621  64.241  45.110  1.00  0.00     0.188 A 
ATOM     36  H3  UNL     1     112.277  65.061  46.947  1.00  0.00     0.167 HD
ENDBRANCH   1  23
BRANCH   5  37
HETATM   37  O12 UNL     1     110.266  64.108  41.615  1.00  0.00    -0.388 OA
ATOM     38  H12 UNL     1     110.683  64.319  40.788  1.00  0.00     0.210 HD
ENDBRANCH   5  37
TORSDOF 10
ENDMDL
