MODEL 8
REMARK VINA RESULT: -9.279429016      1.375      2.049
REMARK  10 active torsions:
REMARK  status: ('A' for Active; 'I' for Inactive)
REMARK    1  A    between atoms: N4_10  and  C5_11 
REMARK    2  A    between atoms: C6_13  and  C7_14 
REMARK    3  A    between atoms: C7_14  and  O2_15 
REMARK    4  A    between atoms: O2_15  and  P1_16 
REMARK    5  A    between atoms: P1_16  and  O5_19 
REMARK    6  A    between atoms: O5_19  and  P2_20 
REMARK    7  A    between atoms: P2_20  and  N5_23 
REMARK    8  A    between atoms: N5_23  and  P3_25 
REMARK    9  A    between atoms: C8_29  and  O11_30 
REMARK   10  A    between atoms: C9_32  and  O12_33 
ROOT
HETATM    1  C5  UNL     1     112.107  64.983  42.535  1.00  0.00     0.262 C 
HETATM    2  O1  UNL     1     111.277  64.131  41.813  1.00  0.00    -0.353 OA
HETATM    3  C6  UNL     1     111.748  62.868  42.177  1.00  0.00     0.180 C 
HETATM    4  C8  UNL     1     111.676  62.973  43.696  1.00  0.00     0.182 C 
HETATM    5  C9  UNL     1     112.319  64.335  43.889  1.00  0.00     0.198 C 
ENDROOT
BRANCH   3   6
HETATM    6  C7  UNL     1     110.881  61.762  41.652  1.00  0.00     0.216 C 
BRANCH   6   7
HETATM    7  O2  UNL     1     110.189  61.207  42.716  1.00  0.00    -0.287 OA
BRANCH   7   8
HETATM    8  P1  UNL     1     109.859  59.590  42.325  1.00  0.00     0.417 P 
HETATM    9  O3  UNL     1     109.972  58.703  43.539  1.00  0.00    -0.624 OA
HETATM   10  O4  UNL     1     111.023  59.041  41.199  1.00  0.00    -0.624 OA
BRANCH   8  11
HETATM   11  O5  UNL     1     108.345  59.428  41.593  1.00  0.00    -0.186 OA
BRANCH  11  12
HETATM   12  P2  UNL     1     107.194  60.387  42.352  1.00  0.00     0.379 P 
HETATM   13  O6  UNL     1     107.448  61.872  42.123  1.00  0.00    -0.629 OA
HETATM   14  O7  UNL     1     107.128  60.087  44.010  1.00  0.00    -0.629 OA
BRANCH  12  15
HETATM   15  N5  UNL     1     105.623  60.040  41.644  1.00  0.00    -0.218 N 
ATOM     16  H5  UNL     1     104.931  60.724  41.338  1.00  0.00     0.179 HD
BRANCH  15  17
HETATM   17  P3  UNL     1     105.468  58.294  41.562  1.00  0.00     0.381 P 
HETATM   18  O8  UNL     1     106.032  57.637  42.788  1.00  0.00    -0.622 OA
HETATM   19  O9  UNL     1     106.326  57.670  40.228  1.00  0.00    -0.622 OA
HETATM   20  O10 UNL     1     103.817  57.947  41.402  1.00  0.00    -0.622 OA
ENDBRANCH  15  17
ENDBRANCH  12  15
ENDBRANCH  11  12
ENDBRANCH   8  11
ENDBRANCH   7   8
ENDBRANCH   6   7
ENDBRANCH   3   6
BRANCH   4  21
HETATM   21  O11 UNL     1     112.375  61.970  44.320  1.00  0.00    -0.390 OA
ATOM     22  H11 UNL     1     112.702  62.236  45.171  1.00  0.00     0.210 HD
ENDBRANCH   4  21
BRANCH   1  23
HETATM   23  N4  UNL     1     111.498  66.271  42.768  1.00  0.00    -0.297 N 
HETATM   24  C2  UNL     1     112.232  67.420  42.758  1.00  0.00     0.146 A 
HETATM   25  N2  UNL     1     113.543  67.666  42.559  1.00  0.00    -0.314 N 
HETATM   26  C3  UNL     1     111.394  68.489  43.008  1.00  0.00     0.146 A 
HETATM   27  C1  UNL     1     114.079  68.895  42.591  1.00  0.00     0.196 A 
ATOM     28  H2  UNL     1     114.160  66.875  42.375  1.00  0.00     0.170 HD
HETATM   29  N1  UNL     1     115.484  69.102  42.372  1.00  0.00    -0.063 NA
HETATM   30  N6  UNL     1     113.263  69.933  42.834  1.00  0.00    -0.295 N 
HETATM   31  C10 UNL     1     111.941  69.754  43.041  1.00  0.00     0.278 A 
ATOM     32  H6  UNL     1     113.649  70.877  42.863  1.00  0.00     0.171 HD
HETATM   33  O13 UNL     1     111.195  70.743  43.267  1.00  0.00    -0.265 OA
HETATM   34  N3  UNL     1     110.163  67.960  43.165  1.00  0.00    -0.345 N 
HETATM   35  C4  UNL     1     110.240  66.617  43.017  1.00  0.00     0.188 A 
ATOM     36  H3  UNL     1     109.312  68.487  43.362  1.00  0.00     0.167 HD
ENDBRANCH   1  23
BRANCH   5  37
HETATM   37  O12 UNL     1     113.684  64.095  44.127  1.00  0.00    -0.388 OA
ATOM     38  H12 UNL     1     114.205  64.301  43.359  1.00  0.00     0.210 HD
ENDBRANCH   5  37
TORSDOF 10
ENDMDL
