MODEL 13
REMARK VINA RESULT: -8.920963557      3.277      5.648
REMARK  10 active torsions:
REMARK  status: ('A' for Active; 'I' for Inactive)
REMARK    1  A    between atoms: N4_10  and  C5_11 
REMARK    2  A    between atoms: C6_13  and  C7_14 
REMARK    3  A    between atoms: C7_14  and  O2_15 
REMARK    4  A    between atoms: O2_15  and  P1_16 
REMARK    5  A    between atoms: P1_16  and  O5_19 
REMARK    6  A    between atoms: O5_19  and  P2_20 
REMARK    7  A    between atoms: P2_20  and  N5_23 
REMARK    8  A    between atoms: N5_23  and  P3_25 
REMARK    9  A    between atoms: C8_29  and  O11_30 
REMARK   10  A    between atoms: C9_32  and  O12_33 
ROOT
HETATM    1  C5  UNL     1     109.960  60.242  43.967  1.00  0.00     0.262 C 
HETATM    2  O1  UNL     1     109.228  60.144  42.788  1.00  0.00    -0.353 OA
HETATM    3  C6  UNL     1     108.357  59.087  43.058  1.00  0.00     0.180 C 
HETATM    4  C8  UNL     1     107.733  59.569  44.362  1.00  0.00     0.182 C 
HETATM    5  C9  UNL     1     108.986  60.000  45.102  1.00  0.00     0.198 C 
ENDROOT
BRANCH   3   6
HETATM    6  C7  UNL     1     107.330  58.902  41.981  1.00  0.00     0.216 C 
BRANCH   6   7
HETATM    7  O2  UNL     1     106.619  57.744  42.249  1.00  0.00    -0.287 OA
BRANCH   7   8
HETATM    8  P1  UNL     1     105.165  57.822  41.378  1.00  0.00     0.417 P 
HETATM    9  O3  UNL     1     105.333  58.617  40.108  1.00  0.00    -0.624 OA
HETATM   10  O4  UNL     1     103.995  58.637  42.323  1.00  0.00    -0.624 OA
BRANCH   8  11
HETATM   11  O5  UNL     1     104.556  56.280  41.054  1.00  0.00    -0.186 OA
BRANCH  11  12
HETATM   12  P2  UNL     1     105.461  55.502  39.872  1.00  0.00     0.379 P 
HETATM   13  O6  UNL     1     104.929  55.780  38.471  1.00  0.00    -0.629 OA
HETATM   14  O7  UNL     1     105.513  53.836  40.124  1.00  0.00    -0.629 OA
BRANCH  12  15
HETATM   15  N5  UNL     1     107.098  56.139  39.914  1.00  0.00    -0.218 N 
ATOM     16  H5  UNL     1     107.479  56.790  40.602  1.00  0.00     0.179 HD
BRANCH  15  17
HETATM   17  P3  UNL     1     107.957  55.446  38.550  1.00  0.00     0.381 P 
HETATM   18  O8  UNL     1     107.517  56.066  37.255  1.00  0.00    -0.622 OA
HETATM   19  O9  UNL     1     107.652  53.775  38.427  1.00  0.00    -0.622 OA
HETATM   20  O10 UNL     1     109.610  55.717  38.812  1.00  0.00    -0.622 OA
ENDBRANCH  15  17
ENDBRANCH  12  15
ENDBRANCH  11  12
ENDBRANCH   8  11
ENDBRANCH   7   8
ENDBRANCH   6   7
ENDBRANCH   3   6
BRANCH   4  21
HETATM   21  O11 UNL     1     107.056  58.569  45.015  1.00  0.00    -0.390 OA
ATOM     22  H11 UNL     1     107.550  57.759  45.042  1.00  0.00     0.210 HD
ENDBRANCH   4  21
BRANCH   1  23
HETATM   23  N4  UNL     1     110.519  61.559  44.156  1.00  0.00    -0.297 N 
HETATM   24  C2  UNL     1     111.154  62.217  43.146  1.00  0.00     0.146 A 
HETATM   25  N2  UNL     1     111.415  61.891  41.864  1.00  0.00    -0.314 N 
HETATM   26  C3  UNL     1     111.582  63.446  43.611  1.00  0.00     0.146 A 
HETATM   27  C1  UNL     1     112.068  62.696  41.012  1.00  0.00     0.196 A 
ATOM     28  H2  UNL     1     111.098  60.983  41.523  1.00  0.00     0.170 HD
HETATM   29  N1  UNL     1     112.318  62.299  39.654  1.00  0.00    -0.063 NA
HETATM   30  N6  UNL     1     112.482  63.889  41.465  1.00  0.00    -0.295 N 
HETATM   31  C10 UNL     1     112.254  64.275  42.738  1.00  0.00     0.278 A 
ATOM     32  H6  UNL     1     112.981  64.518  40.835  1.00  0.00     0.171 HD
HETATM   33  O13 UNL     1     112.653  65.400  43.141  1.00  0.00    -0.265 OA
HETATM   34  N3  UNL     1     111.194  63.504  44.900  1.00  0.00    -0.345 N 
HETATM   35  C4  UNL     1     110.552  62.356  45.218  1.00  0.00     0.188 A 
ATOM     36  H3  UNL     1     111.358  64.287  45.534  1.00  0.00     0.167 HD
ENDBRANCH   1  23
BRANCH   5  37
HETATM   37  O12 UNL     1     109.381  58.897  45.882  1.00  0.00    -0.388 OA
ATOM     38  H12 UNL     1     109.920  59.173  46.613  1.00  0.00     0.210 HD
ENDBRANCH   5  37
TORSDOF 10
ENDMDL
