MODEL 12
REMARK VINA RESULT: -9.025928995      6.694      9.824
REMARK  10 active torsions:
REMARK  status: ('A' for Active; 'I' for Inactive)
REMARK    1  A    between atoms: N4_10  and  C5_11 
REMARK    2  A    between atoms: C6_13  and  C7_14 
REMARK    3  A    between atoms: C7_14  and  O2_15 
REMARK    4  A    between atoms: O2_15  and  P1_16 
REMARK    5  A    between atoms: P1_16  and  O5_19 
REMARK    6  A    between atoms: O5_19  and  P2_20 
REMARK    7  A    between atoms: P2_20  and  N5_23 
REMARK    8  A    between atoms: N5_23  and  P3_25 
REMARK    9  A    between atoms: C8_29  and  O11_30 
REMARK   10  A    between atoms: C9_32  and  O12_33 
ROOT
HETATM    1  C5  UNL     1     106.986  56.366  38.835  1.00  0.00     0.262 C 
HETATM    2  O1  UNL     1     107.248  57.297  39.836  1.00  0.00    -0.353 OA
HETATM    3  C6  UNL     1     105.998  57.457  40.437  1.00  0.00     0.180 C 
HETATM    4  C8  UNL     1     105.655  56.005  40.751  1.00  0.00     0.182 C 
HETATM    5  C9  UNL     1     106.012  55.364  39.423  1.00  0.00     0.198 C 
ENDROOT
BRANCH   3   6
HETATM    6  C7  UNL     1     106.063  58.297  41.678  1.00  0.00     0.216 C 
BRANCH   6   7
HETATM    7  O2  UNL     1     106.739  59.468  41.378  1.00  0.00    -0.287 OA
BRANCH   7   8
HETATM    8  P1  UNL     1     105.781  60.763  41.909  1.00  0.00     0.417 P 
HETATM    9  O3  UNL     1     104.492  60.273  42.518  1.00  0.00    -0.624 OA
HETATM   10  O4  UNL     1     105.357  61.730  40.563  1.00  0.00    -0.624 OA
BRANCH   8  11
HETATM   11  O5  UNL     1     106.624  61.754  42.987  1.00  0.00    -0.186 OA
BRANCH  11  12
HETATM   12  P2  UNL     1     107.905  60.933  43.697  1.00  0.00     0.379 P 
HETATM   13  O6  UNL     1     107.469  59.597  44.286  1.00  0.00    -0.629 OA
HETATM   14  O7  UNL     1     108.645  61.853  44.901  1.00  0.00    -0.629 OA
BRANCH  12  15
HETATM   15  N5  UNL     1     109.088  60.560  42.452  1.00  0.00    -0.218 N 
ATOM     16  H5  UNL     1     109.195  61.035  41.555  1.00  0.00     0.179 HD
BRANCH  15  17
HETATM   17  P3  UNL     1     110.052  59.217  43.040  1.00  0.00     0.381 P 
HETATM   18  O8  UNL     1     109.441  57.900  42.661  1.00  0.00    -0.622 OA
HETATM   19  O9  UNL     1     110.155  59.243  44.740  1.00  0.00    -0.622 OA
HETATM   20  O10 UNL     1     111.597  59.379  42.363  1.00  0.00    -0.622 OA
ENDBRANCH  15  17
ENDBRANCH  12  15
ENDBRANCH  11  12
ENDBRANCH   8  11
ENDBRANCH   7   8
ENDBRANCH   6   7
ENDBRANCH   3   6
BRANCH   4  21
HETATM   21  O11 UNL     1     104.331  55.842  41.074  1.00  0.00    -0.390 OA
ATOM     22  H11 UNL     1     103.887  55.251  40.478  1.00  0.00     0.210 HD
ENDBRANCH   4  21
BRANCH   1  23
HETATM   23  N4  UNL     1     108.169  55.636  38.446  1.00  0.00    -0.297 N 
HETATM   24  C2  UNL     1     109.242  56.261  37.885  1.00  0.00     0.146 A 
HETATM   25  N2  UNL     1     109.489  57.549  37.572  1.00  0.00    -0.314 N 
HETATM   26  C3  UNL     1     110.218  55.322  37.617  1.00  0.00     0.146 A 
HETATM   27  C1  UNL     1     110.634  57.970  37.014  1.00  0.00     0.196 A 
ATOM     28  H2  UNL     1     108.766  58.241  37.771  1.00  0.00     0.170 HD
HETATM   29  N1  UNL     1     110.846  59.357  36.701  1.00  0.00    -0.063 NA
HETATM   30  N6  UNL     1     111.582  57.055  36.755  1.00  0.00    -0.295 N 
HETATM   31  C10 UNL     1     111.396  55.750  37.043  1.00  0.00     0.278 A 
ATOM     32  H6  UNL     1     112.461  57.353  36.330  1.00  0.00     0.171 HD
HETATM   33  O13 UNL     1     112.300  54.910  36.791  1.00  0.00    -0.265 OA
HETATM   34  N3  UNL     1     109.711  54.141  38.024  1.00  0.00    -0.345 N 
HETATM   35  C4  UNL     1     108.469  54.345  38.524  1.00  0.00     0.188 A 
ATOM     36  H3  UNL     1     110.186  53.240  37.966  1.00  0.00     0.167 HD
ENDBRANCH   1  23
BRANCH   5  37
HETATM   37  O12 UNL     1     104.821  55.320  38.675  1.00  0.00    -0.388 OA
ATOM     38  H12 UNL     1     104.479  54.435  38.631  1.00  0.00     0.210 HD
ENDBRANCH   5  37
TORSDOF 10
ENDMDL
