MODEL 2
REMARK VINA RESULT: -10.259909742      1.342      2.225
REMARK  10 active torsions:
REMARK  status: ('A' for Active; 'I' for Inactive)
REMARK    1  A    between atoms: N4_10  and  C5_11 
REMARK    2  A    between atoms: C6_13  and  C7_14 
REMARK    3  A    between atoms: C7_14  and  O2_15 
REMARK    4  A    between atoms: O2_15  and  P1_16 
REMARK    5  A    between atoms: P1_16  and  O5_19 
REMARK    6  A    between atoms: O5_19  and  P2_20 
REMARK    7  A    between atoms: P2_20  and  N5_23 
REMARK    8  A    between atoms: N5_23  and  P3_25 
REMARK    9  A    between atoms: C8_29  and  O11_30 
REMARK   10  A    between atoms: C9_32  and  O12_33 
ROOT
HETATM    1  C5  UNL     1     111.568  64.815  42.037  1.00  0.00     0.262 C 
HETATM    2  O1  UNL     1     110.502  63.924  41.957  1.00  0.00    -0.353 OA
HETATM    3  C6  UNL     1     111.138  62.683  42.022  1.00  0.00     0.180 C 
HETATM    4  C8  UNL     1     111.955  62.857  43.297  1.00  0.00     0.182 C 
HETATM    5  C9  UNL     1     112.545  64.231  43.038  1.00  0.00     0.198 C 
ENDROOT
BRANCH   3   6
HETATM    6  C7  UNL     1     110.165  61.546  42.132  1.00  0.00     0.216 C 
BRANCH   6   7
HETATM    7  O2  UNL     1     108.881  62.066  42.100  1.00  0.00    -0.287 OA
BRANCH   7   8
HETATM    8  P1  UNL     1     108.134  61.674  43.572  1.00  0.00     0.417 P 
HETATM    9  O3  UNL     1     108.652  62.538  44.693  1.00  0.00    -0.624 OA
HETATM   10  O4  UNL     1     108.516  60.056  43.975  1.00  0.00    -0.624 OA
BRANCH   8  11
HETATM   11  O5  UNL     1     106.451  61.773  43.456  1.00  0.00    -0.186 OA
BRANCH  11  12
HETATM   12  P2  UNL     1     105.880  60.921  42.127  1.00  0.00     0.379 P 
HETATM   13  O6  UNL     1     105.693  61.820  40.910  1.00  0.00    -0.629 OA
HETATM   14  O7  UNL     1     104.425  60.139  42.465  1.00  0.00    -0.629 OA
BRANCH  12  15
HETATM   15  N5  UNL     1     107.082  59.721  41.673  1.00  0.00    -0.218 N 
ATOM     16  H5  UNL     1     108.089  59.870  41.597  1.00  0.00     0.179 HD
BRANCH  15  17
HETATM   17  P3  UNL     1     106.226  58.219  41.375  1.00  0.00     0.381 P 
HETATM   18  O8  UNL     1     105.692  57.633  42.650  1.00  0.00    -0.622 OA
HETATM   19  O9  UNL     1     107.264  57.054  40.691  1.00  0.00    -0.622 OA
HETATM   20  O10 UNL     1     104.962  58.571  40.302  1.00  0.00    -0.622 OA
ENDBRANCH  15  17
ENDBRANCH  12  15
ENDBRANCH  11  12
ENDBRANCH   8  11
ENDBRANCH   7   8
ENDBRANCH   6   7
ENDBRANCH   3   6
BRANCH   4  21
HETATM   21  O11 UNL     1     112.918  61.889  43.433  1.00  0.00    -0.390 OA
ATOM     22  H11 UNL     1     113.048  61.636  44.339  1.00  0.00     0.210 HD
ENDBRANCH   4  21
BRANCH   1  23
HETATM   23  N4  UNL     1     111.164  66.107  42.537  1.00  0.00    -0.297 N 
HETATM   24  C2  UNL     1     112.019  67.168  42.549  1.00  0.00     0.146 A 
HETATM   25  N2  UNL     1     113.301  67.313  42.158  1.00  0.00    -0.314 N 
HETATM   26  C3  UNL     1     111.366  68.264  43.078  1.00  0.00     0.146 A 
HETATM   27  C1  UNL     1     113.980  68.466  42.255  1.00  0.00     0.196 A 
ATOM     28  H2  UNL     1     113.781  66.502  41.768  1.00  0.00     0.170 HD
HETATM   29  N1  UNL     1     115.347  68.566  41.822  1.00  0.00    -0.063 NA
HETATM   30  N6  UNL     1     113.344  69.530  42.769  1.00  0.00    -0.295 N 
HETATM   31  C10 UNL     1     112.061  69.451  43.179  1.00  0.00     0.278 A 
ATOM     32  H6  UNL     1     113.840  70.418  42.851  1.00  0.00     0.171 HD
HETATM   33  O13 UNL     1     111.484  70.464  43.658  1.00  0.00    -0.265 OA
HETATM   34  N3  UNL     1     110.122  67.840  43.377  1.00  0.00    -0.345 N 
HETATM   35  C4  UNL     1     110.012  66.532  43.045  1.00  0.00     0.188 A 
ATOM     36  H3  UNL     1     109.383  68.412  43.787  1.00  0.00     0.167 HD
ENDBRANCH   1  23
BRANCH   5  37
HETATM   37  O12 UNL     1     113.803  64.014  42.448  1.00  0.00    -0.388 OA
ATOM     38  H12 UNL     1     114.402  64.723  42.651  1.00  0.00     0.210 HD
ENDBRANCH   5  37
TORSDOF 10
ENDMDL
