MODEL 20
REMARK VINA RESULT: -7.544548319      6.467      8.820
REMARK  8 active torsions:
REMARK  status: ('A' for Active; 'I' for Inactive)
REMARK    1  A    between atoms: N5_13  and  C6_14 
REMARK    2  A    between atoms: C7_16  and  C8_17 
REMARK    3  A    between atoms: C8_17  and  O2_18 
REMARK    4  A    between atoms: O2_18  and  P1_19 
REMARK    5  A    between atoms: P1_19  and  O5_22 
REMARK    6  A    between atoms: O5_22  and  P2_23 
REMARK    7  A    between atoms: C9_27  and  O9_28 
REMARK    8  A    between atoms: C10_30  and  O10_31 
ROOT
HETATM    1  C6  UNL     1     -12.757  97.859  15.545  1.00  0.00     0.262 C 
HETATM    2  O1  UNL     1     -11.411  98.217  15.618  1.00  0.00    -0.353 OA
HETATM    3  C7  UNL     1     -10.892  97.135  16.327  1.00  0.00     0.180 C 
HETATM    4  C9  UNL     1     -11.476  95.900  15.697  1.00  0.00     0.182 C 
HETATM    5  C10 UNL     1     -12.669  96.483  14.927  1.00  0.00     0.198 C 
ENDROOT
BRANCH   1   6
HETATM    6  N5  UNL     1     -13.540  98.777  14.768  1.00  0.00    -0.297 N 
HETATM    7  C3  UNL     1     -13.402 100.118  14.844  1.00  0.00     0.142 A 
HETATM    8  N3  UNL     1     -12.582 100.895  15.592  1.00  0.00    -0.336 N 
HETATM    9  C4  UNL     1     -14.290 100.719  13.978  1.00  0.00     0.119 A 
HETATM   10  C2  UNL     1     -12.598 102.240  15.522  1.00  0.00     0.183 A 
ATOM     11  H3  UNL     1     -11.927 100.445  16.231  1.00  0.00     0.168 HD
HETATM   12  N2  UNL     1     -13.456 102.817  14.687  1.00  0.00    -0.339 N 
HETATM   13  C1  UNL     1     -14.298 102.090  13.916  1.00  0.00     0.148 A 
ATOM     14  H2  UNL     1     -13.480 103.836  14.625  1.00  0.00     0.167 HD
HETATM   15  N1  UNL     1     -15.182 102.741  13.051  1.00  0.00    -0.080 NA
HETATM   16  N4  UNL     1     -14.953  99.708  13.389  1.00  0.00    -0.346 N 
HETATM   17  C5  UNL     1     -14.491  98.541  13.874  1.00  0.00     0.188 A 
ATOM     18  H4  UNL     1     -15.688  99.811  12.688  1.00  0.00     0.167 HD
ENDBRANCH   1   6
BRANCH   5  19
HETATM   19  O10 UNL     1     -13.802  95.725  15.108  1.00  0.00    -0.388 OA
ATOM     20  H10 UNL     1     -13.627  94.796  15.193  1.00  0.00     0.210 HD
ENDBRANCH   5  19
BRANCH   3  21
HETATM   21  C8  UNL     1      -9.381  97.128  16.325  1.00  0.00     0.216 C 
BRANCH  21  22
HETATM   22  O2  UNL     1      -8.953  98.105  17.169  1.00  0.00    -0.287 OA
BRANCH  22  23
HETATM   23  P1  UNL     1      -9.409  98.031  18.738  1.00  0.00     0.418 P 
HETATM   24  O3  UNL     1      -8.095  98.608  19.261  1.00  0.00    -0.624 OA
HETATM   25  O4  UNL     1     -10.203  99.410  19.386  1.00  0.00    -0.624 OA
BRANCH  23  26
HETATM   26  O5  UNL     1      -9.325  96.676  19.601  1.00  0.00    -0.173 OA
BRANCH  26  27
HETATM   27  P2  UNL     1     -10.652  96.159  20.424  1.00  0.00     0.431 P 
HETATM   28  O6  UNL     1     -11.783  95.269  19.690  1.00  0.00    -0.616 OA
HETATM   29  O7  UNL     1     -10.926  96.774  21.975  1.00  0.00    -0.616 OA
HETATM   30  O8  UNL     1      -9.856  95.017  21.057  1.00  0.00    -0.616 OA
ENDBRANCH  26  27
ENDBRANCH  23  26
ENDBRANCH  22  23
ENDBRANCH  21  22
ENDBRANCH   3  21
BRANCH   4  31
HETATM   31  O9  UNL     1     -12.031  95.060  16.673  1.00  0.00    -0.390 OA
ATOM     32  H9  UNL     1     -12.630  95.543  17.230  1.00  0.00     0.210 HD
ENDBRANCH   4  31
TORSDOF 8
ENDMDL
