MODEL 18
REMARK VINA RESULT: -7.565551408      6.557      9.137
REMARK  8 active torsions:
REMARK  status: ('A' for Active; 'I' for Inactive)
REMARK    1  A    between atoms: N5_13  and  C6_14 
REMARK    2  A    between atoms: C7_16  and  C8_17 
REMARK    3  A    between atoms: C8_17  and  O2_18 
REMARK    4  A    between atoms: O2_18  and  P1_19 
REMARK    5  A    between atoms: P1_19  and  O5_22 
REMARK    6  A    between atoms: O5_22  and  P2_23 
REMARK    7  A    between atoms: C9_27  and  O9_28 
REMARK    8  A    between atoms: C10_30  and  O10_31 
ROOT
HETATM    1  C6  UNL     1     -13.970  97.722  14.675  1.00  0.00     0.262 C 
HETATM    2  O1  UNL     1     -12.769  97.862  15.372  1.00  0.00    -0.353 OA
HETATM    3  C7  UNL     1     -12.704  96.632  16.025  1.00  0.00     0.180 C 
HETATM    4  C9  UNL     1     -13.047  95.590  14.995  1.00  0.00     0.182 C 
HETATM    5  C10 UNL     1     -13.728  96.440  13.914  1.00  0.00     0.198 C 
ENDROOT
BRANCH   1   6
HETATM    6  N5  UNL     1     -14.254  98.840  13.821  1.00  0.00    -0.297 N 
HETATM    7  C3  UNL     1     -13.997 100.120  14.164  1.00  0.00     0.142 A 
HETATM    8  N3  UNL     1     -13.460 100.659  15.286  1.00  0.00    -0.336 N 
HETATM    9  C4  UNL     1     -14.380 100.956  13.137  1.00  0.00     0.119 A 
HETATM   10  C2  UNL     1     -13.283 101.985  15.439  1.00  0.00     0.183 A 
ATOM     11  H3  UNL     1     -13.178 100.036  16.043  1.00  0.00     0.168 HD
HETATM   12  N2  UNL     1     -13.653 102.788  14.447  1.00  0.00    -0.339 N 
HETATM   13  C1  UNL     1     -14.195 102.305  13.304  1.00  0.00     0.148 A 
ATOM     14  H2  UNL     1     -13.526 103.795  14.550  1.00  0.00     0.167 HD
HETATM   15  N1  UNL     1     -14.569 103.189  12.287  1.00  0.00    -0.080 NA
HETATM   16  N4  UNL     1     -14.867 100.145  12.181  1.00  0.00    -0.346 N 
HETATM   17  C5  UNL     1     -14.786  98.871  12.606  1.00  0.00     0.188 A 
ATOM     18  H4  UNL     1     -15.238 100.448  11.280  1.00  0.00     0.167 HD
ENDBRANCH   1   6
BRANCH   5  19
HETATM   19  O10 UNL     1     -14.882  95.845  13.461  1.00  0.00    -0.388 OA
ATOM     20  H10 UNL     1     -15.361  95.382  14.137  1.00  0.00     0.210 HD
ENDBRANCH   5  19
BRANCH   3  21
HETATM   21  C8  UNL     1     -11.351  96.398  16.657  1.00  0.00     0.216 C 
BRANCH  21  22
HETATM   22  O2  UNL     1     -10.417  97.043  15.908  1.00  0.00    -0.287 OA
BRANCH  22  23
HETATM   23  P1  UNL     1      -8.929  97.271  16.549  1.00  0.00     0.418 P 
HETATM   24  O3  UNL     1      -9.306  96.688  17.910  1.00  0.00    -0.624 OA
HETATM   25  O4  UNL     1      -7.800  95.987  16.378  1.00  0.00    -0.624 OA
BRANCH  23  26
HETATM   26  O5  UNL     1      -8.446  98.691  17.130  1.00  0.00    -0.173 OA
BRANCH  26  27
HETATM   27  P2  UNL     1      -9.533  99.664  17.891  1.00  0.00     0.431 P 
HETATM   28  O6  UNL     1      -9.288 100.139  19.416  1.00  0.00    -0.616 OA
HETATM   29  O7  UNL     1     -11.016  99.959  17.134  1.00  0.00    -0.616 OA
HETATM   30  O8  UNL     1      -8.970 100.899  17.187  1.00  0.00    -0.616 OA
ENDBRANCH  26  27
ENDBRANCH  23  26
ENDBRANCH  22  23
ENDBRANCH  21  22
ENDBRANCH   3  21
BRANCH   4  31
HETATM   31  O9  UNL     1     -14.040  94.725  15.476  1.00  0.00    -0.390 OA
ATOM     32  H9  UNL     1     -13.774  93.819  15.377  1.00  0.00     0.210 HD
ENDBRANCH   4  31
TORSDOF 8
ENDMDL
