MODEL 17
REMARK VINA RESULT: -7.639861202      5.726      8.424
REMARK  8 active torsions:
REMARK  status: ('A' for Active; 'I' for Inactive)
REMARK    1  A    between atoms: N5_13  and  C6_14 
REMARK    2  A    between atoms: C7_16  and  C8_17 
REMARK    3  A    between atoms: C8_17  and  O2_18 
REMARK    4  A    between atoms: O2_18  and  P1_19 
REMARK    5  A    between atoms: P1_19  and  O5_22 
REMARK    6  A    between atoms: O5_22  and  P2_23 
REMARK    7  A    between atoms: C9_27  and  O9_28 
REMARK    8  A    between atoms: C10_30  and  O10_31 
ROOT
HETATM    1  C6  UNL     1     -13.328  96.873  14.989  1.00  0.00     0.262 C 
HETATM    2  O1  UNL     1     -13.111  97.068  16.353  1.00  0.00    -0.353 OA
HETATM    3  C7  UNL     1     -12.444  95.889  16.682  1.00  0.00     0.180 C 
HETATM    4  C9  UNL     1     -11.407  95.679  15.612  1.00  0.00     0.182 C 
HETATM    5  C10 UNL     1     -11.925  96.599  14.498  1.00  0.00     0.198 C 
ENDROOT
BRANCH   1   6
HETATM    6  N5  UNL     1     -13.937  98.005  14.352  1.00  0.00    -0.297 N 
HETATM    7  C3  UNL     1     -13.653  99.283  14.680  1.00  0.00     0.142 A 
HETATM    8  N3  UNL     1     -12.808  99.807  15.601  1.00  0.00    -0.336 N 
HETATM    9  C4  UNL     1     -14.397 100.135  13.892  1.00  0.00     0.119 A 
HETATM   10  C2  UNL     1     -12.665 101.134  15.779  1.00  0.00     0.183 A 
ATOM     11  H3  UNL     1     -12.260  99.172  16.182  1.00  0.00     0.168 HD
HETATM   12  N2  UNL     1     -13.383 101.953  15.019  1.00  0.00    -0.339 N 
HETATM   13  C1  UNL     1     -14.242 101.485  14.082  1.00  0.00     0.148 A 
ATOM     14  H2  UNL     1     -13.285 102.961  15.143  1.00  0.00     0.167 HD
HETATM   15  N1  UNL     1     -14.976 102.385  13.305  1.00  0.00    -0.080 NA
HETATM   16  N4  UNL     1     -15.124  99.336  13.092  1.00  0.00    -0.346 N 
HETATM   17  C5  UNL     1     -14.838  98.053  13.379  1.00  0.00     0.188 A 
ATOM     18  H4  UNL     1     -15.786  99.652  12.383  1.00  0.00     0.167 HD
ENDBRANCH   1   6
BRANCH   5  19
HETATM   19  O10 UNL     1     -11.885  95.976  13.273  1.00  0.00    -0.388 OA
ATOM     20  H10 UNL     1     -11.327  96.414  12.642  1.00  0.00     0.210 HD
ENDBRANCH   5  19
BRANCH   3  21
HETATM   21  C8  UNL     1     -11.845  95.944  18.068  1.00  0.00     0.216 C 
BRANCH  21  22
HETATM   22  O2  UNL     1     -11.258  97.161  18.226  1.00  0.00    -0.287 OA
BRANCH  22  23
HETATM   23  P1  UNL     1      -9.785  97.227  18.935  1.00  0.00     0.418 P 
HETATM   24  O3  UNL     1     -10.077  98.533  19.671  1.00  0.00    -0.624 OA
HETATM   25  O4  UNL     1      -9.623  96.469  20.469  1.00  0.00    -0.624 OA
BRANCH  23  26
HETATM   26  O5  UNL     1      -8.481  97.779  18.173  1.00  0.00    -0.173 OA
BRANCH  26  27
HETATM   27  P2  UNL     1      -8.666  98.739  16.850  1.00  0.00     0.431 P 
HETATM   28  O6  UNL     1      -8.772 100.345  17.004  1.00  0.00    -0.616 OA
HETATM   29  O7  UNL     1      -8.982  98.004  15.360  1.00  0.00    -0.616 OA
HETATM   30  O8  UNL     1      -7.172  98.651  16.535  1.00  0.00    -0.616 OA
ENDBRANCH  26  27
ENDBRANCH  23  26
ENDBRANCH  22  23
ENDBRANCH  21  22
ENDBRANCH   3  21
BRANCH   4  31
HETATM   31  O9  UNL     1     -11.484  94.379  15.094  1.00  0.00    -0.390 OA
ATOM     32  H9  UNL     1     -11.437  94.392  14.145  1.00  0.00     0.210 HD
ENDBRANCH   4  31
TORSDOF 8
ENDMDL
