MODEL 1
REMARK VINA RESULT: -11.219527954      0.000      0.000
REMARK  15 active torsions:
REMARK  status: ('A' for Active; 'I' for Inactive)
REMARK    1  A    between atoms: C1_2  and  C2_4 
REMARK    2  A    between atoms: N2_8  and  C6_9 
REMARK    3  A    between atoms: C7_11  and  C8_12 
REMARK    4  A    between atoms: C8_12  and  O3_13 
REMARK    5  A    between atoms: O3_13  and  P1_14 
REMARK    6  A    between atoms: P1_14  and  O6_17 
REMARK    7  A    between atoms: O6_17  and  P2_18 
REMARK    8  A    between atoms: P2_18  and  O9_21 
REMARK    9  A    between atoms: O9_21  and  C9_22 
REMARK   10  A    between atoms: C9_22  and  C10_23 
REMARK   11  A    between atoms: C11_25  and  N3_26 
REMARK   12  A    between atoms: C17_39  and  O11_40 
REMARK   13  A    between atoms: C18_42  and  O12_43 
REMARK   14  A    between atoms: C19_45  and  O13_46 
REMARK   15  A    between atoms: C20_48  and  O14_49 
ROOT
HETATM    1  P2  UNL     1      31.131   5.220  37.951  1.00  0.00     0.417 P 
HETATM    2  O7  UNL     1      31.152   5.654  36.516  1.00  0.00    -0.624 OA
HETATM    3  O8  UNL     1      32.154   6.361  38.795  1.00  0.00    -0.624 OA
ENDROOT
BRANCH   1   4
HETATM    4  O6  UNL     1      29.663   5.206  38.620  1.00  0.00    -0.180 OA
BRANCH   4   5
HETATM    5  P1  UNL     1      28.718   3.868  38.398  1.00  0.00     0.417 P 
HETATM    6  O4  UNL     1      27.415   3.913  39.076  1.00  0.00    -0.624 OA
HETATM    7  O5  UNL     1      29.563   2.511  39.213  1.00  0.00    -0.624 OA
BRANCH   5   8
HETATM    8  O3  UNL     1      28.688   3.420  36.823  1.00  0.00    -0.287 OA
BRANCH   8   9
HETATM    9  C8  UNL     1      28.622   2.023  36.628  1.00  0.00     0.216 C 
BRANCH   9  10
HETATM   10  C7  UNL     1      28.113   1.973  35.155  1.00  0.00     0.180 C 
HETATM   11  O2  UNL     1      26.924   1.287  35.119  1.00  0.00    -0.353 OA
HETATM   12  C6  UNL     1      25.984   1.962  34.376  1.00  0.00     0.259 C 
HETATM   13  C20 UNL     1      26.817   2.907  33.504  1.00  0.00     0.198 C 
HETATM   14  C19 UNL     1      27.915   3.292  34.540  1.00  0.00     0.182 C 
BRANCH  12  15
HETATM   15  N2  UNL     1      25.277   2.820  35.350  1.00  0.00    -0.336 N 
HETATM   16  C5  UNL     1      25.046   2.418  36.601  1.00  0.00     0.093 A 
HETATM   17  C4  UNL     1      24.274   3.208  37.452  1.00  0.00     0.018 A 
HETATM   18  C3  UNL     1      23.755   4.386  36.999  1.00  0.00     0.019 A 
HETATM   19  C2  UNL     1      24.010   4.766  35.707  1.00  0.00     0.044 A 
HETATM   20  C21 UNL     1      24.777   3.971  34.884  1.00  0.00     0.110 A 
BRANCH  19  21
HETATM   21  C1  UNL     1      23.441   5.985  35.165  1.00  0.00     0.266 C 
HETATM   22  N1  UNL     1      23.793   7.238  35.716  1.00  0.00    -0.057 NA
HETATM   23  O1  UNL     1      22.613   5.992  34.191  1.00  0.00    -0.271 OA
ENDBRANCH  19  21
ENDBRANCH  12  15
BRANCH  13  24
HETATM   24  O14 UNL     1      27.482   2.177  32.519  1.00  0.00    -0.388 OA
ATOM     25  H14 UNL     1      28.230   1.733  32.900  1.00  0.00     0.210 HD
ENDBRANCH  13  24
BRANCH  14  26
HETATM   26  O13 UNL     1      29.035   3.817  33.884  1.00  0.00    -0.390 OA
ATOM     27  H13 UNL     1      28.945   4.716  33.590  1.00  0.00     0.210 HD
ENDBRANCH  14  26
ENDBRANCH   9  10
ENDBRANCH   8   9
ENDBRANCH   5   8
ENDBRANCH   4   5
ENDBRANCH   1   4
BRANCH   1  28
HETATM   28  O9  UNL     1      32.078   3.774  38.017  1.00  0.00    -0.287 OA
BRANCH  28  29
HETATM   29  C9  UNL     1      32.103   3.362  36.644  1.00  0.00     0.216 C 
BRANCH  29  30
HETATM   30  C10 UNL     1      33.500   3.268  36.201  1.00  0.00     0.180 C 
HETATM   31  O10 UNL     1      33.534   3.265  34.778  1.00  0.00    -0.353 OA
HETATM   32  C11 UNL     1      34.931   3.244  34.586  1.00  0.00     0.262 C 
HETATM   33  C17 UNL     1      35.219   4.587  35.310  1.00  0.00     0.198 C 
HETATM   34  C18 UNL     1      34.414   4.339  36.617  1.00  0.00     0.182 C 
BRANCH  32  35
HETATM   35  N3  UNL     1      35.216   3.281  33.204  1.00  0.00    -0.297 N 
HETATM   36  C12 UNL     1      34.705   4.123  32.244  1.00  0.00     0.188 A 
HETATM   37  N4  UNL     1      35.232   3.847  31.050  1.00  0.00    -0.346 N 
HETATM   38  C13 UNL     1      36.107   2.816  31.240  1.00  0.00     0.119 A 
ATOM     39  H4  UNL     1      35.022   4.315  30.168  1.00  0.00     0.167 HD
HETATM   40  C14 UNL     1      36.902   2.139  30.361  1.00  0.00     0.148 A 
HETATM   41  C16 UNL     1      36.077   2.478  32.584  1.00  0.00     0.142 A 
HETATM   42  N5  UNL     1      36.960   2.509  28.988  1.00  0.00    -0.080 NA
HETATM   43  N6  UNL     1      37.662   1.121  30.796  1.00  0.00    -0.339 N 
HETATM   44  C15 UNL     1      37.644   0.767  32.084  1.00  0.00     0.183 A 
ATOM     45  H6  UNL     1      38.255   0.615  30.139  1.00  0.00     0.167 HD
HETATM   46  N7  UNL     1      36.852   1.454  32.963  1.00  0.00    -0.336 N 
ATOM     47  H7  UNL     1      36.851   1.174  33.944  1.00  0.00     0.168 HD
ENDBRANCH  32  35
BRANCH  33  48
HETATM   48  O11 UNL     1      36.533   4.847  35.496  1.00  0.00    -0.388 OA
ATOM     49  H11 UNL     1      37.032   4.929  34.692  1.00  0.00     0.210 HD
ENDBRANCH  33  48
BRANCH  34  50
HETATM   50  O12 UNL     1      35.370   3.816  37.541  1.00  0.00    -0.390 OA
ATOM     51  H12 UNL     1      36.223   3.775  37.124  1.00  0.00     0.210 HD
ENDBRANCH  34  50
ENDBRANCH  29  30
ENDBRANCH  28  29
ENDBRANCH   1  28
TORSDOF 15
ENDMDL
