MODEL 9
REMARK VINA RESULT: -10.237911814      5.093      8.914
REMARK  15 active torsions:
REMARK  status: ('A' for Active; 'I' for Inactive)
REMARK    1  A    between atoms: C1_2  and  C2_4 
REMARK    2  A    between atoms: N2_8  and  C6_9 
REMARK    3  A    between atoms: C7_11  and  C8_12 
REMARK    4  A    between atoms: C8_12  and  O3_13 
REMARK    5  A    between atoms: O3_13  and  P1_14 
REMARK    6  A    between atoms: P1_14  and  O6_17 
REMARK    7  A    between atoms: O6_17  and  P2_18 
REMARK    8  A    between atoms: P2_18  and  O9_21 
REMARK    9  A    between atoms: O9_21  and  C9_22 
REMARK   10  A    between atoms: C9_22  and  C10_23 
REMARK   11  A    between atoms: C11_25  and  N3_26 
REMARK   12  A    between atoms: C17_39  and  O11_40 
REMARK   13  A    between atoms: C18_42  and  O12_43 
REMARK   14  A    between atoms: C19_45  and  O13_46 
REMARK   15  A    between atoms: C20_48  and  O14_49 
ROOT
HETATM    1  P2  UNL     1      22.468   3.897  35.720  1.00  0.00     0.417 P 
HETATM    2  O7  UNL     1      21.415   4.047  36.776  1.00  0.00    -0.624 OA
HETATM    3  O8  UNL     1      21.595   3.564  34.241  1.00  0.00    -0.624 OA
ENDROOT
BRANCH   1   4
HETATM    4  O6  UNL     1      23.400   5.198  35.522  1.00  0.00    -0.180 OA
BRANCH   4   5
HETATM    5  P1  UNL     1      22.759   6.679  35.881  1.00  0.00     0.417 P 
HETATM    6  O4  UNL     1      23.532   7.824  35.383  1.00  0.00    -0.624 OA
HETATM    7  O5  UNL     1      22.861   6.855  37.664  1.00  0.00    -0.624 OA
BRANCH   5   8
HETATM    8  O3  UNL     1      21.151   6.717  35.576  1.00  0.00    -0.287 OA
BRANCH   8   9
HETATM    9  C8  UNL     1      20.411   7.486  36.501  1.00  0.00     0.216 C 
BRANCH   9  10
HETATM   10  C7  UNL     1      19.026   6.776  36.409  1.00  0.00     0.180 C 
HETATM   11  O2  UNL     1      18.036   7.725  36.474  1.00  0.00    -0.353 OA
HETATM   12  C6  UNL     1      17.092   7.526  35.493  1.00  0.00     0.259 C 
HETATM   13  C20 UNL     1      17.284   6.060  35.093  1.00  0.00     0.198 C 
HETATM   14  C19 UNL     1      18.837   5.981  35.188  1.00  0.00     0.182 C 
BRANCH  12  15
HETATM   15  N2  UNL     1      17.566   8.329  34.345  1.00  0.00    -0.336 N 
HETATM   16  C5  UNL     1      18.025   9.572  34.500  1.00  0.00     0.093 A 
HETATM   17  C4  UNL     1      18.350  10.336  33.379  1.00  0.00     0.018 A 
HETATM   18  C3  UNL     1      18.193   9.808  32.130  1.00  0.00     0.019 A 
HETATM   19  C2  UNL     1      17.717   8.529  32.009  1.00  0.00     0.044 A 
HETATM   20  C21 UNL     1      17.403   7.792  33.130  1.00  0.00     0.110 A 
BRANCH  19  21
HETATM   21  C1  UNL     1      17.489   7.941  30.703  1.00  0.00     0.266 C 
HETATM   22  N1  UNL     1      18.510   7.966  29.726  1.00  0.00    -0.057 NA
HETATM   23  O1  UNL     1      16.384   7.389  30.373  1.00  0.00    -0.271 OA
ENDBRANCH  19  21
ENDBRANCH  12  15
BRANCH  13  24
HETATM   24  O14 UNL     1      16.812   5.229  36.108  1.00  0.00    -0.388 OA
ATOM     25  H14 UNL     1      16.387   4.468  35.730  1.00  0.00     0.210 HD
ENDBRANCH  13  24
BRANCH  14  26
HETATM   26  O13 UNL     1      19.248   4.645  35.278  1.00  0.00    -0.390 OA
ATOM     27  H13 UNL     1      18.957   4.085  34.568  1.00  0.00     0.210 HD
ENDBRANCH  14  26
ENDBRANCH   9  10
ENDBRANCH   8   9
ENDBRANCH   5   8
ENDBRANCH   4   5
ENDBRANCH   1   4
BRANCH   1  28
HETATM   28  O9  UNL     1      23.233   2.378  36.033  1.00  0.00    -0.287 OA
BRANCH  28  29
HETATM   29  C9  UNL     1      24.504   2.779  36.564  1.00  0.00     0.216 C 
BRANCH  29  30
HETATM   30  C10 UNL     1      25.498   2.762  35.482  1.00  0.00     0.180 C 
HETATM   31  O10 UNL     1      26.781   3.046  36.030  1.00  0.00    -0.353 OA
HETATM   32  C11 UNL     1      27.560   2.907  34.863  1.00  0.00     0.262 C 
HETATM   33  C17 UNL     1      27.203   1.418  34.600  1.00  0.00     0.198 C 
HETATM   34  C18 UNL     1      25.656   1.510  34.731  1.00  0.00     0.182 C 
BRANCH  32  35
HETATM   35  N3  UNL     1      28.920   3.108  35.179  1.00  0.00    -0.297 N 
HETATM   36  C12 UNL     1      29.851   3.878  34.519  1.00  0.00     0.188 A 
HETATM   37  N4  UNL     1      31.032   3.818  35.136  1.00  0.00    -0.346 N 
HETATM   38  C13 UNL     1      30.863   3.004  36.220  1.00  0.00     0.119 A 
ATOM     39  H4  UNL     1      31.892   4.288  34.854  1.00  0.00     0.167 HD
HETATM   40  C14 UNL     1      31.741   2.594  37.181  1.00  0.00     0.148 A 
HETATM   41  C16 UNL     1      29.545   2.573  36.223  1.00  0.00     0.142 A 
HETATM   42  N5  UNL     1      33.084   3.066  37.198  1.00  0.00    -0.080 NA
HETATM   43  N6  UNL     1      31.333   1.749  38.141  1.00  0.00    -0.339 N 
HETATM   44  C15 UNL     1      30.072   1.308  38.161  1.00  0.00     0.183 A 
ATOM     45  H6  UNL     1      31.989   1.441  38.858  1.00  0.00     0.167 HD
HETATM   46  N7  UNL     1      29.193   1.729  37.201  1.00  0.00    -0.336 N 
ATOM     47  H7  UNL     1      28.233   1.386  37.232  1.00  0.00     0.168 HD
ENDBRANCH  32  35
BRANCH  33  48
HETATM   48  O11 UNL     1      27.643   0.943  33.414  1.00  0.00    -0.388 OA
ATOM     49  H11 UNL     1      28.589   0.924  33.326  1.00  0.00     0.210 HD
ENDBRANCH  33  48
BRANCH  34  50
HETATM   50  O12 UNL     1      25.187   1.696  33.394  1.00  0.00    -0.390 OA
ATOM     51  H12 UNL     1      25.380   0.920  32.881  1.00  0.00     0.210 HD
ENDBRANCH  34  50
ENDBRANCH  29  30
ENDBRANCH  28  29
ENDBRANCH   1  28
TORSDOF 15
ENDMDL
