MODEL 4
REMARK VINA RESULT: -10.662673045      5.582      9.991
REMARK  15 active torsions:
REMARK  status: ('A' for Active; 'I' for Inactive)
REMARK    1  A    between atoms: C1_2  and  C2_4 
REMARK    2  A    between atoms: N2_8  and  C6_9 
REMARK    3  A    between atoms: C7_11  and  C8_12 
REMARK    4  A    between atoms: C8_12  and  O3_13 
REMARK    5  A    between atoms: O3_13  and  P1_14 
REMARK    6  A    between atoms: P1_14  and  O6_17 
REMARK    7  A    between atoms: O6_17  and  P2_18 
REMARK    8  A    between atoms: P2_18  and  O9_21 
REMARK    9  A    between atoms: O9_21  and  C9_22 
REMARK   10  A    between atoms: C9_22  and  C10_23 
REMARK   11  A    between atoms: C11_25  and  N3_26 
REMARK   12  A    between atoms: C17_39  and  O11_40 
REMARK   13  A    between atoms: C18_42  and  O12_43 
REMARK   14  A    between atoms: C19_45  and  O13_46 
REMARK   15  A    between atoms: C20_48  and  O14_49 
ROOT
HETATM    1  P2  UNL     1      21.543   4.413  35.970  1.00  0.00     0.417 P 
HETATM    2  O7  UNL     1      21.169   2.962  36.017  1.00  0.00    -0.624 OA
HETATM    3  O8  UNL     1      21.880   4.749  34.286  1.00  0.00    -0.624 OA
ENDROOT
BRANCH   1   4
HETATM    4  O6  UNL     1      20.396   5.412  36.506  1.00  0.00    -0.180 OA
BRANCH   4   5
HETATM    5  P1  UNL     1      20.611   7.037  36.287  1.00  0.00     0.417 P 
HETATM    6  O4  UNL     1      21.923   7.548  36.703  1.00  0.00    -0.624 OA
HETATM    7  O5  UNL     1      19.472   7.853  37.407  1.00  0.00    -0.624 OA
BRANCH   5   8
HETATM    8  O3  UNL     1      20.100   7.504  34.802  1.00  0.00    -0.287 OA
BRANCH   8   9
HETATM    9  C8  UNL     1      18.883   8.221  34.816  1.00  0.00     0.216 C 
BRANCH   9  10
HETATM   10  C7  UNL     1      17.943   7.183  34.131  1.00  0.00     0.180 C 
HETATM   11  O2  UNL     1      16.718   7.767  33.917  1.00  0.00    -0.353 OA
HETATM   12  C6  UNL     1      16.273   7.533  32.637  1.00  0.00     0.259 C 
HETATM   13  C20 UNL     1      17.083   6.312  32.187  1.00  0.00     0.198 C 
HETATM   14  C19 UNL     1      18.446   6.664  32.853  1.00  0.00     0.182 C 
BRANCH  12  15
HETATM   15  N2  UNL     1      16.779   8.675  31.846  1.00  0.00    -0.336 N 
HETATM   16  C5  UNL     1      17.013   9.865  32.402  1.00  0.00     0.093 A 
HETATM   17  C4  UNL     1      17.376  10.946  31.599  1.00  0.00     0.018 A 
HETATM   18  C3  UNL     1      17.487  10.781  30.249  1.00  0.00     0.019 A 
HETATM   19  C2  UNL     1      17.237   9.546  29.712  1.00  0.00     0.044 A 
HETATM   20  C21 UNL     1      16.881   8.491  30.524  1.00  0.00     0.110 A 
BRANCH  19  21
HETATM   21  C1  UNL     1      17.295   9.332  28.279  1.00  0.00     0.266 C 
HETATM   22  N1  UNL     1      17.621   8.057  27.765  1.00  0.00    -0.057 NA
HETATM   23  O1  UNL     1      17.065  10.258  27.429  1.00  0.00    -0.271 OA
ENDBRANCH  19  21
ENDBRANCH  12  15
BRANCH  13  24
HETATM   24  O14 UNL     1      16.631   5.175  32.853  1.00  0.00    -0.388 OA
ATOM     25  H14 UNL     1      17.105   5.073  33.671  1.00  0.00     0.210 HD
ENDBRANCH  13  24
BRANCH  14  26
HETATM   26  O13 UNL     1      19.246   5.518  32.950  1.00  0.00    -0.390 OA
ATOM     27  H13 UNL     1      19.534   5.156  32.120  1.00  0.00     0.210 HD
ENDBRANCH  14  26
ENDBRANCH   9  10
ENDBRANCH   8   9
ENDBRANCH   5   8
ENDBRANCH   4   5
ENDBRANCH   1   4
BRANCH   1  28
HETATM   28  O9  UNL     1      23.118   4.515  36.677  1.00  0.00    -0.287 OA
BRANCH  28  29
HETATM   29  C9  UNL     1      23.546   3.146  36.668  1.00  0.00     0.216 C 
BRANCH  29  30
HETATM   30  C10 UNL     1      24.445   2.937  35.524  1.00  0.00     0.180 C 
HETATM   31  O10 UNL     1      25.779   3.221  35.928  1.00  0.00    -0.353 OA
HETATM   32  C11 UNL     1      26.452   2.893  34.733  1.00  0.00     0.262 C 
HETATM   33  C17 UNL     1      26.012   1.403  34.698  1.00  0.00     0.198 C 
HETATM   34  C18 UNL     1      24.486   1.592  34.935  1.00  0.00     0.182 C 
BRANCH  32  35
HETATM   35  N3  UNL     1      27.841   3.062  34.913  1.00  0.00    -0.297 N 
HETATM   36  C12 UNL     1      28.791   3.421  33.984  1.00  0.00     0.188 A 
HETATM   37  N4  UNL     1      29.998   3.483  34.547  1.00  0.00    -0.346 N 
HETATM   38  C13 UNL     1      29.828   3.169  35.866  1.00  0.00     0.119 A 
ATOM     39  H4  UNL     1      30.875   3.719  34.085  1.00  0.00     0.167 HD
HETATM   40  C14 UNL     1      30.726   3.072  36.889  1.00  0.00     0.148 A 
HETATM   41  C16 UNL     1      28.482   2.907  36.068  1.00  0.00     0.142 A 
HETATM   42  N5  UNL     1      32.103   3.376  36.689  1.00  0.00    -0.080 NA
HETATM   43  N6  UNL     1      30.309   2.706  38.111  1.00  0.00    -0.339 N 
HETATM   44  C15 UNL     1      29.019   2.436  38.332  1.00  0.00     0.183 A 
ATOM     45  H6  UNL     1      30.980   2.632  38.876  1.00  0.00     0.167 HD
HETATM   46  N7  UNL     1      28.121   2.543  37.305  1.00  0.00    -0.336 N 
ATOM     47  H7  UNL     1      27.139   2.337  37.489  1.00  0.00     0.168 HD
ENDBRANCH  32  35
BRANCH  33  48
HETATM   48  O11 UNL     1      26.330   0.757  33.555  1.00  0.00    -0.388 OA
ATOM     49  H11 UNL     1      26.787  -0.066  33.686  1.00  0.00     0.210 HD
ENDBRANCH  33  48
BRANCH  34  50
HETATM   50  O12 UNL     1      23.916   1.629  33.626  1.00  0.00    -0.390 OA
ATOM     51  H12 UNL     1      24.610   1.610  32.978  1.00  0.00     0.210 HD
ENDBRANCH  34  50
ENDBRANCH  29  30
ENDBRANCH  28  29
ENDBRANCH   1  28
TORSDOF 15
ENDMDL
