MODEL 11
REMARK VINA RESULT: -10.098880487      4.513      8.030
REMARK  15 active torsions:
REMARK  status: ('A' for Active; 'I' for Inactive)
REMARK    1  A    between atoms: C1_2  and  C2_4 
REMARK    2  A    between atoms: N2_8  and  C6_9 
REMARK    3  A    between atoms: C7_11  and  C8_12 
REMARK    4  A    between atoms: C8_12  and  O3_13 
REMARK    5  A    between atoms: O3_13  and  P1_14 
REMARK    6  A    between atoms: P1_14  and  O6_17 
REMARK    7  A    between atoms: O6_17  and  P2_18 
REMARK    8  A    between atoms: P2_18  and  O9_21 
REMARK    9  A    between atoms: O9_21  and  C9_22 
REMARK   10  A    between atoms: C9_22  and  C10_23 
REMARK   11  A    between atoms: C11_25  and  N3_26 
REMARK   12  A    between atoms: C17_39  and  O11_40 
REMARK   13  A    between atoms: C18_42  and  O12_43 
REMARK   14  A    between atoms: C19_45  and  O13_46 
REMARK   15  A    between atoms: C20_48  and  O14_49 
ROOT
HETATM    1  P2  UNL     1      23.883   3.452  35.778  1.00  0.00     0.417 P 
HETATM    2  O7  UNL     1      22.937   3.010  36.854  1.00  0.00    -0.624 OA
HETATM    3  O8  UNL     1      23.902   2.146  34.614  1.00  0.00    -0.624 OA
ENDROOT
BRANCH   1   4
HETATM    4  O6  UNL     1      23.463   4.827  35.048  1.00  0.00    -0.180 OA
BRANCH   4   5
HETATM    5  P1  UNL     1      23.007   6.105  35.993  1.00  0.00     0.417 P 
HETATM    6  O4  UNL     1      23.312   7.428  35.432  1.00  0.00    -0.624 OA
HETATM    7  O5  UNL     1      24.029   6.034  37.466  1.00  0.00    -0.624 OA
BRANCH   5   8
HETATM    8  O3  UNL     1      21.485   5.905  36.563  1.00  0.00    -0.287 OA
BRANCH   8   9
HETATM    9  C8  UNL     1      20.673   7.054  36.439  1.00  0.00     0.216 C 
BRANCH   9  10
HETATM   10  C7  UNL     1      19.263   6.392  36.382  1.00  0.00     0.180 C 
HETATM   11  O2  UNL     1      18.308   7.368  36.532  1.00  0.00    -0.353 OA
HETATM   12  C6  UNL     1      17.315   7.241  35.589  1.00  0.00     0.259 C 
HETATM   13  C20 UNL     1      17.440   5.788  35.120  1.00  0.00     0.198 C 
HETATM   14  C19 UNL     1      18.992   5.656  35.139  1.00  0.00     0.182 C 
BRANCH  12  15
HETATM   15  N2  UNL     1      17.763   8.077  34.454  1.00  0.00    -0.336 N 
HETATM   16  C5  UNL     1      18.272   9.297  34.639  1.00  0.00     0.093 A 
HETATM   17  C4  UNL     1      18.571  10.097  33.537  1.00  0.00     0.018 A 
HETATM   18  C3  UNL     1      18.339   9.630  32.276  1.00  0.00     0.019 A 
HETATM   19  C2  UNL     1      17.813   8.374  32.124  1.00  0.00     0.044 A 
HETATM   20  C21 UNL     1      17.526   7.599  33.226  1.00  0.00     0.110 A 
BRANCH  19  21
HETATM   21  C1  UNL     1      17.505   7.851  30.806  1.00  0.00     0.266 C 
HETATM   22  N1  UNL     1      18.453   7.951  29.764  1.00  0.00    -0.057 NA
HETATM   23  O1  UNL     1      16.390   7.293  30.525  1.00  0.00    -0.271 OA
ENDBRANCH  19  21
ENDBRANCH  12  15
BRANCH  13  24
HETATM   24  O14 UNL     1      16.987   4.930  36.121  1.00  0.00    -0.388 OA
ATOM     25  H14 UNL     1      17.709   4.691  36.690  1.00  0.00     0.210 HD
ENDBRANCH  13  24
BRANCH  14  26
HETATM   26  O13 UNL     1      19.362   4.306  35.155  1.00  0.00    -0.390 OA
ATOM     27  H13 UNL     1      18.647   3.690  35.043  1.00  0.00     0.210 HD
ENDBRANCH  14  26
ENDBRANCH   9  10
ENDBRANCH   8   9
ENDBRANCH   5   8
ENDBRANCH   4   5
ENDBRANCH   1   4
BRANCH   1  28
HETATM   28  O9  UNL     1      25.464   3.338  36.469  1.00  0.00    -0.287 OA
BRANCH  28  29
HETATM   29  C9  UNL     1      26.297   3.213  35.308  1.00  0.00     0.216 C 
BRANCH  29  30
HETATM   30  C10 UNL     1      27.518   2.484  35.675  1.00  0.00     0.180 C 
HETATM   31  O10 UNL     1      28.532   3.423  36.013  1.00  0.00    -0.353 OA
HETATM   32  C11 UNL     1      29.554   2.526  36.391  1.00  0.00     0.262 C 
HETATM   33  C17 UNL     1      28.770   1.862  37.556  1.00  0.00     0.198 C 
HETATM   34  C18 UNL     1      27.436   1.561  36.815  1.00  0.00     0.182 C 
BRANCH  32  35
HETATM   35  N3  UNL     1      30.684   3.254  36.820  1.00  0.00    -0.297 N 
HETATM   36  C12 UNL     1      30.767   4.207  37.808  1.00  0.00     0.188 A 
HETATM   37  N4  UNL     1      32.017   4.658  37.921  1.00  0.00    -0.346 N 
HETATM   38  C13 UNL     1      32.760   3.979  36.997  1.00  0.00     0.119 A 
ATOM     39  H4  UNL     1      32.353   5.370  38.569  1.00  0.00     0.167 HD
HETATM   40  C14 UNL     1      34.085   4.054  36.679  1.00  0.00     0.148 A 
HETATM   41  C16 UNL     1      31.910   3.116  36.323  1.00  0.00     0.142 A 
HETATM   42  N5  UNL     1      34.965   4.914  37.395  1.00  0.00    -0.080 NA
HETATM   43  N6  UNL     1      34.578   3.292  35.689  1.00  0.00    -0.339 N 
HETATM   44  C15 UNL     1      33.779   2.460  35.016  1.00  0.00     0.183 A 
ATOM     45  H6  UNL     1      35.568   3.349  35.451  1.00  0.00     0.167 HD
HETATM   46  N7  UNL     1      32.453   2.382  35.344  1.00  0.00    -0.336 N 
ATOM     47  H7  UNL     1      31.856   1.740  34.822  1.00  0.00     0.168 HD
ENDBRANCH  32  35
BRANCH  33  48
HETATM   48  O11 UNL     1      29.378   0.779  38.088  1.00  0.00    -0.388 OA
ATOM     49  H11 UNL     1      29.096   0.566  38.970  1.00  0.00     0.210 HD
ENDBRANCH  33  48
BRANCH  34  50
HETATM   50  O12 UNL     1      27.573   0.217  36.348  1.00  0.00    -0.390 OA
ATOM     51  H12 UNL     1      28.045  -0.295  36.995  1.00  0.00     0.210 HD
ENDBRANCH  34  50
ENDBRANCH  29  30
ENDBRANCH  28  29
ENDBRANCH   1  28
TORSDOF 15
ENDMDL
