MODEL 12
REMARK VINA RESULT: -3.384631420      1.477      2.138
REMARK  6 active torsions:
REMARK  status: ('A' for Active; 'I' for Inactive)
REMARK    1  A    between atoms: O1_1  and  C1_3 
REMARK    2  A    between atoms: C1_3  and  C2_4 
REMARK    3  A    between atoms: C3_6  and  O3_7 
REMARK    4  A    between atoms: C4_9  and  O4_10 
REMARK    5  A    between atoms: C5_12  and  O5_13 
REMARK    6  A    between atoms: C6_15  and  O6_16 
ROOT
HETATM    1  C2  UNL     1      51.622  56.607  67.579  1.00  0.00     0.179 C 
HETATM    2  O2  UNL     1      51.604  55.251  67.591  1.00  0.00    -0.349 OA
HETATM    3  C3  UNL     1      52.044  54.611  66.460  1.00  0.00     0.288 C 
HETATM    4  C4  UNL     1      53.399  55.032  65.989  1.00  0.00     0.204 C 
HETATM    5  C5  UNL     1      53.873  56.197  66.828  1.00  0.00     0.183 C 
HETATM    6  C6  UNL     1      52.738  57.210  66.750  1.00  0.00     0.180 C 
ENDROOT
BRANCH   1   7
HETATM    7  C1  UNL     1      50.285  57.236  67.247  1.00  0.00     0.198 C 
BRANCH   7   8
HETATM    8  O1  UNL     1      49.266  56.300  67.421  1.00  0.00    -0.398 OA
ATOM      9  H1  UNL     1      48.556  56.685  67.921  1.00  0.00     0.209 HD
ENDBRANCH   7   8
ENDBRANCH   1   7
BRANCH   6  10
HETATM   10  O6  UNL     1      52.281  57.256  65.432  1.00  0.00    -0.390 OA
ATOM     11  H6  UNL     1      51.903  58.118  65.303  1.00  0.00     0.210 HD
ENDBRANCH   6  10
BRANCH   3  12
HETATM   12  O3  UNL     1      51.077  54.705  65.433  1.00  0.00    -0.369 OA
ATOM     13  H3  UNL     1      51.382  54.262  64.650  1.00  0.00     0.212 HD
ENDBRANCH   3  12
BRANCH   5  14
HETATM   14  O5  UNL     1      55.072  56.723  66.399  1.00  0.00    -0.390 OA
ATOM     15  H5  UNL     1      55.740  56.063  66.255  1.00  0.00     0.210 HD
ENDBRANCH   5  14
BRANCH   4  16
HETATM   16  O4  UNL     1      54.319  54.006  65.935  1.00  0.00    -0.388 OA
ATOM     17  H4  UNL     1      55.028  54.154  65.320  1.00  0.00     0.210 HD
ENDBRANCH   4  16
TORSDOF 6
ENDMDL
