MODEL 5
REMARK VINA RESULT: -3.541680717      4.984      6.608
REMARK  6 active torsions:
REMARK  status: ('A' for Active; 'I' for Inactive)
REMARK    1  A    between atoms: O1_1  and  C1_3 
REMARK    2  A    between atoms: C1_3  and  C2_4 
REMARK    3  A    between atoms: C3_6  and  O3_7 
REMARK    4  A    between atoms: C4_9  and  O4_10 
REMARK    5  A    between atoms: C5_12  and  O5_13 
REMARK    6  A    between atoms: C6_15  and  O6_16 
ROOT
HETATM    1  C2  UNL     1      50.714  62.841  69.197  1.00  0.00     0.179 C 
HETATM    2  O2  UNL     1      49.791  61.920  69.575  1.00  0.00    -0.349 OA
HETATM    3  C3  UNL     1      50.263  60.703  69.999  1.00  0.00     0.288 C 
HETATM    4  C4  UNL     1      51.290  60.773  71.083  1.00  0.00     0.204 C 
HETATM    5  C5  UNL     1      51.656  62.220  71.323  1.00  0.00     0.183 C 
HETATM    6  C6  UNL     1      52.028  62.754  69.946  1.00  0.00     0.180 C 
ENDROOT
BRANCH   1   7
HETATM    7  C1  UNL     1      50.934  62.909  67.700  1.00  0.00     0.198 C 
BRANCH   7   8
HETATM    8  O1  UNL     1      49.892  62.261  67.037  1.00  0.00    -0.398 OA
ATOM      9  H1  UNL     1      50.198  61.931  66.200  1.00  0.00     0.209 HD
ENDBRANCH   7   8
ENDBRANCH   1   7
BRANCH   6  10
HETATM   10  O6  UNL     1      52.799  61.790  69.296  1.00  0.00    -0.390 OA
ATOM     11  H6  UNL     1      53.331  61.370  69.961  1.00  0.00     0.210 HD
ENDBRANCH   6  10
BRANCH   3  12
HETATM   12  O3  UNL     1      50.709  59.937  68.899  1.00  0.00    -0.369 OA
ATOM     13  H3  UNL     1      51.381  60.406  68.419  1.00  0.00     0.212 HD
ENDBRANCH   3  12
BRANCH   5  14
HETATM   14  O5  UNL     1      52.676  62.378  72.237  1.00  0.00    -0.390 OA
ATOM     15  H5  UNL     1      53.480  61.941  71.980  1.00  0.00     0.210 HD
ENDBRANCH   5  14
BRANCH   4  16
HETATM   16  O4  UNL     1      50.931  60.116  72.241  1.00  0.00    -0.388 OA
ATOM     17  H4  UNL     1      50.327  60.602  72.790  1.00  0.00     0.210 HD
ENDBRANCH   4  16
TORSDOF 6
ENDMDL
