MODEL 1
REMARK VINA RESULT: -4.273746921      0.000      0.000
REMARK  6 active torsions:
REMARK  status: ('A' for Active; 'I' for Inactive)
REMARK    1  A    between atoms: O1_1  and  C1_3 
REMARK    2  A    between atoms: C1_3  and  C2_4 
REMARK    3  A    between atoms: C3_6  and  O3_7 
REMARK    4  A    between atoms: C4_9  and  O4_10 
REMARK    5  A    between atoms: C5_12  and  O5_13 
REMARK    6  A    between atoms: C6_15  and  O6_16 
ROOT
HETATM    1  C2  UNL     1      50.552  55.858  68.311  1.00  0.00     0.179 C 
HETATM    2  O2  UNL     1      51.433  55.028  67.699  1.00  0.00    -0.349 OA
HETATM    3  C3  UNL     1      51.833  55.368  66.432  1.00  0.00     0.288 C 
HETATM    4  C4  UNL     1      52.364  56.758  66.294  1.00  0.00     0.204 C 
HETATM    5  C5  UNL     1      52.172  57.491  67.603  1.00  0.00     0.183 C 
HETATM    6  C6  UNL     1      50.694  57.316  67.924  1.00  0.00     0.180 C 
ENDROOT
BRANCH   1   7
HETATM    7  C1  UNL     1      49.111  55.399  68.219  1.00  0.00     0.198 C 
BRANCH   7   8
HETATM    8  O1  UNL     1      48.302  56.214  69.010  1.00  0.00    -0.398 OA
ATOM      9  H1  UNL     1      47.403  56.168  68.707  1.00  0.00     0.209 HD
ENDBRANCH   7   8
ENDBRANCH   1   7
BRANCH   6  10
HETATM   10  O6  UNL     1      49.964  57.493  66.748  1.00  0.00    -0.390 OA
ATOM     11  H6  UNL     1      50.577  57.795  66.088  1.00  0.00     0.210 HD
ENDBRANCH   6  10
BRANCH   3  12
HETATM   12  O3  UNL     1      50.801  55.104  65.502  1.00  0.00    -0.369 OA
ATOM     13  H3  UNL     1      51.167  54.804  64.678  1.00  0.00     0.212 HD
ENDBRANCH   3  12
BRANCH   5  14
HETATM   14  O5  UNL     1      52.538  58.819  67.541  1.00  0.00    -0.390 OA
ATOM     15  H5  UNL     1      52.453  59.270  68.372  1.00  0.00     0.210 HD
ENDBRANCH   5  14
BRANCH   4  16
HETATM   16  O4  UNL     1      53.663  56.820  65.836  1.00  0.00    -0.388 OA
ATOM     17  H4  UNL     1      53.788  57.411  65.102  1.00  0.00     0.210 HD
ENDBRANCH   4  16
TORSDOF 6
ENDMDL
