MODEL 3
REMARK VINA RESULT: -3.620256402      4.907      6.519
REMARK  6 active torsions:
REMARK  status: ('A' for Active; 'I' for Inactive)
REMARK    1  A    between atoms: O1_1  and  C1_3 
REMARK    2  A    between atoms: C1_3  and  C2_4 
REMARK    3  A    between atoms: C3_6  and  O3_7 
REMARK    4  A    between atoms: C4_9  and  O4_10 
REMARK    5  A    between atoms: C5_12  and  O5_13 
REMARK    6  A    between atoms: C6_15  and  O6_16 
ROOT
HETATM    1  C2  UNL     1      52.081  60.264  69.567  1.00  0.00     0.179 C 
HETATM    2  O2  UNL     1      52.726  59.967  70.724  1.00  0.00    -0.349 OA
HETATM    3  C3  UNL     1      52.224  60.518  71.876  1.00  0.00     0.288 C 
HETATM    4  C4  UNL     1      50.768  60.272  72.105  1.00  0.00     0.204 C 
HETATM    5  C5  UNL     1      50.186  59.587  70.888  1.00  0.00     0.183 C 
HETATM    6  C6  UNL     1      50.589  60.477  69.720  1.00  0.00     0.180 C 
ENDROOT
BRANCH   1   7
HETATM    7  C1  UNL     1      52.722  61.386  68.778  1.00  0.00     0.198 C 
BRANCH   7   8
HETATM    8  O1  UNL     1      51.925  61.709  67.681  1.00  0.00    -0.398 OA
ATOM      9  H1  UNL     1      52.133  62.585  67.377  1.00  0.00     0.209 HD
ENDBRANCH   7   8
ENDBRANCH   1   7
BRANCH   6  10
HETATM   10  O6  UNL     1      50.410  61.808  70.101  1.00  0.00    -0.390 OA
ATOM     11  H6  UNL     1      50.669  62.342  69.359  1.00  0.00     0.210 HD
ENDBRANCH   6  10
BRANCH   3  12
HETATM   12  O3  UNL     1      52.543  61.893  71.945  1.00  0.00    -0.369 OA
ATOM     13  H3  UNL     1      53.390  62.016  72.357  1.00  0.00     0.212 HD
ENDBRANCH   3  12
BRANCH   5  14
HETATM   14  O5  UNL     1      48.821  59.412  70.964  1.00  0.00    -0.390 OA
ATOM     15  H5  UNL     1      48.565  58.503  71.065  1.00  0.00     0.210 HD
ENDBRANCH   5  14
BRANCH   4  16
HETATM   16  O4  UNL     1      50.489  59.601  73.277  1.00  0.00    -0.388 OA
ATOM     17  H4  UNL     1      50.470  58.655  73.187  1.00  0.00     0.210 HD
ENDBRANCH   4  16
TORSDOF 6
ENDMDL
