MODEL 4
REMARK VINA RESULT: -3.587991157      4.758      5.475
REMARK  6 active torsions:
REMARK  status: ('A' for Active; 'I' for Inactive)
REMARK    1  A    between atoms: O1_1  and  C1_3 
REMARK    2  A    between atoms: C1_3  and  C2_4 
REMARK    3  A    between atoms: C3_6  and  O3_7 
REMARK    4  A    between atoms: C4_9  and  O4_10 
REMARK    5  A    between atoms: C5_12  and  O5_13 
REMARK    6  A    between atoms: C6_15  and  O6_16 
ROOT
HETATM    1  C2  UNL     1      51.105  61.101  71.124  1.00  0.00     0.179 C 
HETATM    2  O2  UNL     1      52.379  61.504  70.887  1.00  0.00    -0.349 OA
HETATM    3  C3  UNL     1      53.005  60.976  69.786  1.00  0.00     0.288 C 
HETATM    4  C4  UNL     1      52.249  61.122  68.505  1.00  0.00     0.204 C 
HETATM    5  C5  UNL     1      50.883  61.698  68.802  1.00  0.00     0.183 C 
HETATM    6  C6  UNL     1      50.308  60.782  69.875  1.00  0.00     0.180 C 
ENDROOT
BRANCH   1   7
HETATM    7  C1  UNL     1      50.993  59.992  72.149  1.00  0.00     0.198 C 
BRANCH   7   8
HETATM    8  O1  UNL     1      49.679  59.530  72.205  1.00  0.00    -0.398 OA
ATOM      9  H1  UNL     1      49.380  59.300  71.333  1.00  0.00     0.209 HD
ENDBRANCH   7   8
ENDBRANCH   1   7
BRANCH   6  10
HETATM   10  O6  UNL     1      50.606  59.463  69.532  1.00  0.00    -0.390 OA
ATOM     11  H6  UNL     1      50.021  58.910  70.036  1.00  0.00     0.210 HD
ENDBRANCH   6  10
BRANCH   3  12
HETATM   12  O3  UNL     1      53.379  59.634  70.028  1.00  0.00    -0.369 OA
ATOM     13  H3  UNL     1      54.232  59.455  69.651  1.00  0.00     0.212 HD
ENDBRANCH   3  12
BRANCH   5  14
HETATM   14  O5  UNL     1      50.071  61.772  67.690  1.00  0.00    -0.390 OA
ATOM     15  H5  UNL     1      49.844  62.663  67.451  1.00  0.00     0.210 HD
ENDBRANCH   5  14
BRANCH   4  16
HETATM   16  O4  UNL     1      52.924  61.828  67.532  1.00  0.00    -0.388 OA
ATOM     17  H4  UNL     1      53.457  61.288  66.960  1.00  0.00     0.210 HD
ENDBRANCH   4  16
TORSDOF 6
ENDMDL
