MODEL 2
REMARK VINA RESULT: -5.297938469      1.896      3.408
REMARK  12 active torsions:
REMARK  status: ('A' for Active; 'I' for Inactive)
REMARK    1  A    between atoms: O1_2  and  C2_3 
REMARK    2  A    between atoms: C3_5  and  C4_6 
REMARK    3  A    between atoms: C4_6  and  O3_7 
REMARK    4  A    between atoms: C5_9  and  O4_10 
REMARK    5  A    between atoms: C6_12  and  O5_13 
REMARK    6  A    between atoms: O5_13  and  C7_14 
REMARK    7  A    between atoms: C8_16  and  C9_17 
REMARK    8  A    between atoms: C9_17  and  O7_18 
REMARK    9  A    between atoms: C10_20  and  O8_21 
REMARK   10  A    between atoms: C11_23  and  O9_24 
REMARK   11  A    between atoms: C12_26  and  O10_27 
REMARK   12  A    between atoms: C13_29  and  N1_30 
REMARK       I    between atoms: N1_30  and  C14_32 
ROOT
HETATM    1  C2  UNL     1      36.736  37.801  25.392  1.00  0.00     0.284 C 
HETATM    2  O2  UNL     1      36.673  38.085  24.043  1.00  0.00    -0.349 OA
HETATM    3  C3  UNL     1      36.743  36.980  23.231  1.00  0.00     0.179 C 
HETATM    4  C5  UNL     1      36.780  35.671  23.936  1.00  0.00     0.180 C 
HETATM    5  C6  UNL     1      37.692  35.585  25.107  1.00  0.00     0.183 C 
HETATM    6  C13 UNL     1      37.979  36.983  25.660  1.00  0.00     0.171 C 
ENDROOT
BRANCH   5   7
HETATM    7  O5  UNL     1      37.334  34.851  26.147  1.00  0.00    -0.348 OA
BRANCH   7   8
HETATM    8  C7  UNL     1      36.867  33.625  26.120  1.00  0.00     0.292 C 
HETATM    9  O6  UNL     1      35.577  33.660  26.666  1.00  0.00    -0.348 OA
HETATM   10  C8  UNL     1      34.806  32.592  26.281  1.00  0.00     0.179 C 
HETATM   11  C10 UNL     1      35.534  31.335  26.006  1.00  0.00     0.180 C 
HETATM   12  C11 UNL     1      36.892  31.220  26.625  1.00  0.00     0.183 C 
HETATM   13  C12 UNL     1      37.569  32.544  26.869  1.00  0.00     0.204 C 
BRANCH  10  14
HETATM   14  C9  UNL     1      33.731  32.405  27.357  1.00  0.00     0.198 C 
BRANCH  14  15
HETATM   15  O7  UNL     1      32.464  32.371  26.795  1.00  0.00    -0.398 OA
ATOM     16  H7  UNL     1      31.957  33.134  27.050  1.00  0.00     0.209 HD
ENDBRANCH  14  15
ENDBRANCH  10  14
BRANCH  11  17
HETATM   17  O8  UNL     1      34.766  30.262  26.466  1.00  0.00    -0.390 OA
ATOM     18  H8  UNL     1      34.457  29.766  25.717  1.00  0.00     0.210 HD
ENDBRANCH  11  17
BRANCH  12  19
HETATM   19  O9  UNL     1      36.872  30.493  27.822  1.00  0.00    -0.390 OA
ATOM     20  H9  UNL     1      36.084  30.652  28.329  1.00  0.00     0.210 HD
ENDBRANCH  12  19
BRANCH  13  21
HETATM   21  O10 UNL     1      38.902  32.420  26.593  1.00  0.00    -0.388 OA
ATOM     22  H10 UNL     1      39.467  33.027  27.056  1.00  0.00     0.210 HD
ENDBRANCH  13  21
ENDBRANCH   7   8
ENDBRANCH   5   7
BRANCH   4  23
HETATM   23  O4  UNL     1      35.455  35.324  24.255  1.00  0.00    -0.390 OA
ATOM     24  H4  UNL     1      34.963  36.132  24.350  1.00  0.00     0.210 HD
ENDBRANCH   4  23
BRANCH   6  25
HETATM   25  N1  UNL     1      39.158  37.550  25.075  1.00  0.00    -0.349 N 
HETATM   26  C14 UNL     1      40.110  38.207  25.903  1.00  0.00     0.214 C 
HETATM   27  C15 UNL     1      41.344  38.818  25.403  1.00  0.00     0.117 C 
HETATM   28  O11 UNL     1      39.892  38.278  27.156  1.00  0.00    -0.274 OA
ATOM     29  H1  UNL     1      39.315  37.482  24.070  1.00  0.00     0.163 HD
ENDBRANCH   6  25
BRANCH   3  30
HETATM   30  C4  UNL     1      35.474  36.990  22.366  1.00  0.00     0.198 C 
BRANCH  30  31
HETATM   31  O3  UNL     1      35.363  35.847  21.605  1.00  0.00    -0.398 OA
ATOM     32  H3  UNL     1      34.485  35.736  21.259  1.00  0.00     0.209 HD
ENDBRANCH  30  31
ENDBRANCH   3  30
BRANCH   1  33
HETATM   33  O1  UNL     1      36.666  38.956  26.130  1.00  0.00    -0.364 OA
HETATM   34  C1  UNL     1      36.340  38.764  27.462  1.00  0.00     0.204 C 
ENDBRANCH   1  33
TORSDOF 12
ENDMDL
