MODEL 5
REMARK VINA RESULT: -5.151879096      1.803      4.097
REMARK  12 active torsions:
REMARK  status: ('A' for Active; 'I' for Inactive)
REMARK    1  A    between atoms: O1_2  and  C2_3 
REMARK    2  A    between atoms: C3_5  and  C4_6 
REMARK    3  A    between atoms: C4_6  and  O3_7 
REMARK    4  A    between atoms: C5_9  and  O4_10 
REMARK    5  A    between atoms: C6_12  and  O5_13 
REMARK    6  A    between atoms: O5_13  and  C7_14 
REMARK    7  A    between atoms: C8_16  and  C9_17 
REMARK    8  A    between atoms: C9_17  and  O7_18 
REMARK    9  A    between atoms: C10_20  and  O8_21 
REMARK   10  A    between atoms: C11_23  and  O9_24 
REMARK   11  A    between atoms: C12_26  and  O10_27 
REMARK   12  A    between atoms: C13_29  and  N1_30 
REMARK       I    between atoms: N1_30  and  C14_32 
ROOT
HETATM    1  C2  UNL     1      38.528  37.395  24.415  1.00  0.00     0.284 C 
HETATM    2  O2  UNL     1      37.764  38.542  24.493  1.00  0.00    -0.349 OA
HETATM    3  C3  UNL     1      36.665  38.432  25.309  1.00  0.00     0.179 C 
HETATM    4  C5  UNL     1      36.535  37.141  26.036  1.00  0.00     0.180 C 
HETATM    5  C6  UNL     1      36.785  35.914  25.236  1.00  0.00     0.183 C 
HETATM    6  C13 UNL     1      37.636  36.243  24.008  1.00  0.00     0.171 C 
ENDROOT
BRANCH   5   7
HETATM    7  O5  UNL     1      37.371  34.879  25.815  1.00  0.00    -0.348 OA
BRANCH   7   8
HETATM    8  C7  UNL     1      36.879  33.669  25.943  1.00  0.00     0.292 C 
HETATM    9  O6  UNL     1      35.599  33.797  26.500  1.00  0.00    -0.348 OA
HETATM   10  C8  UNL     1      34.801  32.708  26.258  1.00  0.00     0.179 C 
HETATM   11  C10 UNL     1      35.499  31.411  26.128  1.00  0.00     0.180 C 
HETATM   12  C11 UNL     1      36.864  31.342  26.736  1.00  0.00     0.183 C 
HETATM   13  C12 UNL     1      37.572  32.671  26.808  1.00  0.00     0.204 C 
BRANCH  10  14
HETATM   14  C9  UNL     1      33.741  32.677  27.365  1.00  0.00     0.198 C 
BRANCH  14  15
HETATM   15  O7  UNL     1      32.478  32.449  26.839  1.00  0.00    -0.398 OA
ATOM     16  H7  UNL     1      32.169  31.578  27.061  1.00  0.00     0.209 HD
ENDBRANCH  14  15
ENDBRANCH  10  14
BRANCH  11  17
HETATM   17  O8  UNL     1      34.717  30.420  26.726  1.00  0.00    -0.390 OA
ATOM     18  H8  UNL     1      34.469  30.710  27.595  1.00  0.00     0.210 HD
ENDBRANCH  11  17
BRANCH  12  19
HETATM   19  O9  UNL     1      36.850  30.766  28.013  1.00  0.00    -0.390 OA
ATOM     20  H9  UNL     1      37.306  31.299  28.655  1.00  0.00     0.210 HD
ENDBRANCH  12  19
BRANCH  13  21
HETATM   21  O10 UNL     1      38.898  32.485  26.530  1.00  0.00    -0.388 OA
ATOM     22  H10 UNL     1      39.178  32.801  25.679  1.00  0.00     0.210 HD
ENDBRANCH  13  21
ENDBRANCH   7   8
ENDBRANCH   5   7
BRANCH   4  23
HETATM   23  O4  UNL     1      37.349  37.217  27.181  1.00  0.00    -0.390 OA
ATOM     24  H4  UNL     1      36.785  37.412  27.920  1.00  0.00     0.210 HD
ENDBRANCH   4  23
BRANCH   6  25
HETATM   25  N1  UNL     1      36.822  36.543  22.867  1.00  0.00    -0.349 N 
HETATM   26  C14 UNL     1      37.174  36.018  21.593  1.00  0.00     0.214 C 
HETATM   27  C15 UNL     1      36.410  36.265  20.368  1.00  0.00     0.117 C 
HETATM   28  O11 UNL     1      38.213  35.288  21.493  1.00  0.00    -0.274 OA
ATOM     29  H1  UNL     1      35.994  37.129  22.968  1.00  0.00     0.163 HD
ENDBRANCH   6  25
BRANCH   3  30
HETATM   30  C4  UNL     1      36.794  39.536  26.369  1.00  0.00     0.198 C 
BRANCH  30  31
HETATM   31  O3  UNL     1      35.804  39.448  27.324  1.00  0.00    -0.398 OA
ATOM     32  H3  UNL     1      36.135  39.105  28.145  1.00  0.00     0.209 HD
ENDBRANCH  30  31
ENDBRANCH   3  30
BRANCH   1  33
HETATM   33  O1  UNL     1      39.598  37.586  23.579  1.00  0.00    -0.364 OA
HETATM   34  C1  UNL     1      39.607  38.812  22.934  1.00  0.00     0.204 C 
ENDBRANCH   1  33
TORSDOF 12
ENDMDL
