MODEL 1
REMARK VINA RESULT: -5.626686955      0.000      0.000
REMARK  12 active torsions:
REMARK  status: ('A' for Active; 'I' for Inactive)
REMARK    1  A    between atoms: O1_2  and  C2_3 
REMARK    2  A    between atoms: C3_5  and  C4_6 
REMARK    3  A    between atoms: C4_6  and  O3_7 
REMARK    4  A    between atoms: C5_9  and  O4_10 
REMARK    5  A    between atoms: C6_12  and  O5_13 
REMARK    6  A    between atoms: O5_13  and  C7_14 
REMARK    7  A    between atoms: C8_16  and  C9_17 
REMARK    8  A    between atoms: C9_17  and  O7_18 
REMARK    9  A    between atoms: C10_20  and  O8_21 
REMARK   10  A    between atoms: C11_23  and  O9_24 
REMARK   11  A    between atoms: C12_26  and  O10_27 
REMARK   12  A    between atoms: C13_29  and  N1_30 
REMARK       I    between atoms: N1_30  and  C14_32 
ROOT
HETATM    1  C2  UNL     1      36.463  37.375  23.750  1.00  0.00     0.284 C 
HETATM    2  O2  UNL     1      37.742  37.881  23.643  1.00  0.00    -0.349 OA
HETATM    3  C3  UNL     1      38.715  37.069  24.171  1.00  0.00     0.179 C 
HETATM    4  C5  UNL     1      38.243  35.752  24.678  1.00  0.00     0.180 C 
HETATM    5  C6  UNL     1      37.004  35.776  25.498  1.00  0.00     0.183 C 
HETATM    6  C13 UNL     1      36.192  37.038  25.199  1.00  0.00     0.171 C 
ENDROOT
BRANCH   5   7
HETATM    7  O5  UNL     1      36.153  34.768  25.404  1.00  0.00    -0.348 OA
BRANCH   7   8
HETATM    8  C7  UNL     1      36.161  33.664  26.115  1.00  0.00     0.292 C 
HETATM    9  O6  UNL     1      36.813  32.685  25.353  1.00  0.00    -0.348 OA
HETATM   10  C8  UNL     1      37.308  31.658  26.117  1.00  0.00     0.179 C 
HETATM   11  C10 UNL     1      36.558  31.353  27.354  1.00  0.00     0.180 C 
HETATM   12  C11 UNL     1      35.139  31.828  27.390  1.00  0.00     0.183 C 
HETATM   13  C12 UNL     1      34.873  33.033  26.525  1.00  0.00     0.204 C 
BRANCH  10  14
HETATM   14  C9  UNL     1      37.420  30.435  25.201  1.00  0.00     0.198 C 
BRANCH  14  15
HETATM   15  O7  UNL     1      37.806  30.804  23.922  1.00  0.00    -0.398 OA
ATOM     16  H7  UNL     1      37.493  30.179  23.277  1.00  0.00     0.209 HD
ENDBRANCH  14  15
ENDBRANCH  10  14
BRANCH  11  17
HETATM   17  O8  UNL     1      36.548  29.970  27.542  1.00  0.00    -0.390 OA
ATOM     18  H8  UNL     1      35.821  29.745  28.111  1.00  0.00     0.210 HD
ENDBRANCH  11  17
BRANCH  12  19
HETATM   19  O9  UNL     1      34.231  30.817  27.052  1.00  0.00    -0.390 OA
ATOM     20  H9  UNL     1      33.578  30.677  27.727  1.00  0.00     0.210 HD
ENDBRANCH  12  19
BRANCH  13  21
HETATM   21  O10 UNL     1      34.002  33.863  27.173  1.00  0.00    -0.388 OA
ATOM     22  H10 UNL     1      33.104  33.554  27.211  1.00  0.00     0.210 HD
ENDBRANCH  13  21
ENDBRANCH   7   8
ENDBRANCH   5   7
BRANCH   4  23
HETATM   23  O4  UNL     1      38.147  34.884  23.576  1.00  0.00    -0.390 OA
ATOM     24  H4  UNL     1      37.433  35.193  23.029  1.00  0.00     0.210 HD
ENDBRANCH   4  23
BRANCH   6  25
HETATM   25  N1  UNL     1      36.529  38.106  26.094  1.00  0.00    -0.349 N 
HETATM   26  C14 UNL     1      35.708  38.361  27.227  1.00  0.00     0.214 C 
HETATM   27  C15 UNL     1      35.965  39.427  28.199  1.00  0.00     0.117 C 
HETATM   28  O11 UNL     1      34.683  37.630  27.423  1.00  0.00    -0.274 OA
ATOM     29  H1  UNL     1      37.353  38.680  25.919  1.00  0.00     0.163 HD
ENDBRANCH   6  25
BRANCH   3  30
HETATM   30  C4  UNL     1      39.711  36.783  23.036  1.00  0.00     0.198 C 
BRANCH  30  31
HETATM   31  O3  UNL     1      39.171  37.061  21.799  1.00  0.00    -0.398 OA
ATOM     32  H3  UNL     1      39.691  36.691  21.096  1.00  0.00     0.209 HD
ENDBRANCH  30  31
ENDBRANCH   3  30
BRANCH   1  33
HETATM   33  O1  UNL     1      35.554  38.248  23.207  1.00  0.00    -0.364 OA
HETATM   34  C1  UNL     1      36.105  39.432  22.747  1.00  0.00     0.204 C 
ENDBRANCH   1  33
TORSDOF 12
ENDMDL
