MODEL 1
REMARK VINA RESULT: -5.404544343      0.000      0.000
REMARK  0 active torsions:
REMARK  status: ('A' for Active; 'I' for Inactive)
ROOT
HETATM    1  O1  UNL     1      21.970   7.630  13.382  1.00  0.00    -0.268 OA
HETATM    2  C1  UNL     1      22.377   8.360  12.434  1.00  0.00     0.250 A 
HETATM    3  C2  UNL     1      23.197   9.404  12.758  1.00  0.00     0.091 A 
HETATM    4  C3  UNL     1      23.648  10.212  11.730  1.00  0.00     0.098 A 
HETATM    5  N1  UNL     1      23.262   9.936  10.471  1.00  0.00    -0.319 N 
ATOM      6  H1  UNL     1      23.594  10.531   9.711  1.00  0.00     0.170 HD
HETATM    7  C4  UNL     1      22.445   8.891  10.178  1.00  0.00     0.326 A 
HETATM    8  O2  UNL     1      22.098   8.653   8.990  1.00  0.00    -0.247 OA
HETATM    9  N2  UNL     1      21.991   8.089  11.154  1.00  0.00    -0.276 N 
ATOM     10  H2  UNL     1      21.378   7.301  10.945  1.00  0.00     0.173 HD
ENDROOT
TORSDOF 0
ENDMDL
