MODEL 8
REMARK VINA RESULT: -4.486409951      3.917      4.816
REMARK  0 active torsions:
REMARK  status: ('A' for Active; 'I' for Inactive)
ROOT
HETATM    1  O1  UNL     1      24.446   9.587  12.100  1.00  0.00    -0.268 OA
HETATM    2  C1  UNL     1      24.956  10.737  11.982  1.00  0.00     0.250 A 
HETATM    3  C2  UNL     1      25.342  11.124  10.729  1.00  0.00     0.091 A 
HETATM    4  C3  UNL     1      25.902  12.381  10.587  1.00  0.00     0.098 A 
HETATM    5  N1  UNL     1      26.040  13.157  11.678  1.00  0.00    -0.319 N 
ATOM      6  H1  UNL     1      26.454  14.084  11.575  1.00  0.00     0.170 HD
HETATM    7  C4  UNL     1      25.648  12.746  12.911  1.00  0.00     0.326 A 
HETATM    8  O2  UNL     1      25.787  13.491  13.918  1.00  0.00    -0.247 OA
HETATM    9  N2  UNL     1      25.100  11.532  13.081  1.00  0.00    -0.276 N 
ATOM     10  H2  UNL     1      24.801  11.214  14.003  1.00  0.00     0.173 HD
ENDROOT
TORSDOF 0
ENDMDL
