MODEL 7
REMARK VINA RESULT: -4.507477850      5.373      6.254
REMARK  0 active torsions:
REMARK  status: ('A' for Active; 'I' for Inactive)
ROOT
HETATM    1  O1  UNL     1      28.690  11.830  14.876  1.00  0.00    -0.268 OA
HETATM    2  C1  UNL     1      27.755  12.163  14.095  1.00  0.00     0.250 A 
HETATM    3  C2  UNL     1      28.095  12.460  12.805  1.00  0.00     0.091 A 
HETATM    4  C3  UNL     1      27.080  12.827  11.939  1.00  0.00     0.098 A 
HETATM    5  N1  UNL     1      25.818  12.876  12.403  1.00  0.00    -0.319 N 
ATOM      6  H1  UNL     1      25.068  13.147  11.766  1.00  0.00     0.170 HD
HETATM    7  C4  UNL     1      25.509  12.576  13.691  1.00  0.00     0.326 A 
HETATM    8  O2  UNL     1      24.319  12.629  14.102  1.00  0.00    -0.247 OA
HETATM    9  N2  UNL     1      26.472  12.216  14.555  1.00  0.00    -0.276 N 
ATOM     10  H2  UNL     1      26.250  11.988  15.524  1.00  0.00     0.173 HD
ENDROOT
TORSDOF 0
ENDMDL
