MODEL 5
REMARK VINA RESULT: -4.744383218      4.637      5.219
REMARK  0 active torsions:
REMARK  status: ('A' for Active; 'I' for Inactive)
ROOT
HETATM    1  O1  UNL     1      23.886  10.001   7.351  1.00  0.00    -0.268 OA
HETATM    2  C1  UNL     1      25.001   9.655   7.835  1.00  0.00     0.250 A 
HETATM    3  C2  UNL     1      25.515  10.432   8.835  1.00  0.00     0.091 A 
HETATM    4  C3  UNL     1      26.735  10.065   9.374  1.00  0.00     0.098 A 
HETATM    5  N1  UNL     1      27.353   8.970   8.894  1.00  0.00    -0.319 N 
ATOM      6  H1  UNL     1      28.253   8.698   9.290  1.00  0.00     0.170 HD
HETATM    7  C4  UNL     1      26.818   8.217   7.898  1.00  0.00     0.326 A 
HETATM    8  O2  UNL     1      27.417   7.195   7.466  1.00  0.00    -0.247 OA
HETATM    9  N2  UNL     1      25.636   8.547   7.356  1.00  0.00    -0.276 N 
ATOM     10  H2  UNL     1      25.225   7.987   6.608  1.00  0.00     0.173 HD
ENDROOT
TORSDOF 0
ENDMDL
