MODEL 2
REMARK VINA RESULT: -9.492383886      0.820      1.346
REMARK  11 active torsions:
REMARK  status: ('A' for Active; 'I' for Inactive)
REMARK    1  A    between atoms: C1_2  and  C2_4 
REMARK    2  A    between atoms: N2_6  and  C4_7 
REMARK    3  A    between atoms: C4_7  and  C5_8 
REMARK    4  A    between atoms: C4_7  and  C6_11 
REMARK    5  A    between atoms: C5_8  and  O2_9 
REMARK    6  A    between atoms: C6_11  and  C7_12 
REMARK    7  A    between atoms: C7_12  and  N3_13 
REMARK    8  A    between atoms: C13_19  and  N4_20 
REMARK       I    between atoms: N4_20  and  C14_22 
REMARK    9  A    between atoms: C14_22  and  C15_24 
REMARK   10  A    between atoms: C15_24  and  C16_25 
REMARK   11  A    between atoms: C16_25  and  C17_26 
ROOT
HETATM    1  N3  UNL     1      49.050  57.098  18.849  1.00  0.00    -0.356 N 
HETATM    2  C8  UNL     1      48.677  58.199  18.184  1.00  0.00     0.092 A 
HETATM    3  C9  UNL     1      48.122  57.883  16.975  1.00  0.00     0.031 A 
HETATM    4  C10 UNL     1      48.150  56.507  16.879  1.00  0.00    -0.008 A 
HETATM    5  C11 UNL     1      47.751  55.589  15.933  1.00  0.00     0.016 A 
HETATM    6  C12 UNL     1      47.936  54.219  16.172  1.00  0.00     0.030 A 
HETATM    7  C13 UNL     1      48.500  53.725  17.311  1.00  0.00     0.036 A 
HETATM    8  C23 UNL     1      48.891  54.698  18.246  1.00  0.00     0.060 A 
HETATM    9  C24 UNL     1      48.723  56.043  18.041  1.00  0.00     0.046 A 
ENDROOT
BRANCH   1  10
HETATM   10  C7  UNL     1      49.671  57.008  20.157  1.00  0.00     0.131 C 
BRANCH  10  11
HETATM   11  C6  UNL     1      51.142  57.166  19.993  1.00  0.00     0.048 C 
BRANCH  11  12
HETATM   12  C4  UNL     1      51.937  56.851  21.223  1.00  0.00     0.115 C 
BRANCH  12  13
HETATM   13  N2  UNL     1      51.876  55.412  21.494  1.00  0.00    -0.344 N 
HETATM   14  C3  UNL     1      52.117  54.414  20.626  1.00  0.00     0.127 A 
HETATM   15  C2  UNL     1      51.962  53.178  21.236  1.00  0.00     0.114 A 
HETATM   16  N5  UNL     1      51.615  53.473  22.520  1.00  0.00    -0.347 N 
HETATM   17  C25 UNL     1      51.567  54.808  22.661  1.00  0.00     0.183 A 
ATOM     18  H5  UNL     1      51.424  52.792  23.255  1.00  0.00     0.167 HD
BRANCH  15  19
HETATM   19  C1  UNL     1      52.129  51.859  20.655  1.00  0.00     0.282 C 
HETATM   20  N1  UNL     1      53.325  51.504  19.993  1.00  0.00    -0.056 NA
HETATM   21  O1  UNL     1      51.204  51.026  20.742  1.00  0.00    -0.269 OA
ENDBRANCH  15  19
ENDBRANCH  12  13
BRANCH  12  22
HETATM   22  C5  UNL     1      53.350  57.307  21.184  1.00  0.00     0.189 C 
BRANCH  22  23
HETATM   23  O2  UNL     1      53.944  57.431  22.425  1.00  0.00    -0.399 OA
ATOM     24  H2  UNL     1      54.682  56.850  22.566  1.00  0.00     0.209 HD
ENDBRANCH  22  23
ENDBRANCH  12  22
ENDBRANCH  11  12
ENDBRANCH  10  11
ENDBRANCH   1  10
BRANCH   7  25
HETATM   25  N4  UNL     1      48.725  52.384  17.655  1.00  0.00    -0.327 N 
HETATM   26  C14 UNL     1      49.653  51.501  17.047  1.00  0.00     0.222 C 
HETATM   27  O3  UNL     1      50.351  51.927  16.111  1.00  0.00    -0.273 OA
ATOM     28  H4  UNL     1      48.166  52.006  18.421  1.00  0.00     0.169 HD
BRANCH  26  29
HETATM   29  C15 UNL     1      49.795  50.098  17.511  1.00  0.00     0.108 C 
BRANCH  29  30
HETATM   30  C16 UNL     1      48.877  49.691  18.591  1.00  0.00     0.047 C 
BRANCH  30  31
HETATM   31  C17 UNL     1      47.574  49.131  18.181  1.00  0.00    -0.058 A 
HETATM   32  C18 UNL     1      47.088  49.063  16.917  1.00  0.00     0.007 A 
HETATM   33  C19 UNL     1      45.866  48.492  16.609  1.00  0.00     0.001 A 
HETATM   34  C20 UNL     1      45.120  47.976  17.645  1.00  0.00     0.000 A 
HETATM   35  C21 UNL     1      45.569  48.022  18.944  1.00  0.00     0.001 A 
HETATM   36  C22 UNL     1      46.773  48.590  19.198  1.00  0.00     0.007 A 
ENDBRANCH  30  31
ENDBRANCH  29  30
ENDBRANCH  26  29
ENDBRANCH   7  25
TORSDOF 11
ENDMDL
