MODEL 6
REMARK VINA RESULT: -8.533363243      3.345      8.953
REMARK  11 active torsions:
REMARK  status: ('A' for Active; 'I' for Inactive)
REMARK    1  A    between atoms: C1_2  and  C2_4 
REMARK    2  A    between atoms: N2_6  and  C4_7 
REMARK    3  A    between atoms: C4_7  and  C5_8 
REMARK    4  A    between atoms: C4_7  and  C6_11 
REMARK    5  A    between atoms: C5_8  and  O2_9 
REMARK    6  A    between atoms: C6_11  and  C7_12 
REMARK    7  A    between atoms: C7_12  and  N3_13 
REMARK    8  A    between atoms: C13_19  and  N4_20 
REMARK       I    between atoms: N4_20  and  C14_22 
REMARK    9  A    between atoms: C14_22  and  C15_24 
REMARK   10  A    between atoms: C15_24  and  C16_25 
REMARK   11  A    between atoms: C16_25  and  C17_26 
ROOT
HETATM    1  N3  UNL     1      50.643  52.655  19.571  1.00  0.00    -0.356 N 
HETATM    2  C8  UNL     1      51.198  51.871  20.505  1.00  0.00     0.092 A 
HETATM    3  C9  UNL     1      51.595  52.601  21.592  1.00  0.00     0.031 A 
HETATM    4  C10 UNL     1      51.271  53.914  21.321  1.00  0.00    -0.008 A 
HETATM    5  C11 UNL     1      51.404  55.108  21.994  1.00  0.00     0.016 A 
HETATM    6  C12 UNL     1      50.948  56.295  21.402  1.00  0.00     0.030 A 
HETATM    7  C13 UNL     1      50.365  56.344  20.171  1.00  0.00     0.036 A 
HETATM    8  C23 UNL     1      50.250  55.103  19.523  1.00  0.00     0.060 A 
HETATM    9  C24 UNL     1      50.686  53.927  20.075  1.00  0.00     0.046 A 
ENDROOT
BRANCH   1  10
HETATM   10  C7  UNL     1      50.099  52.267  18.284  1.00  0.00     0.131 C 
BRANCH  10  11
HETATM   11  C6  UNL     1      49.596  50.871  18.385  1.00  0.00     0.048 C 
BRANCH  11  12
HETATM   12  C4  UNL     1      49.772  50.060  17.137  1.00  0.00     0.115 C 
BRANCH  12  13
HETATM   13  N2  UNL     1      48.673  49.099  17.016  1.00  0.00    -0.344 N 
HETATM   14  C3  UNL     1      47.400  49.270  17.412  1.00  0.00     0.127 A 
HETATM   15  C2  UNL     1      46.639  48.144  17.136  1.00  0.00     0.114 A 
HETATM   16  N5  UNL     1      47.513  47.277  16.550  1.00  0.00    -0.347 N 
HETATM   17  C25 UNL     1      48.722  47.858  16.485  1.00  0.00     0.183 A 
ATOM     18  H5  UNL     1      47.286  46.341  16.216  1.00  0.00     0.167 HD
BRANCH  15  19
HETATM   19  C1  UNL     1      45.230  47.921  17.402  1.00  0.00     0.282 C 
HETATM   20  N1  UNL     1      44.374  47.416  16.399  1.00  0.00    -0.056 NA
HETATM   21  O1  UNL     1      44.768  48.178  18.533  1.00  0.00    -0.269 OA
ENDBRANCH  15  19
ENDBRANCH  12  13
BRANCH  12  22
HETATM   22  C5  UNL     1      49.898  50.858  15.890  1.00  0.00     0.189 C 
BRANCH  22  23
HETATM   23  O2  UNL     1      51.124  50.746  15.263  1.00  0.00    -0.399 OA
ATOM     24  H2  UNL     1      51.696  51.494  15.386  1.00  0.00     0.209 HD
ENDBRANCH  22  23
ENDBRANCH  12  22
ENDBRANCH  11  12
ENDBRANCH  10  11
ENDBRANCH   1  10
BRANCH   7  25
HETATM   25  N4  UNL     1      49.869  57.466  19.490  1.00  0.00    -0.327 N 
HETATM   26  C14 UNL     1      48.693  58.193  19.804  1.00  0.00     0.222 C 
HETATM   27  O3  UNL     1      48.010  57.824  20.776  1.00  0.00    -0.273 OA
ATOM     28  H4  UNL     1      50.409  57.792  18.687  1.00  0.00     0.169 HD
BRANCH  26  29
HETATM   29  C15 UNL     1      48.280  59.370  19.000  1.00  0.00     0.108 C 
BRANCH  29  30
HETATM   30  C16 UNL     1      46.850  59.423  18.644  1.00  0.00     0.047 C 
BRANCH  30  31
HETATM   31  C17 UNL     1      46.186  60.737  18.745  1.00  0.00    -0.058 A 
HETATM   32  C18 UNL     1      44.872  60.995  18.535  1.00  0.00     0.007 A 
HETATM   33  C19 UNL     1      44.318  62.254  18.680  1.00  0.00     0.001 A 
HETATM   34  C20 UNL     1      45.153  63.283  19.054  1.00  0.00     0.000 A 
HETATM   35  C21 UNL     1      46.493  63.073  19.278  1.00  0.00     0.001 A 
HETATM   36  C22 UNL     1      46.992  61.822  19.124  1.00  0.00     0.007 A 
ENDBRANCH  30  31
ENDBRANCH  29  30
ENDBRANCH  26  29
ENDBRANCH   7  25
TORSDOF 11
ENDMDL
