MODEL 5
REMARK VINA RESULT: -8.541046371      2.806      8.565
REMARK  11 active torsions:
REMARK  status: ('A' for Active; 'I' for Inactive)
REMARK    1  A    between atoms: C1_2  and  C2_4 
REMARK    2  A    between atoms: N2_6  and  C4_7 
REMARK    3  A    between atoms: C4_7  and  C5_8 
REMARK    4  A    between atoms: C4_7  and  C6_11 
REMARK    5  A    between atoms: C5_8  and  O2_9 
REMARK    6  A    between atoms: C6_11  and  C7_12 
REMARK    7  A    between atoms: C7_12  and  N3_13 
REMARK    8  A    between atoms: C13_19  and  N4_20 
REMARK       I    between atoms: N4_20  and  C14_22 
REMARK    9  A    between atoms: C14_22  and  C15_24 
REMARK   10  A    between atoms: C15_24  and  C16_25 
REMARK   11  A    between atoms: C16_25  and  C17_26 
ROOT
HETATM    1  N3  UNL     1      49.572  50.749  18.519  1.00  0.00    -0.356 N 
HETATM    2  C8  UNL     1      49.543  49.443  18.817  1.00  0.00     0.092 A 
HETATM    3  C9  UNL     1      50.334  49.164  19.898  1.00  0.00     0.031 A 
HETATM    4  C10 UNL     1      50.887  50.364  20.297  1.00  0.00    -0.008 A 
HETATM    5  C11 UNL     1      51.749  50.751  21.298  1.00  0.00     0.016 A 
HETATM    6  C12 UNL     1      52.113  52.100  21.418  1.00  0.00     0.030 A 
HETATM    7  C13 UNL     1      51.656  53.079  20.586  1.00  0.00     0.036 A 
HETATM    8  C23 UNL     1      50.781  52.636  19.581  1.00  0.00     0.060 A 
HETATM    9  C24 UNL     1      50.407  51.326  19.438  1.00  0.00     0.046 A 
ENDROOT
BRANCH   1  10
HETATM   10  C7  UNL     1      48.873  51.441  17.453  1.00  0.00     0.131 C 
BRANCH  10  11
HETATM   11  C6  UNL     1      49.717  51.396  16.228  1.00  0.00     0.048 C 
BRANCH  11  12
HETATM   12  C4  UNL     1      49.783  50.050  15.573  1.00  0.00     0.115 C 
BRANCH  12  13
HETATM   13  N2  UNL     1      48.441  49.642  15.151  1.00  0.00    -0.344 N 
HETATM   14  C3  UNL     1      47.700  48.643  15.662  1.00  0.00     0.127 A 
HETATM   15  C2  UNL     1      46.479  48.548  15.011  1.00  0.00     0.114 A 
HETATM   16  N5  UNL     1      46.513  49.540  14.077  1.00  0.00    -0.347 N 
HETATM   17  C25 UNL     1      47.688  50.184  14.170  1.00  0.00     0.183 A 
ATOM     18  H5  UNL     1      45.768  49.757  13.415  1.00  0.00     0.167 HD
BRANCH  15  19
HETATM   19  C1  UNL     1      45.398  47.612  15.256  1.00  0.00     0.282 C 
HETATM   20  N1  UNL     1      45.199  46.497  14.412  1.00  0.00    -0.056 NA
HETATM   21  O1  UNL     1      44.633  47.793  16.225  1.00  0.00    -0.269 OA
ENDBRANCH  15  19
ENDBRANCH  12  13
BRANCH  12  22
HETATM   22  C5  UNL     1      50.732  49.959  14.434  1.00  0.00     0.189 C 
BRANCH  22  23
HETATM   23  O2  UNL     1      51.813  50.814  14.522  1.00  0.00    -0.399 OA
ATOM     24  H2  UNL     1      51.990  51.307  13.729  1.00  0.00     0.209 HD
ENDBRANCH  22  23
ENDBRANCH  12  22
ENDBRANCH  11  12
ENDBRANCH  10  11
ENDBRANCH   1  10
BRANCH   7  25
HETATM   25  N4  UNL     1      51.947  54.451  20.618  1.00  0.00    -0.327 N 
HETATM   26  C14 UNL     1      52.050  55.265  21.774  1.00  0.00     0.222 C 
HETATM   27  O3  UNL     1      51.868  54.741  22.887  1.00  0.00    -0.273 OA
ATOM     28  H4  UNL     1      52.101  54.909  19.719  1.00  0.00     0.169 HD
BRANCH  26  29
HETATM   29  C15 UNL     1      52.367  56.711  21.669  1.00  0.00     0.108 C 
BRANCH  29  30
HETATM   30  C16 UNL     1      51.895  57.376  20.440  1.00  0.00     0.047 C 
BRANCH  30  31
HETATM   31  C17 UNL     1      50.467  57.746  20.391  1.00  0.00    -0.058 A 
HETATM   32  C18 UNL     1      49.670  57.740  19.294  1.00  0.00     0.007 A 
HETATM   33  C19 UNL     1      48.328  58.072  19.334  1.00  0.00     0.001 A 
HETATM   34  C20 UNL     1      47.790  58.423  20.552  1.00  0.00     0.000 A 
HETATM   35  C21 UNL     1      48.557  58.445  21.694  1.00  0.00     0.001 A 
HETATM   36  C22 UNL     1      49.868  58.112  21.606  1.00  0.00     0.007 A 
ENDBRANCH  30  31
ENDBRANCH  29  30
ENDBRANCH  26  29
ENDBRANCH   7  25
TORSDOF 11
ENDMDL
