MODEL 4
REMARK VINA RESULT: -8.627553230      2.359      5.297
REMARK  11 active torsions:
REMARK  status: ('A' for Active; 'I' for Inactive)
REMARK    1  A    between atoms: C1_2  and  C2_4 
REMARK    2  A    between atoms: N2_6  and  C4_7 
REMARK    3  A    between atoms: C4_7  and  C5_8 
REMARK    4  A    between atoms: C4_7  and  C6_11 
REMARK    5  A    between atoms: C5_8  and  O2_9 
REMARK    6  A    between atoms: C6_11  and  C7_12 
REMARK    7  A    between atoms: C7_12  and  N3_13 
REMARK    8  A    between atoms: C13_19  and  N4_20 
REMARK       I    between atoms: N4_20  and  C14_22 
REMARK    9  A    between atoms: C14_22  and  C15_24 
REMARK   10  A    between atoms: C15_24  and  C16_25 
REMARK   11  A    between atoms: C16_25  and  C17_26 
ROOT
HETATM    1  N3  UNL     1      50.790  53.340  19.874  1.00  0.00    -0.356 N 
HETATM    2  C8  UNL     1      51.423  53.692  21.002  1.00  0.00     0.092 A 
HETATM    3  C9  UNL     1      51.796  52.592  21.725  1.00  0.00     0.031 A 
HETATM    4  C10 UNL     1      51.371  51.491  21.009  1.00  0.00    -0.008 A 
HETATM    5  C11 UNL     1      51.438  50.128  21.191  1.00  0.00     0.016 A 
HETATM    6  C12 UNL     1      50.884  49.271  20.229  1.00  0.00     0.030 A 
HETATM    7  C13 UNL     1      50.268  49.712  19.096  1.00  0.00     0.036 A 
HETATM    8  C23 UNL     1      50.225  51.108  18.953  1.00  0.00     0.060 A 
HETATM    9  C24 UNL     1      50.756  51.972  19.875  1.00  0.00     0.046 A 
ENDROOT
BRANCH   1  10
HETATM   10  C7  UNL     1      50.245  54.204  18.845  1.00  0.00     0.131 C 
BRANCH  10  11
HETATM   11  C6  UNL     1      49.051  54.900  19.397  1.00  0.00     0.048 C 
BRANCH  11  12
HETATM   12  C4  UNL     1      49.102  56.393  19.288  1.00  0.00     0.115 C 
BRANCH  12  13
HETATM   13  N2  UNL     1      50.123  56.918  20.198  1.00  0.00    -0.344 N 
HETATM   14  C3  UNL     1      51.426  57.114  19.927  1.00  0.00     0.127 A 
HETATM   15  C2  UNL     1      52.090  57.626  21.031  1.00  0.00     0.114 A 
HETATM   16  N5  UNL     1      51.127  57.733  21.989  1.00  0.00    -0.347 N 
HETATM   17  C25 UNL     1      49.959  57.308  21.480  1.00  0.00     0.183 A 
ATOM     18  H5  UNL     1      51.269  58.080  22.938  1.00  0.00     0.167 HD
BRANCH  15  19
HETATM   19  C1  UNL     1      53.493  57.975  21.157  1.00  0.00     0.282 C 
HETATM   20  N1  UNL     1      54.501  57.108  20.681  1.00  0.00    -0.056 NA
HETATM   21  O1  UNL     1      53.814  59.056  21.692  1.00  0.00    -0.269 OA
ENDBRANCH  15  19
ENDBRANCH  12  13
BRANCH  12  22
HETATM   22  C5  UNL     1      49.323  56.909  17.912  1.00  0.00     0.189 C 
BRANCH  22  23
HETATM   23  O2  UNL     1      48.349  56.545  17.003  1.00  0.00    -0.399 OA
ATOM     24  H2  UNL     1      48.160  57.205  16.346  1.00  0.00     0.209 HD
ENDBRANCH  22  23
ENDBRANCH  12  22
ENDBRANCH  11  12
ENDBRANCH  10  11
ENDBRANCH   1  10
BRANCH   7  25
HETATM   25  N4  UNL     1      49.690  48.948  18.070  1.00  0.00    -0.327 N 
HETATM   26  C14 UNL     1      48.328  48.568  17.967  1.00  0.00     0.222 C 
HETATM   27  O3  UNL     1      47.542  48.930  18.860  1.00  0.00    -0.273 OA
ATOM     28  H4  UNL     1      50.311  48.636  17.324  1.00  0.00     0.169 HD
BRANCH  26  29
HETATM   29  C15 UNL     1      47.842  47.757  16.823  1.00  0.00     0.108 C 
BRANCH  29  30
HETATM   30  C16 UNL     1      46.447  48.007  16.416  1.00  0.00     0.047 C 
BRANCH  30  31
HETATM   31  C17 UNL     1      46.228  48.447  15.025  1.00  0.00    -0.058 A 
HETATM   32  C18 UNL     1      45.217  48.061  14.207  1.00  0.00     0.007 A 
HETATM   33  C19 UNL     1      45.062  48.545  12.921  1.00  0.00     0.001 A 
HETATM   34  C20 UNL     1      45.985  49.458  12.462  1.00  0.00     0.000 A 
HETATM   35  C21 UNL     1      47.029  49.879  13.253  1.00  0.00     0.001 A 
HETATM   36  C22 UNL     1      47.140  49.379  14.507  1.00  0.00     0.007 A 
ENDBRANCH  30  31
ENDBRANCH  29  30
ENDBRANCH  26  29
ENDBRANCH   7  25
TORSDOF 11
ENDMDL
