MODEL 3
REMARK VINA RESULT: -9.337188493      0.913      1.032
REMARK  11 active torsions:
REMARK  status: ('A' for Active; 'I' for Inactive)
REMARK    1  A    between atoms: C1_2  and  C2_4 
REMARK    2  A    between atoms: N2_6  and  C4_7 
REMARK    3  A    between atoms: C4_7  and  C5_8 
REMARK    4  A    between atoms: C4_7  and  C6_11 
REMARK    5  A    between atoms: C5_8  and  O2_9 
REMARK    6  A    between atoms: C6_11  and  C7_12 
REMARK    7  A    between atoms: C7_12  and  N3_13 
REMARK    8  A    between atoms: C13_19  and  N4_20 
REMARK       I    between atoms: N4_20  and  C14_22 
REMARK    9  A    between atoms: C14_22  and  C15_24 
REMARK   10  A    between atoms: C15_24  and  C16_25 
REMARK   11  A    between atoms: C16_25  and  C17_26 
ROOT
HETATM    1  N3  UNL     1      48.924  57.562  18.874  1.00  0.00    -0.356 N 
HETATM    2  C8  UNL     1      48.528  58.606  18.133  1.00  0.00     0.092 A 
HETATM    3  C9  UNL     1      48.038  58.198  16.923  1.00  0.00     0.031 A 
HETATM    4  C10 UNL     1      48.134  56.822  16.907  1.00  0.00    -0.008 A 
HETATM    5  C11 UNL     1      47.817  55.836  15.999  1.00  0.00     0.016 A 
HETATM    6  C12 UNL     1      48.056  54.492  16.322  1.00  0.00     0.030 A 
HETATM    7  C13 UNL     1      48.595  54.088  17.507  1.00  0.00     0.036 A 
HETATM    8  C23 UNL     1      48.902  55.128  18.400  1.00  0.00     0.060 A 
HETATM    9  C24 UNL     1      48.680  56.450  18.114  1.00  0.00     0.046 A 
ENDROOT
BRANCH   1  10
HETATM   10  C7  UNL     1      49.495  57.574  20.207  1.00  0.00     0.131 C 
BRANCH  10  11
HETATM   11  C6  UNL     1      50.967  57.755  20.090  1.00  0.00     0.048 C 
BRANCH  11  12
HETATM   12  C4  UNL     1      51.762  57.042  21.140  1.00  0.00     0.115 C 
BRANCH  12  13
HETATM   13  N2  UNL     1      51.808  55.610  20.835  1.00  0.00    -0.344 N 
HETATM   14  C3  UNL     1      52.586  55.001  19.922  1.00  0.00     0.127 A 
HETATM   15  C2  UNL     1      52.359  53.633  19.911  1.00  0.00     0.114 A 
HETATM   16  N5  UNL     1      51.405  53.438  20.864  1.00  0.00    -0.347 N 
HETATM   17  C25 UNL     1      51.085  54.624  21.408  1.00  0.00     0.183 A 
ATOM     18  H5  UNL     1      51.000  52.538  21.123  1.00  0.00     0.167 HD
BRANCH  15  19
HETATM   19  C1  UNL     1      52.987  52.622  19.080  1.00  0.00     0.282 C 
HETATM   20  N1  UNL     1      53.421  51.397  19.632  1.00  0.00    -0.056 NA
HETATM   21  O1  UNL     1      53.145  52.838  17.861  1.00  0.00    -0.269 OA
ENDBRANCH  15  19
ENDBRANCH  12  13
BRANCH  12  22
HETATM   22  C5  UNL     1      53.136  57.569  21.346  1.00  0.00     0.189 C 
BRANCH  22  23
HETATM   23  O2  UNL     1      53.740  57.146  22.513  1.00  0.00    -0.399 OA
ATOM     24  H2  UNL     1      53.717  57.781  23.219  1.00  0.00     0.209 HD
ENDBRANCH  22  23
ENDBRANCH  12  22
ENDBRANCH  11  12
ENDBRANCH  10  11
ENDBRANCH   1  10
BRANCH   7  25
HETATM   25  N4  UNL     1      48.869  52.780  17.935  1.00  0.00    -0.327 N 
HETATM   26  C14 UNL     1      49.758  51.861  17.324  1.00  0.00     0.222 C 
HETATM   27  O3  UNL     1      50.373  52.219  16.303  1.00  0.00    -0.273 OA
ATOM     28  H4  UNL     1      48.378  52.458  18.770  1.00  0.00     0.169 HD
BRANCH  26  29
HETATM   29  C15 UNL     1      49.960  50.501  17.882  1.00  0.00     0.108 C 
BRANCH  29  30
HETATM   30  C16 UNL     1      49.326  49.405  17.124  1.00  0.00     0.047 C 
BRANCH  30  31
HETATM   31  C17 UNL     1      47.975  48.995  17.552  1.00  0.00    -0.058 A 
HETATM   32  C18 UNL     1      47.558  48.796  18.827  1.00  0.00     0.007 A 
HETATM   33  C19 UNL     1      46.261  48.441  19.150  1.00  0.00     0.001 A 
HETATM   34  C20 UNL     1      45.363  48.283  18.118  1.00  0.00     0.000 A 
HETATM   35  C21 UNL     1      45.737  48.472  16.807  1.00  0.00     0.001 A 
HETATM   36  C22 UNL     1      47.019  48.820  16.539  1.00  0.00     0.007 A 
ENDBRANCH  30  31
ENDBRANCH  29  30
ENDBRANCH  26  29
ENDBRANCH   7  25
TORSDOF 11
ENDMDL
