MODEL 1
REMARK VINA RESULT: -9.503452377      0.000      0.000
REMARK  11 active torsions:
REMARK  status: ('A' for Active; 'I' for Inactive)
REMARK    1  A    between atoms: C1_2  and  C2_4 
REMARK    2  A    between atoms: N2_6  and  C4_7 
REMARK    3  A    between atoms: C4_7  and  C5_8 
REMARK    4  A    between atoms: C4_7  and  C6_11 
REMARK    5  A    between atoms: C5_8  and  O2_9 
REMARK    6  A    between atoms: C6_11  and  C7_12 
REMARK    7  A    between atoms: C7_12  and  N3_13 
REMARK    8  A    between atoms: C13_19  and  N4_20 
REMARK       I    between atoms: N4_20  and  C14_22 
REMARK    9  A    between atoms: C14_22  and  C15_24 
REMARK   10  A    between atoms: C15_24  and  C16_25 
REMARK   11  A    between atoms: C16_25  and  C17_26 
ROOT
HETATM    1  N3  UNL     1      48.890  57.362  18.994  1.00  0.00    -0.356 N 
HETATM    2  C8  UNL     1      48.513  58.477  18.355  1.00  0.00     0.092 A 
HETATM    3  C9  UNL     1      48.024  58.193  17.109  1.00  0.00     0.031 A 
HETATM    4  C10 UNL     1      48.101  56.823  16.962  1.00  0.00    -0.008 A 
HETATM    5  C11 UNL     1      47.777  55.932  15.964  1.00  0.00     0.016 A 
HETATM    6  C12 UNL     1      47.995  54.560  16.158  1.00  0.00     0.030 A 
HETATM    7  C13 UNL     1      48.521  54.038  17.303  1.00  0.00     0.036 A 
HETATM    8  C23 UNL     1      48.837  54.984  18.292  1.00  0.00     0.060 A 
HETATM    9  C24 UNL     1      48.635  56.330  18.131  1.00  0.00     0.046 A 
ENDROOT
BRANCH   1  10
HETATM   10  C7  UNL     1      49.453  57.238  20.325  1.00  0.00     0.131 C 
BRANCH  10  11
HETATM   11  C6  UNL     1      50.860  57.722  20.290  1.00  0.00     0.048 C 
BRANCH  11  12
HETATM   12  C4  UNL     1      51.806  56.926  21.136  1.00  0.00     0.115 C 
BRANCH  12  13
HETATM   13  N2  UNL     1      52.020  55.609  20.531  1.00  0.00    -0.344 N 
HETATM   14  C3  UNL     1      51.916  54.413  21.137  1.00  0.00     0.127 A 
HETATM   15  C2  UNL     1      52.189  53.383  20.251  1.00  0.00     0.114 A 
HETATM   16  N5  UNL     1      52.464  54.011  19.073  1.00  0.00    -0.347 N 
HETATM   17  C25 UNL     1      52.360  55.338  19.253  1.00  0.00     0.183 A 
ATOM     18  H5  UNL     1      52.709  53.549  18.197  1.00  0.00     0.167 HD
BRANCH  15  19
HETATM   19  C1  UNL     1      52.187  51.953  20.502  1.00  0.00     0.282 C 
HETATM   20  N1  UNL     1      53.309  51.159  20.178  1.00  0.00    -0.056 NA
HETATM   21  O1  UNL     1      51.181  51.419  21.012  1.00  0.00    -0.269 OA
ENDBRANCH  15  19
ENDBRANCH  12  13
BRANCH  12  22
HETATM   22  C5  UNL     1      53.110  57.589  21.401  1.00  0.00     0.189 C 
BRANCH  22  23
HETATM   23  O2  UNL     1      53.766  57.126  22.525  1.00  0.00    -0.399 OA
ATOM     24  H2  UNL     1      53.453  57.495  23.342  1.00  0.00     0.209 HD
ENDBRANCH  22  23
ENDBRANCH  12  22
ENDBRANCH  11  12
ENDBRANCH  10  11
ENDBRANCH   1  10
BRANCH   7  25
HETATM   25  N4  UNL     1      48.774  52.692  17.605  1.00  0.00    -0.327 N 
HETATM   26  C14 UNL     1      49.980  51.985  17.369  1.00  0.00     0.222 C 
HETATM   27  O3  UNL     1      50.929  52.592  16.840  1.00  0.00    -0.273 OA
ATOM     28  H4  UNL     1      48.013  52.168  18.040  1.00  0.00     0.169 HD
BRANCH  26  29
HETATM   29  C15 UNL     1      50.119  50.556  17.741  1.00  0.00     0.108 C 
BRANCH  29  30
HETATM   30  C16 UNL     1      49.379  49.605  16.890  1.00  0.00     0.047 C 
BRANCH  30  31
HETATM   31  C17 UNL     1      48.069  49.144  17.391  1.00  0.00    -0.058 A 
HETATM   32  C18 UNL     1      47.734  48.918  18.685  1.00  0.00     0.007 A 
HETATM   33  C19 UNL     1      46.471  48.516  19.079  1.00  0.00     0.001 A 
HETATM   34  C20 UNL     1      45.520  48.338  18.099  1.00  0.00     0.000 A 
HETATM   35  C21 UNL     1      45.810  48.553  16.771  1.00  0.00     0.001 A 
HETATM   36  C22 UNL     1      47.062  48.948  16.433  1.00  0.00     0.007 A 
ENDBRANCH  30  31
ENDBRANCH  29  30
ENDBRANCH  26  29
ENDBRANCH   7  25
TORSDOF 11
ENDMDL
