MODEL 4
REMARK VINA RESULT: -9.905838424      0.975      5.819
REMARK  1 active torsions:
REMARK  status: ('A' for Active; 'I' for Inactive)
REMARK    1  A    between atoms: N3_22  and  O2_24 
ROOT
HETATM    1  O1  UNL     1      38.904  17.659  34.209  1.00  0.00    -0.267 OA
HETATM    2  C1  UNL     1      39.481  17.853  33.130  1.00  0.00     0.259 A 
HETATM    3  N1  UNL     1      40.322  18.939  32.744  1.00  0.00    -0.322 N 
ATOM      4  H1  UNL     1      40.569  19.734  33.334  1.00  0.00     0.169 HD
HETATM    5  C2  UNL     1      40.759  18.739  31.413  1.00  0.00     0.046 A 
HETATM    6  C3  UNL     1      41.597  19.586  30.679  1.00  0.00     0.030 A 
HETATM    7  C4  UNL     1      41.915  19.223  29.387  1.00  0.00     0.002 A 
HETATM    8  C5  UNL     1      41.415  18.060  28.852  1.00  0.00     0.001 A 
HETATM    9  C6  UNL     1      40.576  17.238  29.624  1.00  0.00     0.015 A 
HETATM   10  C7  UNL     1      40.246  17.570  30.899  1.00  0.00     0.009 A 
HETATM   11  C8  UNL     1      39.440  16.979  31.936  1.00  0.00     0.073 A 
HETATM   12  C9  UNL     1      38.745  15.836  31.888  1.00  0.00     0.079 A 
HETATM   13  N2  UNL     1      37.964  15.332  32.994  1.00  0.00    -0.353 N 
ATOM     14  H2  UNL     1      37.857  15.776  33.906  1.00  0.00     0.166 HD
HETATM   15  C10 UNL     1      37.372  14.107  32.583  1.00  0.00     0.045 A 
HETATM   16  C11 UNL     1      36.538  13.216  33.242  1.00  0.00     0.030 A 
HETATM   17  C12 UNL     1      36.100  12.084  32.606  1.00  0.00     0.002 A 
HETATM   18  C13 UNL     1      36.467  11.799  31.314  1.00  0.00     0.001 A 
HETATM   19  C14 UNL     1      37.300  12.696  30.667  1.00  0.00     0.016 A 
HETATM   20  C15 UNL     1      37.742  13.833  31.301  1.00  0.00     0.021 A 
HETATM   21  C16 UNL     1      38.637  14.923  30.796  1.00  0.00     0.094 A 
HETATM   22  N3  UNL     1      39.123  14.927  29.646  1.00  0.00    -0.266 N 
ATOM     23  H3  UNL     1      39.714  15.729  29.430  1.00  0.00     0.194 HD
ENDROOT
BRANCH  22  24
HETATM   24  O2  UNL     1      38.989  14.031  28.642  1.00  0.00    -0.289 OA
ATOM     25  H2  UNL     1      39.317  14.058  27.751  1.00  0.00     0.244 HD
ENDBRANCH  22  24
TORSDOF 1
ENDMDL
