MODEL 2
REMARK VINA RESULT: -10.680188761      1.042      6.644
REMARK  1 active torsions:
REMARK  status: ('A' for Active; 'I' for Inactive)
REMARK    1  A    between atoms: N3_22  and  O2_24 
ROOT
HETATM    1  O1  UNL     1      40.320  15.744  27.939  1.00  0.00    -0.267 OA
HETATM    2  C1  UNL     1      40.689  16.719  28.608  1.00  0.00     0.259 A 
HETATM    3  N1  UNL     1      41.551  17.792  28.232  1.00  0.00    -0.322 N 
ATOM      4  H1  UNL     1      41.995  17.902  27.321  1.00  0.00     0.169 HD
HETATM    5  C2  UNL     1      41.691  18.680  29.325  1.00  0.00     0.046 A 
HETATM    6  C3  UNL     1      42.455  19.853  29.348  1.00  0.00     0.030 A 
HETATM    7  C4  UNL     1      42.470  20.594  30.511  1.00  0.00     0.002 A 
HETATM    8  C5  UNL     1      41.750  20.179  31.606  1.00  0.00     0.001 A 
HETATM    9  C6  UNL     1      40.996  18.995  31.539  1.00  0.00     0.015 A 
HETATM   10  C7  UNL     1      40.962  18.244  30.408  1.00  0.00     0.009 A 
HETATM   11  C8  UNL     1      40.317  17.020  30.009  1.00  0.00     0.073 A 
HETATM   12  C9  UNL     1      39.508  16.241  30.735  1.00  0.00     0.079 A 
HETATM   13  N2  UNL     1      38.910  15.026  30.234  1.00  0.00    -0.353 N 
ATOM     14  H2  UNL     1      39.034  14.636  29.299  1.00  0.00     0.166 HD
HETATM   15  C10 UNL     1      38.119  14.469  31.275  1.00  0.00     0.045 A 
HETATM   16  C11 UNL     1      37.340  13.324  31.334  1.00  0.00     0.030 A 
HETATM   17  C12 UNL     1      36.663  13.009  32.483  1.00  0.00     0.002 A 
HETATM   18  C13 UNL     1      36.735  13.806  33.599  1.00  0.00     0.001 A 
HETATM   19  C14 UNL     1      37.516  14.947  33.529  1.00  0.00     0.016 A 
HETATM   20  C15 UNL     1      38.196  15.267  32.377  1.00  0.00     0.021 A 
HETATM   21  C16 UNL     1      39.085  16.437  32.085  1.00  0.00     0.094 A 
HETATM   22  N3  UNL     1      39.333  17.329  32.923  1.00  0.00    -0.266 N 
ATOM     23  H3  UNL     1      39.955  18.067  32.595  1.00  0.00     0.194 HD
ENDROOT
BRANCH  22  24
HETATM   24  O2  UNL     1      38.905  17.468  34.197  1.00  0.00    -0.289 OA
ATOM     25  H2  UNL     1      39.315  17.902  34.936  1.00  0.00     0.244 HD
ENDBRANCH  22  24
TORSDOF 1
ENDMDL
