MODEL 1
REMARK VINA RESULT: -10.701572104      0.000      0.000
REMARK  1 active torsions:
REMARK  status: ('A' for Active; 'I' for Inactive)
REMARK    1  A    between atoms: N3_22  and  O2_24 
ROOT
HETATM    1  O1  UNL     1      38.615  17.050  34.644  1.00  0.00    -0.267 OA
HETATM    2  C1  UNL     1      38.244  16.122  33.912  1.00  0.00     0.259 A 
HETATM    3  N1  UNL     1      37.366  15.038  34.211  1.00  0.00    -0.322 N 
ATOM      4  H1  UNL     1      36.909  14.878  35.108  1.00  0.00     0.169 HD
HETATM    5  C2  UNL     1      37.233  14.218  33.064  1.00  0.00     0.046 A 
HETATM    6  C3  UNL     1      36.457  13.058  32.960  1.00  0.00     0.030 A 
HETATM    7  C4  UNL     1      36.451  12.388  31.755  1.00  0.00     0.002 A 
HETATM    8  C5  UNL     1      37.192  12.860  30.697  1.00  0.00     0.001 A 
HETATM    9  C6  UNL     1      37.956  14.029  30.845  1.00  0.00     0.015 A 
HETATM   10  C7  UNL     1      37.982  14.711  32.020  1.00  0.00     0.009 A 
HETATM   11  C8  UNL     1      38.633  15.902  32.501  1.00  0.00     0.073 A 
HETATM   12  C9  UNL     1      39.462  16.713  31.834  1.00  0.00     0.079 A 
HETATM   13  N2  UNL     1      40.064  17.889  32.416  1.00  0.00    -0.353 N 
ATOM     14  H2  UNL     1      39.931  18.223  33.370  1.00  0.00     0.166 HD
HETATM   15  C10 UNL     1      40.876  18.498  31.421  1.00  0.00     0.045 A 
HETATM   16  C11 UNL     1      41.669  19.636  31.442  1.00  0.00     0.030 A 
HETATM   17  C12 UNL     1      42.364  20.013  30.323  1.00  0.00     0.002 A 
HETATM   18  C13 UNL     1      42.301  19.284  29.161  1.00  0.00     0.001 A 
HETATM   19  C14 UNL     1      41.507  18.150  29.151  1.00  0.00     0.016 A 
HETATM   20  C15 UNL     1      40.807  17.769  30.271  1.00  0.00     0.021 A 
HETATM   21  C16 UNL     1      39.900  16.595  30.480  1.00  0.00     0.094 A 
HETATM   22  N3  UNL     1      39.656  15.757  29.587  1.00  0.00    -0.266 N 
ATOM     23  H3  UNL     1      39.024  15.006  29.862  1.00  0.00     0.194 HD
ENDROOT
BRANCH  22  24
HETATM   24  O2  UNL     1      40.101  15.690  28.312  1.00  0.00    -0.289 OA
ATOM     25  H2  UNL     1      39.788  15.169  27.582  1.00  0.00     0.244 HD
ENDBRANCH  22  24
TORSDOF 1
ENDMDL
