MODEL 6
REMARK VINA RESULT: -9.403461827      1.605      6.710
REMARK  1 active torsions:
REMARK  status: ('A' for Active; 'I' for Inactive)
REMARK    1  A    between atoms: N3_22  and  O2_24 
ROOT
HETATM    1  O1  UNL     1      38.903  14.518  27.003  1.00  0.00    -0.267 OA
HETATM    2  C1  UNL     1      39.478  15.507  27.477  1.00  0.00     0.259 A 
HETATM    3  N1  UNL     1      40.306  16.466  26.819  1.00  0.00    -0.322 N 
ATOM      4  H1  UNL     1      40.542  16.461  25.827  1.00  0.00     0.169 HD
HETATM    5  C2  UNL     1      40.747  17.424  27.763  1.00  0.00     0.046 A 
HETATM    6  C3  UNL     1      41.576  18.521  27.505  1.00  0.00     0.030 A 
HETATM    7  C4  UNL     1      41.902  19.350  28.558  1.00  0.00     0.002 A 
HETATM    8  C5  UNL     1      41.417  19.091  29.819  1.00  0.00     0.001 A 
HETATM    9  C6  UNL     1      40.588  17.977  30.033  1.00  0.00     0.015 A 
HETATM   10  C7  UNL     1      40.250  17.143  29.015  1.00  0.00     0.009 A 
HETATM   11  C8  UNL     1      39.450  15.953  28.888  1.00  0.00     0.073 A 
HETATM   12  C9  UNL     1      38.772  15.310  29.846  1.00  0.00     0.079 A 
HETATM   13  N2  UNL     1      37.995  14.116  29.608  1.00  0.00    -0.353 N 
ATOM     14  H2  UNL     1      37.880  13.643  28.712  1.00  0.00     0.166 HD
HETATM   15  C10 UNL     1      37.420  13.719  30.845  1.00  0.00     0.045 A 
HETATM   16  C11 UNL     1      36.597  12.656  31.184  1.00  0.00     0.030 A 
HETATM   17  C12 UNL     1      36.173  12.497  32.477  1.00  0.00     0.002 A 
HETATM   18  C13 UNL     1      36.547  13.372  33.467  1.00  0.00     0.001 A 
HETATM   19  C14 UNL     1      37.369  14.429  33.117  1.00  0.00     0.016 A 
HETATM   20  C15 UNL     1      37.796  14.593  31.821  1.00  0.00     0.021 A 
HETATM   21  C16 UNL     1      38.676  15.652  31.229  1.00  0.00     0.094 A 
HETATM   22  N3  UNL     1      39.166  16.583  31.901  1.00  0.00    -0.266 N 
ATOM     23  H3  UNL     1      39.748  17.234  31.375  1.00  0.00     0.194 HD
ENDROOT
BRANCH  22  24
HETATM   24  O2  UNL     1      39.043  16.863  33.218  1.00  0.00    -0.289 OA
ATOM     25  H2  UNL     1      38.457  16.495  33.869  1.00  0.00     0.244 HD
ENDBRANCH  22  24
TORSDOF 1
ENDMDL
