MODEL 2
REMARK VINA RESULT: -7.802007652      3.551      4.552
REMARK  2 active torsions:
REMARK  status: ('A' for Active; 'I' for Inactive)
REMARK    1  A    between atoms: N2_6  and  C5_7 
REMARK    2  A    between atoms: C5_7  and  C6_8 
ROOT
HETATM    1  C6  UNL     1      -2.352   0.876  24.621  1.00  0.00     0.079 A 
HETATM    2  N3  UNL     1      -1.207   0.364  25.122  1.00  0.00    -0.306 N 
ATOM      3  H3  UNL     1      -1.075   0.294  26.131  1.00  0.00     0.171 HD
HETATM    4  C7  UNL     1      -0.220  -0.062  24.266  1.00  0.00     0.327 A 
HETATM    5  O1  UNL     1       0.829  -0.588  24.756  1.00  0.00    -0.247 OA
HETATM    6  N4  UNL     1      -0.276   0.007  22.948  1.00  0.00    -0.274 N 
ATOM      7  H4  UNL     1       0.488  -0.320  22.357  1.00  0.00     0.173 HD
HETATM    8  C8  UNL     1      -1.411   0.539  22.425  1.00  0.00     0.273 A 
HETATM    9  O2  UNL     1      -1.435   0.647  21.165  1.00  0.00    -0.266 OA
HETATM   10  C9  UNL     1      -2.419   0.944  23.203  1.00  0.00     0.130 A 
HETATM   11 CL1  UNL     1      -3.940   1.564  22.538  1.00  0.00    -0.076 Cl
ENDROOT
BRANCH   1  12
HETATM   12  C5  UNL     1      -3.590   0.961  25.353  1.00  0.00     0.123 C 
BRANCH  12  13
HETATM   13  N2  UNL     1      -3.707   1.279  26.712  1.00  0.00    -0.343 N 
HETATM   14  C1  UNL     1      -3.270   0.755  27.870  1.00  0.00     0.114 C 
HETATM   15  N1  UNL     1      -2.275  -0.141  28.341  1.00  0.00    -0.083 NA
HETATM   16  C2  UNL     1      -4.174   1.065  28.847  1.00  0.00     0.020 C 
HETATM   17  C3  UNL     1      -5.268   1.902  28.415  1.00  0.00     0.051 C 
HETATM   18  C4  UNL     1      -4.721   2.372  27.044  1.00  0.00     0.133 C 
ENDBRANCH  12  13
ENDBRANCH   1  12
TORSDOF 2
ENDMDL
