MODEL 1
REMARK VINA RESULT: -8.231485463      0.000      0.000
REMARK  2 active torsions:
REMARK  status: ('A' for Active; 'I' for Inactive)
REMARK    1  A    between atoms: N2_6  and  C5_7 
REMARK    2  A    between atoms: C5_7  and  C6_8 
ROOT
HETATM    1  C6  UNL     1      -3.649   1.581  27.513  1.00  0.00     0.079 A 
HETATM    2  N3  UNL     1      -2.823   0.562  27.191  1.00  0.00    -0.306 N 
ATOM      3  H3  UNL     1      -1.813   0.707  27.174  1.00  0.00     0.171 HD
HETATM    4  C7  UNL     1      -3.349  -0.670  26.886  1.00  0.00     0.327 A 
HETATM    5  O1  UNL     1      -2.552  -1.630  26.635  1.00  0.00    -0.247 OA
HETATM    6  N4  UNL     1      -4.638  -0.958  26.851  1.00  0.00    -0.274 N 
ATOM      7  H4  UNL     1      -4.976  -1.891  26.613  1.00  0.00     0.173 HD
HETATM    8  C8  UNL     1      -5.486   0.059  27.150  1.00  0.00     0.273 A 
HETATM    9  O2  UNL     1      -6.718  -0.213  27.066  1.00  0.00    -0.266 OA
HETATM   10  C9  UNL     1      -5.036   1.272  27.484  1.00  0.00     0.130 A 
HETATM   11 CL1  UNL     1      -6.123   2.588  27.958  1.00  0.00    -0.076 Cl
ENDROOT
BRANCH   1  12
HETATM   12  C5  UNL     1      -3.242   2.756  28.240  1.00  0.00     0.123 C 
BRANCH  12  13
HETATM   13  N2  UNL     1      -2.739   2.765  29.547  1.00  0.00    -0.343 N 
HETATM   14  C1  UNL     1      -2.101   1.892  30.345  1.00  0.00     0.114 C 
HETATM   15  N1  UNL     1      -1.352   0.691  30.248  1.00  0.00    -0.083 NA
HETATM   16  C2  UNL     1      -2.429   2.180  31.641  1.00  0.00     0.020 C 
HETATM   17  C3  UNL     1      -3.271   3.341  31.808  1.00  0.00     0.051 C 
HETATM   18  C4  UNL     1      -3.147   3.968  30.397  1.00  0.00     0.133 C 
ENDBRANCH  12  13
ENDBRANCH   1  12
TORSDOF 2
ENDMDL
