MODEL 3
REMARK VINA RESULT: -7.784799806      2.716      3.638
REMARK  2 active torsions:
REMARK  status: ('A' for Active; 'I' for Inactive)
REMARK    1  A    between atoms: N2_6  and  C5_7 
REMARK    2  A    between atoms: C5_7  and  C6_8 
ROOT
HETATM    1  C6  UNL     1      -3.518   1.066  25.410  1.00  0.00     0.079 A 
HETATM    2  N3  UNL     1      -2.364   1.505  24.863  1.00  0.00    -0.306 N 
ATOM      3  H3  UNL     1      -2.259   2.487  24.609  1.00  0.00     0.171 HD
HETATM    4  C7  UNL     1      -1.333   0.622  24.649  1.00  0.00     0.327 A 
HETATM    5  O1  UNL     1      -0.237   1.065  24.180  1.00  0.00    -0.247 OA
HETATM    6  N4  UNL     1      -1.373  -0.671  24.915  1.00  0.00    -0.274 N 
ATOM      7  H4  UNL     1      -0.579  -1.285  24.732  1.00  0.00     0.173 HD
HETATM    8  C8  UNL     1      -2.533  -1.137  25.446  1.00  0.00     0.273 A 
HETATM    9  O2  UNL     1      -2.579  -2.384  25.652  1.00  0.00    -0.266 OA
HETATM   10  C9  UNL     1      -3.561  -0.324  25.705  1.00  0.00     0.130 A 
HETATM   11 CL1  UNL     1      -5.051  -0.896  26.475  1.00  0.00    -0.076 Cl
ENDROOT
BRANCH   1  12
HETATM   12  C5  UNL     1      -4.482   1.917  26.060  1.00  0.00     0.123 C 
BRANCH  12  13
HETATM   13  N2  UNL     1      -4.500   2.225  27.426  1.00  0.00    -0.343 N 
HETATM   14  C1  UNL     1      -5.391   2.740  28.291  1.00  0.00     0.114 C 
HETATM   15  N1  UNL     1      -6.789   2.955  28.399  1.00  0.00    -0.083 NA
HETATM   16  C2  UNL     1      -4.702   3.394  29.273  1.00  0.00     0.020 C 
HETATM   17  C3  UNL     1      -3.264   3.296  29.173  1.00  0.00     0.051 C 
HETATM   18  C4  UNL     1      -3.146   2.156  28.130  1.00  0.00     0.133 C 
ENDBRANCH  12  13
ENDBRANCH   1  12
TORSDOF 2
ENDMDL
