MODEL 5
REMARK VINA RESULT: -4.435984015      6.033      6.618
REMARK  0 active torsions:
REMARK  status: ('A' for Active; 'I' for Inactive)
ROOT
HETATM    1  O1  UNL     1       4.819  94.774  40.889  1.00  0.00    -0.247 OA
HETATM    2  C1  UNL     1       5.075  95.241  42.021  1.00  0.00     0.327 A 
HETATM    3  N1  UNL     1       5.755  94.488  42.900  1.00  0.00    -0.316 N 
ATOM      4  H1  UNL     1       6.063  93.546  42.659  1.00  0.00     0.170 HD
HETATM    5  C2  UNL     1       6.018  95.018  44.114  1.00  0.00     0.140 A 
HETATM    6  C3  UNL     1       5.598  96.298  44.440  1.00  0.00     0.199 A 
HETATM    7  F1  UNL     1       5.860  96.842  45.663  1.00  0.00    -0.199 F 
HETATM    8  C4  UNL     1       4.907  97.040  43.521  1.00  0.00     0.289 A 
HETATM    9  O2  UNL     1       4.506  98.220  43.785  1.00  0.00    -0.265 OA
HETATM   10  N2  UNL     1       4.655  96.495  42.315  1.00  0.00    -0.273 N 
ATOM     11  H2  UNL     1       4.141  97.031  41.616  1.00  0.00     0.173 HD
ENDROOT
TORSDOF 0
ENDMDL
