MODEL 1
REMARK VINA RESULT: -4.766775641      0.000      0.000
REMARK  0 active torsions:
REMARK  status: ('A' for Active; 'I' for Inactive)
ROOT
HETATM    1  O1  UNL     1       9.756  93.281  47.956  1.00  0.00    -0.247 OA
HETATM    2  C1  UNL     1       9.842  94.396  47.395  1.00  0.00     0.327 A 
HETATM    3  N1  UNL     1       9.136  94.620  46.275  1.00  0.00    -0.316 N 
ATOM      4  H1  UNL     1       8.536  93.897  45.878  1.00  0.00     0.170 HD
HETATM    5  C2  UNL     1       9.247  95.833  45.692  1.00  0.00     0.140 A 
HETATM    6  C3  UNL     1      10.064  96.813  46.233  1.00  0.00     0.199 A 
HETATM    7  F1  UNL     1      10.183  98.040  45.651  1.00  0.00    -0.199 F 
HETATM    8  C4  UNL     1      10.770  96.552  47.376  1.00  0.00     0.289 A 
HETATM    9  O2  UNL     1      11.531  97.429  47.902  1.00  0.00    -0.265 OA
HETATM   10  N2  UNL     1      10.647  95.337  47.944  1.00  0.00    -0.273 N 
ATOM     11  H2  UNL     1      11.165  95.123  48.796  1.00  0.00     0.173 HD
ENDROOT
TORSDOF 0
ENDMDL
