MODEL 6
REMARK VINA RESULT: -4.374623002      7.947      8.742
REMARK  0 active torsions:
REMARK  status: ('A' for Active; 'I' for Inactive)
ROOT
HETATM    1  O1  UNL     1       2.198  90.841  42.606  1.00  0.00    -0.247 OA
HETATM    2  C1  UNL     1       2.925  91.022  43.607  1.00  0.00     0.327 A 
HETATM    3  N1  UNL     1       3.297  92.272  43.926  1.00  0.00    -0.316 N 
ATOM      4  H1  UNL     1       2.998  93.070  43.365  1.00  0.00     0.170 HD
HETATM    5  C2  UNL     1       4.082  92.438  45.013  1.00  0.00     0.140 A 
HETATM    6  C3  UNL     1       4.489  91.352  45.772  1.00  0.00     0.199 A 
HETATM    7  F1  UNL     1       5.281  91.510  46.871  1.00  0.00    -0.199 F 
HETATM    8  C4  UNL     1       4.091  90.091  45.420  1.00  0.00     0.289 A 
HETATM    9  O2  UNL     1       4.445  89.070  46.094  1.00  0.00    -0.265 OA
HETATM   10  N2  UNL     1       3.308  89.945  44.333  1.00  0.00    -0.273 N 
ATOM     11  H2  UNL     1       3.001  89.014  44.053  1.00  0.00     0.173 HD
ENDROOT
TORSDOF 0
ENDMDL
