MODEL 4
REMARK VINA RESULT: -4.473826617      6.153      6.875
REMARK  0 active torsions:
REMARK  status: ('A' for Active; 'I' for Inactive)
ROOT
HETATM    1  O1  UNL     1       2.195  97.197  43.894  1.00  0.00    -0.247 OA
HETATM    2  C1  UNL     1       3.431  97.006  43.893  1.00  0.00     0.327 A 
HETATM    3  N1  UNL     1       4.036  96.638  45.034  1.00  0.00    -0.316 N 
ATOM      4  H1  UNL     1       3.505  96.514  45.896  1.00  0.00     0.170 HD
HETATM    5  C2  UNL     1       5.372  96.438  45.003  1.00  0.00     0.140 A 
HETATM    6  C3  UNL     1       6.092  96.609  43.831  1.00  0.00     0.199 A 
HETATM    7  F1  UNL     1       7.441  96.409  43.791  1.00  0.00    -0.199 F 
HETATM    8  C4  UNL     1       5.445  96.984  42.685  1.00  0.00     0.289 A 
HETATM    9  O2  UNL     1       6.074  97.150  41.590  1.00  0.00    -0.265 OA
HETATM   10  N2  UNL     1       4.113  97.179  42.735  1.00  0.00    -0.273 N 
ATOM     11  H2  UNL     1       3.611  97.459  41.892  1.00  0.00     0.173 HD
ENDROOT
TORSDOF 0
ENDMDL
