MODEL 3
REMARK VINA RESULT: -9.409912993      3.834      8.453
REMARK  14 active torsions:
REMARK  status: ('A' for Active; 'I' for Inactive)
REMARK       I    between atoms: C2_2  and  N1_4 
REMARK    1  A    between atoms: N1_4  and  C3_6 
REMARK    2  A    between atoms: N2_8  and  O2_10 
REMARK    3  A    between atoms: O2_10  and  C5_11 
REMARK       I    between atoms: C5_11  and  N3_13 
REMARK    4  A    between atoms: N3_13  and  C6_15 
REMARK    5  A    between atoms: C12_22  and  C13_23 
REMARK    6  A    between atoms: C13_23  and  O5_24 
REMARK    7  A    between atoms: C14_26  and  O6_27 
REMARK    8  A    between atoms: O6_27  and  C15_28 
REMARK    9  A    between atoms: C16_30  and  C17_31 
REMARK   10  A    between atoms: C17_31  and  O8_32 
REMARK   11  A    between atoms: C18_34  and  O9_35 
REMARK   12  A    between atoms: C19_37  and  O10_38 
REMARK   13  A    between atoms: C20_40  and  N4_41 
REMARK       I    between atoms: N4_41  and  C21_43 
REMARK   14  A    between atoms: C23_46  and  O12_47 
ROOT
HETATM    1  C3  UNL     1      15.630  39.592 102.541  1.00  0.00     0.192 C 
HETATM    2  C4  UNL     1      16.652  40.630 102.826  1.00  0.00     0.165 C 
HETATM    3  N2  UNL     1      16.572  41.758 102.224  1.00  0.00    -0.236 N 
ATOM      4  H2  UNL     1      15.811  41.918 101.563  1.00  0.00     0.197 HD
HETATM    5  O4  UNL     1      17.647  40.368 103.715  1.00  0.00    -0.326 OA
HETATM    6  C12 UNL     1      18.370  39.129 103.636  1.00  0.00     0.185 C 
HETATM    7  C14 UNL     1      17.699  38.202 102.720  1.00  0.00     0.187 C 
HETATM    8  C23 UNL     1      16.164  38.270 103.031  1.00  0.00     0.180 C 
ENDROOT
BRANCH   7   9
HETATM    9  O6  UNL     1      17.979  36.868 102.786  1.00  0.00    -0.348 OA
BRANCH   9  10
HETATM   10  C15 UNL     1      18.565  36.282 101.697  1.00  0.00     0.286 C 
HETATM   11  O7  UNL     1      18.108  36.948 100.511  1.00  0.00    -0.349 OA
HETATM   12  C16 UNL     1      18.851  36.557  99.429  1.00  0.00     0.179 C 
HETATM   13  C18 UNL     1      18.913  35.077  99.207  1.00  0.00     0.180 C 
HETATM   14  C19 UNL     1      18.984  34.259 100.437  1.00  0.00     0.177 C 
HETATM   15  C20 UNL     1      18.081  34.881 101.493  1.00  0.00     0.170 C 
BRANCH  12  16
HETATM   16  C17 UNL     1      18.233  37.175  98.191  1.00  0.00     0.198 C 
BRANCH  16  17
HETATM   17  O8  UNL     1      17.756  36.193  97.314  1.00  0.00    -0.398 OA
ATOM     18  H8  UNL     1      18.346  35.450  97.271  1.00  0.00     0.209 HD
ENDBRANCH  16  17
ENDBRANCH  12  16
BRANCH  13  19
HETATM   19  O9  UNL     1      20.097  34.842  98.464  1.00  0.00    -0.390 OA
ATOM     20  H9  UNL     1      20.697  35.540  98.700  1.00  0.00     0.210 HD
ENDBRANCH  13  19
BRANCH  14  21
HETATM   21  O10 UNL     1      18.618  32.942 100.182  1.00  0.00    -0.391 OA
ATOM     22  H10 UNL     1      18.521  32.453 100.991  1.00  0.00     0.210 HD
ENDBRANCH  14  21
BRANCH  15  23
HETATM   23  N4  UNL     1      18.013  34.068 102.676  1.00  0.00    -0.349 N 
HETATM   24  C21 UNL     1      16.800  33.702 103.300  1.00  0.00     0.214 C 
HETATM   25  C22 UNL     1      16.784  32.863 104.516  1.00  0.00     0.117 C 
HETATM   26  O11 UNL     1      15.744  34.132 102.760  1.00  0.00    -0.274 OA
ATOM     27  H4  UNL     1      18.886  33.737 103.086  1.00  0.00     0.163 HD
ENDBRANCH  15  23
ENDBRANCH   9  10
ENDBRANCH   7   9
BRANCH   6  28
HETATM   28  C13 UNL     1      19.769  39.533 103.181  1.00  0.00     0.199 C 
BRANCH  28  29
HETATM   29  O5  UNL     1      19.779  39.733 101.790  1.00  0.00    -0.398 OA
ATOM     30  H5  UNL     1      20.334  39.084 101.375  1.00  0.00     0.209 HD
ENDBRANCH  28  29
ENDBRANCH   6  28
BRANCH   8  31
HETATM   31  O12 UNL     1      15.512  37.187 102.487  1.00  0.00    -0.390 OA
ATOM     32  H12 UNL     1      15.371  36.484 103.110  1.00  0.00     0.210 HD
ENDBRANCH   8  31
BRANCH   1  33
HETATM   33  N1  UNL     1      14.412  39.892 103.271  1.00  0.00    -0.347 N 
HETATM   34  C2  UNL     1      13.363  40.641 102.681  1.00  0.00     0.214 C 
HETATM   35  C1  UNL     1      12.093  40.968 103.406  1.00  0.00     0.117 C 
HETATM   36  O1  UNL     1      13.509  41.045 101.504  1.00  0.00    -0.274 OA
ATOM     37  H1  UNL     1      14.310  39.556 104.229  1.00  0.00     0.163 HD
ENDBRANCH   1  33
BRANCH   3  38
HETATM   38  O2  UNL     1      17.478  42.745 102.445  1.00  0.00    -0.179 OA
BRANCH  38  39
HETATM   39  C5  UNL     1      18.533  42.963 101.548  1.00  0.00     0.387 C 
HETATM   40  O3  UNL     1      19.677  42.738 101.991  1.00  0.00    -0.236 OA
HETATM   41  N3  UNL     1      18.312  43.406 100.236  1.00  0.00    -0.301 N 
ATOM     42  H3  UNL     1      17.347  43.571  99.950  1.00  0.00     0.171 HD
BRANCH  41  43
HETATM   43  C6  UNL     1      19.319  43.640  99.286  1.00  0.00     0.036 A 
HETATM   44  C7  UNL     1      20.457  44.380  99.482  1.00  0.00     0.029 A 
HETATM   45  C8  UNL     1      21.365  44.547  98.438  1.00  0.00     0.002 A 
HETATM   46  C9  UNL     1      21.145  43.979  97.201  1.00  0.00     0.000 A 
HETATM   47  C10 UNL     1      20.007  43.242  97.012  1.00  0.00     0.002 A 
HETATM   48  C11 UNL     1      19.122  43.077  98.022  1.00  0.00     0.029 A 
ENDBRANCH  41  43
ENDBRANCH  38  39
ENDBRANCH   3  38
TORSDOF 14
ENDMDL
