MODEL 4
REMARK VINA RESULT: -9.313363629      2.976      9.518
REMARK  14 active torsions:
REMARK  status: ('A' for Active; 'I' for Inactive)
REMARK       I    between atoms: C2_2  and  N1_4 
REMARK    1  A    between atoms: N1_4  and  C3_6 
REMARK    2  A    between atoms: N2_8  and  O2_10 
REMARK    3  A    between atoms: O2_10  and  C5_11 
REMARK       I    between atoms: C5_11  and  N3_13 
REMARK    4  A    between atoms: N3_13  and  C6_15 
REMARK    5  A    between atoms: C12_22  and  C13_23 
REMARK    6  A    between atoms: C13_23  and  O5_24 
REMARK    7  A    between atoms: C14_26  and  O6_27 
REMARK    8  A    between atoms: O6_27  and  C15_28 
REMARK    9  A    between atoms: C16_30  and  C17_31 
REMARK   10  A    between atoms: C17_31  and  O8_32 
REMARK   11  A    between atoms: C18_34  and  O9_35 
REMARK   12  A    between atoms: C19_37  and  O10_38 
REMARK   13  A    between atoms: C20_40  and  N4_41 
REMARK       I    between atoms: N4_41  and  C21_43 
REMARK   14  A    between atoms: C23_46  and  O12_47 
ROOT
HETATM    1  C3  UNL     1      17.603  44.266 101.454  1.00  0.00     0.192 C 
HETATM    2  C4  UNL     1      19.013  43.983 101.089  1.00  0.00     0.165 C 
HETATM    3  N2  UNL     1      19.436  44.338  99.933  1.00  0.00    -0.236 N 
ATOM      4  H2  UNL     1      18.797  44.804  99.290  1.00  0.00     0.197 HD
HETATM    5  O4  UNL     1      19.826  43.358 101.983  1.00  0.00    -0.326 OA
HETATM    6  C12 UNL     1      19.365  42.185 102.672  1.00  0.00     0.185 C 
HETATM    7  C14 UNL     1      17.924  42.006 102.471  1.00  0.00     0.187 C 
HETATM    8  C23 UNL     1      17.253  43.412 102.646  1.00  0.00     0.180 C 
ENDROOT
BRANCH   7   9
HETATM    9  O6  UNL     1      17.219  41.207 103.323  1.00  0.00    -0.348 OA
BRANCH   9  10
HETATM   10  C15 UNL     1      16.372  40.280 102.778  1.00  0.00     0.286 C 
HETATM   11  O7  UNL     1      15.035  40.559 103.219  1.00  0.00    -0.349 OA
HETATM   12  C16 UNL     1      14.134  39.811 102.508  1.00  0.00     0.179 C 
HETATM   13  C18 UNL     1      14.391  38.335 102.517  1.00  0.00     0.180 C 
HETATM   14  C19 UNL     1      15.817  37.945 102.468  1.00  0.00     0.177 C 
HETATM   15  C20 UNL     1      16.620  38.911 103.328  1.00  0.00     0.170 C 
BRANCH  12  16
HETATM   16  C17 UNL     1      12.763  40.036 103.113  1.00  0.00     0.198 C 
BRANCH  16  17
HETATM   17  O8  UNL     1      12.180  38.829 103.519  1.00  0.00    -0.398 OA
ATOM     18  H8  UNL     1      11.277  38.765 103.229  1.00  0.00     0.209 HD
ENDBRANCH  16  17
ENDBRANCH  12  16
BRANCH  13  19
HETATM   19  O9  UNL     1      13.764  37.822 101.355  1.00  0.00    -0.390 OA
ATOM     20  H9  UNL     1      13.225  37.096 101.647  1.00  0.00     0.210 HD
ENDBRANCH  13  19
BRANCH  14  21
HETATM   21  O10 UNL     1      15.990  36.635 102.898  1.00  0.00    -0.391 OA
ATOM     22  H10 UNL     1      16.816  36.281 102.589  1.00  0.00     0.210 HD
ENDBRANCH  14  21
BRANCH  15  23
HETATM   23  N4  UNL     1      17.999  38.517 103.419  1.00  0.00    -0.349 N 
HETATM   24  C21 UNL     1      18.723  38.491 104.632  1.00  0.00     0.214 C 
HETATM   25  C22 UNL     1      20.141  38.078 104.671  1.00  0.00     0.117 C 
HETATM   26  O11 UNL     1      18.090  38.839 105.666  1.00  0.00    -0.274 OA
ATOM     27  H4  UNL     1      18.480  38.241 102.563  1.00  0.00     0.163 HD
ENDBRANCH  15  23
ENDBRANCH   9  10
ENDBRANCH   7   9
BRANCH   6  28
HETATM   28  C13 UNL     1      20.208  41.050 102.098  1.00  0.00     0.199 C 
BRANCH  28  29
HETATM   29  O5  UNL     1      19.420  40.252 101.250  1.00  0.00    -0.398 OA
ATOM     30  H5  UNL     1      19.239  39.419 101.669  1.00  0.00     0.209 HD
ENDBRANCH  28  29
ENDBRANCH   6  28
BRANCH   8  31
HETATM   31  O12 UNL     1      15.896  43.279 102.837  1.00  0.00    -0.390 OA
ATOM     32  H12 UNL     1      15.674  42.853 103.657  1.00  0.00     0.210 HD
ENDBRANCH   8  31
BRANCH   1  33
HETATM   33  N1  UNL     1      17.467  45.660 101.836  1.00  0.00    -0.347 N 
HETATM   34  C2  UNL     1      18.297  46.237 102.830  1.00  0.00     0.214 C 
HETATM   35  C1  UNL     1      18.185  47.671 103.248  1.00  0.00     0.117 C 
HETATM   36  O1  UNL     1      19.160  45.512 103.380  1.00  0.00    -0.274 OA
ATOM     37  H1  UNL     1      16.760  46.235 101.379  1.00  0.00     0.163 HD
ENDBRANCH   1  33
BRANCH   3  38
HETATM   38  O2  UNL     1      20.717  44.105  99.545  1.00  0.00    -0.179 OA
BRANCH  38  39
HETATM   39  C5  UNL     1      21.129  44.383  98.235  1.00  0.00     0.387 C 
HETATM   40  O3  UNL     1      20.217  44.487  97.389  1.00  0.00    -0.236 OA
HETATM   41  N3  UNL     1      22.482  44.534  97.898  1.00  0.00    -0.301 N 
ATOM     42  H3  UNL     1      23.168  44.431  98.646  1.00  0.00     0.171 HD
BRANCH  41  43
HETATM   43  C6  UNL     1      22.965  44.817  96.610  1.00  0.00     0.036 A 
HETATM   44  C7  UNL     1      23.037  46.057  96.030  1.00  0.00     0.029 A 
HETATM   45  C8  UNL     1      23.521  46.188  94.730  1.00  0.00     0.002 A 
HETATM   46  C9  UNL     1      23.935  45.090  94.006  1.00  0.00     0.000 A 
HETATM   47  C10 UNL     1      23.861  43.855  94.591  1.00  0.00     0.002 A 
HETATM   48  C11 UNL     1      23.391  43.721  95.853  1.00  0.00     0.029 A 
ENDBRANCH  41  43
ENDBRANCH  38  39
ENDBRANCH   3  38
TORSDOF 14
ENDMDL
