MODEL 2
REMARK VINA RESULT: -9.486565006      1.840      2.207
REMARK  14 active torsions:
REMARK  status: ('A' for Active; 'I' for Inactive)
REMARK       I    between atoms: C2_2  and  N1_4 
REMARK    1  A    between atoms: N1_4  and  C3_6 
REMARK    2  A    between atoms: N2_8  and  O2_10 
REMARK    3  A    between atoms: O2_10  and  C5_11 
REMARK       I    between atoms: C5_11  and  N3_13 
REMARK    4  A    between atoms: N3_13  and  C6_15 
REMARK    5  A    between atoms: C12_22  and  C13_23 
REMARK    6  A    between atoms: C13_23  and  O5_24 
REMARK    7  A    between atoms: C14_26  and  O6_27 
REMARK    8  A    between atoms: O6_27  and  C15_28 
REMARK    9  A    between atoms: C16_30  and  C17_31 
REMARK   10  A    between atoms: C17_31  and  O8_32 
REMARK   11  A    between atoms: C18_34  and  O9_35 
REMARK   12  A    between atoms: C19_37  and  O10_38 
REMARK   13  A    between atoms: C20_40  and  N4_41 
REMARK       I    between atoms: N4_41  and  C21_43 
REMARK   14  A    between atoms: C23_46  and  O12_47 
ROOT
HETATM    1  C3  UNL     1      19.173  43.153  99.774  1.00  0.00     0.192 C 
HETATM    2  C4  UNL     1      18.912  41.721 100.063  1.00  0.00     0.165 C 
HETATM    3  N2  UNL     1      19.261  41.247 101.200  1.00  0.00    -0.236 N 
ATOM      4  H2  UNL     1      19.709  41.860 101.881  1.00  0.00     0.197 HD
HETATM    5  O4  UNL     1      18.312  40.944  99.122  1.00  0.00    -0.326 OA
HETATM    6  C12 UNL     1      18.770  40.985  97.761  1.00  0.00     0.185 C 
HETATM    7  C14 UNL     1      19.688  42.111  97.562  1.00  0.00     0.187 C 
HETATM    8  C23 UNL     1      19.061  43.353  98.284  1.00  0.00     0.180 C 
ENDROOT
BRANCH   7   9
HETATM    9  O6  UNL     1      19.934  42.565  96.300  1.00  0.00    -0.348 OA
BRANCH   9  10
HETATM   10  C15 UNL     1      21.238  42.753  95.930  1.00  0.00     0.286 C 
HETATM   11  O7  UNL     1      21.407  44.112  95.499  1.00  0.00    -0.349 OA
HETATM   12  C16 UNL     1      22.737  44.403  95.355  1.00  0.00     0.179 C 
HETATM   13  C18 UNL     1      23.494  43.473  94.458  1.00  0.00     0.180 C 
HETATM   14  C19 UNL     1      23.096  42.051  94.547  1.00  0.00     0.177 C 
HETATM   15  C20 UNL     1      21.584  41.974  94.700  1.00  0.00     0.170 C 
BRANCH  12  16
HETATM   16  C17 UNL     1      22.847  45.794  94.761  1.00  0.00     0.198 C 
BRANCH  16  17
HETATM   17  O8  UNL     1      23.938  46.492  95.294  1.00  0.00    -0.398 OA
ATOM     18  H8  UNL     1      23.842  47.430  95.172  1.00  0.00     0.209 HD
ENDBRANCH  16  17
ENDBRANCH  12  16
BRANCH  13  19
HETATM   19  O9  UNL     1      24.852  43.565  94.855  1.00  0.00    -0.390 OA
ATOM     20  H9  UNL     1      25.267  42.764  94.558  1.00  0.00     0.210 HD
ENDBRANCH  13  19
BRANCH  14  21
HETATM   21  O10 UNL     1      23.519  41.344  93.427  1.00  0.00    -0.391 OA
ATOM     22  H10 UNL     1      22.947  40.606  93.254  1.00  0.00     0.210 HD
ENDBRANCH  14  21
BRANCH  15  23
HETATM   23  N4  UNL     1      21.118  40.615  94.673  1.00  0.00    -0.349 N 
HETATM   24  C21 UNL     1      20.147  40.143  93.762  1.00  0.00     0.214 C 
HETATM   25  C22 UNL     1      19.702  38.734  93.776  1.00  0.00     0.117 C 
HETATM   26  O11 UNL     1      19.690  40.989  92.947  1.00  0.00    -0.274 OA
ATOM     27  H4  UNL     1      21.510  39.956  95.346  1.00  0.00     0.163 HD
ENDBRANCH  15  23
ENDBRANCH   9  10
ENDBRANCH   7   9
BRANCH   6  28
HETATM   28  C13 UNL     1      19.417  39.621  97.537  1.00  0.00     0.199 C 
BRANCH  28  29
HETATM   29  O5  UNL     1      20.812  39.766  97.438  1.00  0.00    -0.398 OA
ATOM     30  H5  UNL     1      21.162  39.114  96.842  1.00  0.00     0.209 HD
ENDBRANCH  28  29
ENDBRANCH   6  28
BRANCH   8  31
HETATM   31  O12 UNL     1      19.655  44.515  97.847  1.00  0.00    -0.390 OA
ATOM     32  H12 UNL     1      20.144  44.405  97.040  1.00  0.00     0.210 HD
ENDBRANCH   8  31
BRANCH   1  33
HETATM   33  N1  UNL     1      18.165  43.973 100.421  1.00  0.00    -0.347 N 
HETATM   34  C2  UNL     1      18.329  44.431 101.754  1.00  0.00     0.214 C 
HETATM   35  C1  UNL     1      17.310  45.278 102.451  1.00  0.00     0.117 C 
HETATM   36  O1  UNL     1      19.373  44.109 102.369  1.00  0.00    -0.274 OA
ATOM     37  H1  UNL     1      17.322  44.226  99.907  1.00  0.00     0.163 HD
ENDBRANCH   1  33
BRANCH   3  38
HETATM   38  O2  UNL     1      19.047  39.944 101.520  1.00  0.00    -0.179 OA
BRANCH  38  39
HETATM   39  C5  UNL     1      18.842  39.558 102.851  1.00  0.00     0.387 C 
HETATM   40  O3  UNL     1      19.694  39.959 103.670  1.00  0.00    -0.236 OA
HETATM   41  N3  UNL     1      17.747  38.771 103.236  1.00  0.00    -0.301 N 
ATOM     42  H3  UNL     1      17.096  38.480 102.506  1.00  0.00     0.171 HD
BRANCH  41  43
HETATM   43  C6  UNL     1      17.478  38.352 104.550  1.00  0.00     0.036 A 
HETATM   44  C7  UNL     1      18.000  37.243 105.166  1.00  0.00     0.029 A 
HETATM   45  C8  UNL     1      17.628  36.936 106.472  1.00  0.00     0.002 A 
HETATM   46  C9  UNL     1      16.740  37.728 107.169  1.00  0.00     0.000 A 
HETATM   47  C10 UNL     1      16.223  38.834 106.549  1.00  0.00     0.002 A 
HETATM   48  C11 UNL     1      16.581  39.137 105.279  1.00  0.00     0.029 A 
ENDBRANCH  41  43
ENDBRANCH  38  39
ENDBRANCH   3  38
TORSDOF 14
ENDMDL
