MODEL 1
REMARK VINA RESULT: -9.836655188      0.000      0.000
REMARK  14 active torsions:
REMARK  status: ('A' for Active; 'I' for Inactive)
REMARK       I    between atoms: C2_2  and  N1_4 
REMARK    1  A    between atoms: N1_4  and  C3_6 
REMARK    2  A    between atoms: N2_8  and  O2_10 
REMARK    3  A    between atoms: O2_10  and  C5_11 
REMARK       I    between atoms: C5_11  and  N3_13 
REMARK    4  A    between atoms: N3_13  and  C6_15 
REMARK    5  A    between atoms: C12_22  and  C13_23 
REMARK    6  A    between atoms: C13_23  and  O5_24 
REMARK    7  A    between atoms: C14_26  and  O6_27 
REMARK    8  A    between atoms: O6_27  and  C15_28 
REMARK    9  A    between atoms: C16_30  and  C17_31 
REMARK   10  A    between atoms: C17_31  and  O8_32 
REMARK   11  A    between atoms: C18_34  and  O9_35 
REMARK   12  A    between atoms: C19_37  and  O10_38 
REMARK   13  A    between atoms: C20_40  and  N4_41 
REMARK       I    between atoms: N4_41  and  C21_43 
REMARK   14  A    between atoms: C23_46  and  O12_47 
ROOT
HETATM    1  C3  UNL     1      19.373  43.590 100.031  1.00  0.00     0.192 C 
HETATM    2  C4  UNL     1      18.895  42.232 100.392  1.00  0.00     0.165 C 
HETATM    3  N2  UNL     1      19.204  41.753 101.539  1.00  0.00    -0.236 N 
ATOM      4  H2  UNL     1      19.770  42.312 102.177  1.00  0.00     0.197 HD
HETATM    5  O4  UNL     1      18.143  41.526  99.505  1.00  0.00    -0.326 OA
HETATM    6  C12 UNL     1      18.553  41.436  98.131  1.00  0.00     0.185 C 
HETATM    7  C14 UNL     1      19.632  42.388  97.855  1.00  0.00     0.187 C 
HETATM    8  C23 UNL     1      19.241  43.744  98.537  1.00  0.00     0.180 C 
ENDROOT
BRANCH   7   9
HETATM    9  O6  UNL     1      19.903  42.745  96.566  1.00  0.00    -0.348 OA
BRANCH   9  10
HETATM   10  C15 UNL     1      21.214  42.834  96.188  1.00  0.00     0.286 C 
HETATM   11  O7  UNL     1      21.457  44.147  95.662  1.00  0.00    -0.349 OA
HETATM   12  C16 UNL     1      22.802  44.355  95.502  1.00  0.00     0.179 C 
HETATM   13  C18 UNL     1      23.507  43.322  94.677  1.00  0.00     0.180 C 
HETATM   14  C19 UNL     1      23.031  41.934  94.866  1.00  0.00     0.177 C 
HETATM   15  C20 UNL     1      21.517  41.951  95.019  1.00  0.00     0.170 C 
BRANCH  12  16
HETATM   16  C17 UNL     1      22.987  45.691  94.810  1.00  0.00     0.198 C 
BRANCH  16  17
HETATM   17  O8  UNL     1      24.120  46.360  95.288  1.00  0.00    -0.398 OA
ATOM     18  H8  UNL     1      23.923  47.265  95.504  1.00  0.00     0.209 HD
ENDBRANCH  16  17
ENDBRANCH  12  16
BRANCH  13  19
HETATM   19  O9  UNL     1      24.867  43.369  95.071  1.00  0.00    -0.390 OA
ATOM     20  H9  UNL     1      25.110  42.474  95.280  1.00  0.00     0.210 HD
ENDBRANCH  13  19
BRANCH  14  21
HETATM   21  O10 UNL     1      23.415  41.127  93.802  1.00  0.00    -0.391 OA
ATOM     22  H10 UNL     1      24.138  40.561  94.047  1.00  0.00     0.210 HD
ENDBRANCH  14  21
BRANCH  15  23
HETATM   23  N4  UNL     1      20.978  40.621  95.088  1.00  0.00    -0.349 N 
HETATM   24  C21 UNL     1      20.050  40.108  94.154  1.00  0.00     0.214 C 
HETATM   25  C22 UNL     1      19.525  38.731  94.270  1.00  0.00     0.117 C 
HETATM   26  O11 UNL     1      19.702  40.889  93.227  1.00  0.00    -0.274 OA
ATOM     27  H4  UNL     1      21.281  40.015  95.850  1.00  0.00     0.163 HD
ENDBRANCH  15  23
ENDBRANCH   9  10
ENDBRANCH   7   9
BRANCH   6  28
HETATM   28  C13 UNL     1      18.962  39.977  97.951  1.00  0.00     0.199 C 
BRANCH  28  29
HETATM   29  O5  UNL     1      20.356  39.891  97.785  1.00  0.00    -0.398 OA
ATOM     30  H5  UNL     1      20.782  39.895  98.634  1.00  0.00     0.209 HD
ENDBRANCH  28  29
ENDBRANCH   6  28
BRANCH   8  31
HETATM   31  O12 UNL     1      19.999  44.776  98.030  1.00  0.00    -0.390 OA
ATOM     32  H12 UNL     1      19.476  45.496  97.699  1.00  0.00     0.210 HD
ENDBRANCH   8  31
BRANCH   1  33
HETATM   33  N1  UNL     1      18.535  44.588 100.669  1.00  0.00    -0.347 N 
HETATM   34  C2  UNL     1      18.743  44.975 102.018  1.00  0.00     0.214 C 
HETATM   35  C1  UNL     1      17.898  46.001 102.706  1.00  0.00     0.117 C 
HETATM   36  O1  UNL     1      19.675  44.430 102.656  1.00  0.00    -0.274 OA
ATOM     37  H1  UNL     1      17.782  45.021 100.135  1.00  0.00     0.163 HD
ENDBRANCH   1  33
BRANCH   3  38
HETATM   38  O2  UNL     1      18.794  40.516 101.925  1.00  0.00    -0.179 OA
BRANCH  38  39
HETATM   39  C5  UNL     1      17.548  40.334 102.538  1.00  0.00     0.387 C 
HETATM   40  O3  UNL     1      17.577  39.953 103.726  1.00  0.00    -0.236 OA
HETATM   41  N3  UNL     1      16.344  40.567 101.858  1.00  0.00    -0.301 N 
ATOM     42  H3  UNL     1      16.403  40.874 100.886  1.00  0.00     0.171 HD
BRANCH  41  43
HETATM   43  C6  UNL     1      15.063  40.409 102.411  1.00  0.00     0.036 A 
HETATM   44  C7  UNL     1      14.433  41.291 103.251  1.00  0.00     0.029 A 
HETATM   45  C8  UNL     1      13.163  40.995 103.743  1.00  0.00     0.002 A 
HETATM   46  C9  UNL     1      12.518  39.826 103.400  1.00  0.00     0.000 A 
HETATM   47  C10 UNL     1      13.152  38.950 102.560  1.00  0.00     0.002 A 
HETATM   48  C11 UNL     1      14.385  39.232 102.080  1.00  0.00     0.029 A 
ENDBRANCH  41  43
ENDBRANCH  38  39
ENDBRANCH   3  38
TORSDOF 14
ENDMDL
