MODEL 2
REMARK VINA RESULT: -7.867699470      0.037      1.364
REMARK  4 active torsions:
REMARK  status: ('A' for Active; 'I' for Inactive)
REMARK    1  A    between atoms: N1_1  and  C1_5 
REMARK    2  A    between atoms: C1_5  and  C2_6 
REMARK    3  A    between atoms: C1_5  and  C9_13 
REMARK    4  A    between atoms: C2_6  and  C3_7 
ROOT
HETATM    1  C1  UNL     1      30.115  10.047  48.042  1.00  0.00     0.287 C 
ENDROOT
BRANCH   1   2
HETATM    2  N1  UNL     1      30.789   8.844  48.413  1.00  0.00    -0.065 N 
ATOM      3  H13 UNL     1      31.259   8.960  49.311  1.00  0.00     0.275 HD
ATOM      4  H12 UNL     1      30.115   8.119  48.662  1.00  0.00     0.275 HD
ATOM      5  H11 UNL     1      31.443   8.497  47.710  1.00  0.00     0.275 HD
ENDBRANCH   1   2
BRANCH   1   6
HETATM    6  C2  UNL     1      28.643  10.047  48.345  1.00  0.00     0.082 C 
BRANCH   6   7
HETATM    7  C3  UNL     1      28.022   8.736  48.348  1.00  0.00    -0.056 A 
HETATM    8  C4  UNL     1      27.411   8.216  49.463  1.00  0.00     0.007 A 
HETATM    9  C5  UNL     1      26.828   6.955  49.418  1.00  0.00     0.001 A 
HETATM   10  C6  UNL     1      26.851   6.210  48.269  1.00  0.00     0.000 A 
HETATM   11  C7  UNL     1      27.457   6.715  47.147  1.00  0.00     0.001 A 
HETATM   12  C8  UNL     1      28.033   7.971  47.206  1.00  0.00     0.007 A 
ENDBRANCH   6   7
ENDBRANCH   1   6
BRANCH   1  13
HETATM   13  C9  UNL     1      30.808  11.196  48.674  1.00  0.00     0.204 C 
HETATM   14  O1  UNL     1      30.429  12.391  48.452  1.00  0.00    -0.646 OA
HETATM   15  O2  UNL     1      31.878  10.989  49.518  1.00  0.00    -0.646 OA
ENDBRANCH   1  13
TORSDOF 4
ENDMDL
