MODEL 7
REMARK VINA RESULT: -4.779182775      3.129      4.760
REMARK  4 active torsions:
REMARK  status: ('A' for Active; 'I' for Inactive)
REMARK    1  A    between atoms: N1_1  and  C1_5 
REMARK    2  A    between atoms: C1_5  and  C2_6 
REMARK    3  A    between atoms: C1_5  and  C9_13 
REMARK    4  A    between atoms: C2_6  and  C3_7 
ROOT
HETATM    1  C1  UNL     1      27.889   6.931  47.937  1.00  0.00     0.287 C 
ENDROOT
BRANCH   1   2
HETATM    2  N1  UNL     1      27.365   5.897  47.104  1.00  0.00    -0.065 N 
ATOM      3  H13 UNL     1      26.348   5.966  47.045  1.00  0.00     0.275 HD
ATOM      4  H12 UNL     1      27.607   6.067  46.128  1.00  0.00     0.275 HD
ATOM      5  H11 UNL     1      27.642   4.955  47.382  1.00  0.00     0.275 HD
ENDBRANCH   1   2
BRANCH   1   6
HETATM    6  C2  UNL     1      27.883   8.294  47.304  1.00  0.00     0.082 C 
BRANCH   6   7
HETATM    7  C3  UNL     1      28.870   9.216  47.835  1.00  0.00    -0.056 A 
HETATM    8  C4  UNL     1      30.195   8.879  47.963  1.00  0.00     0.007 A 
HETATM    9  C5  UNL     1      31.104   9.796  48.476  1.00  0.00     0.001 A 
HETATM   10  C6  UNL     1      30.700  11.047  48.862  1.00  0.00     0.000 A 
HETATM   11  C7  UNL     1      29.380  11.399  48.740  1.00  0.00     0.001 A 
HETATM   12  C8  UNL     1      28.486  10.476  48.228  1.00  0.00     0.007 A 
ENDBRANCH   6   7
ENDBRANCH   1   6
BRANCH   1  13
HETATM   13  C9  UNL     1      27.158   6.920  49.229  1.00  0.00     0.204 C 
HETATM   14  O1  UNL     1      27.667   7.442  50.272  1.00  0.00    -0.646 OA
HETATM   15  O2  UNL     1      25.910   6.344  49.320  1.00  0.00    -0.646 OA
ENDBRANCH   1  13
TORSDOF 4
ENDMDL
