MODEL 6
REMARK VINA RESULT: -4.864730673      3.149      4.807
REMARK  4 active torsions:
REMARK  status: ('A' for Active; 'I' for Inactive)
REMARK    1  A    between atoms: N1_1  and  C1_5 
REMARK    2  A    between atoms: C1_5  and  C2_6 
REMARK    3  A    between atoms: C1_5  and  C9_13 
REMARK    4  A    between atoms: C2_6  and  C3_7 
ROOT
HETATM    1  C1  UNL     1      27.809   6.956  47.998  1.00  0.00     0.287 C 
ENDROOT
BRANCH   1   2
HETATM    2  N1  UNL     1      27.367   5.917  47.125  1.00  0.00    -0.065 N 
ATOM      3  H13 UNL     1      27.023   6.309  46.248  1.00  0.00     0.275 HD
ATOM      4  H12 UNL     1      28.162   5.381  46.776  1.00  0.00     0.275 HD
ATOM      5  H11 UNL     1      26.670   5.295  47.536  1.00  0.00     0.275 HD
ENDBRANCH   1   2
BRANCH   1   6
HETATM    6  C2  UNL     1      27.740   8.334  47.401  1.00  0.00     0.082 C 
BRANCH   6   7
HETATM    7  C3  UNL     1      28.743   9.261  47.889  1.00  0.00    -0.056 A 
HETATM    8  C4  UNL     1      28.437  10.552  48.246  1.00  0.00     0.007 A 
HETATM    9  C5  UNL     1      29.432  11.405  48.709  1.00  0.00     0.001 A 
HETATM   10  C6  UNL     1      30.729  10.978  48.818  1.00  0.00     0.000 A 
HETATM   11  C7  UNL     1      31.051   9.692  48.466  1.00  0.00     0.001 A 
HETATM   12  C8  UNL     1      30.050   8.854  48.006  1.00  0.00     0.007 A 
ENDBRANCH   6   7
ENDBRANCH   1   6
BRANCH   1  13
HETATM   13  C9  UNL     1      27.048   6.869  49.269  1.00  0.00     0.204 C 
HETATM   14  O1  UNL     1      25.902   6.317  49.308  1.00  0.00    -0.646 OA
HETATM   15  O2  UNL     1      27.572   7.386  50.434  1.00  0.00    -0.646 OA
ENDBRANCH   1  13
TORSDOF 4
ENDMDL
