MODEL 4
REMARK VINA RESULT: -6.463140728      1.168      1.792
REMARK  4 active torsions:
REMARK  status: ('A' for Active; 'I' for Inactive)
REMARK    1  A    between atoms: N1_1  and  C1_5 
REMARK    2  A    between atoms: C1_5  and  C2_6 
REMARK    3  A    between atoms: C1_5  and  C9_13 
REMARK    4  A    between atoms: C2_6  and  C3_7 
ROOT
HETATM    1  C1  UNL     1      29.501  10.425  48.813  1.00  0.00     0.287 C 
ENDROOT
BRANCH   1   2
HETATM    2  N1  UNL     1      28.479  11.259  48.268  1.00  0.00    -0.065 N 
ATOM      3  H13 UNL     1      28.488  12.176  48.716  1.00  0.00     0.275 HD
ATOM      4  H12 UNL     1      28.711  11.531  47.312  1.00  0.00     0.275 HD
ATOM      5  H11 UNL     1      27.543  10.852  48.306  1.00  0.00     0.275 HD
ENDBRANCH   1   2
BRANCH   1   6
HETATM    6  C2  UNL     1      29.640   9.094  48.129  1.00  0.00     0.082 C 
BRANCH   6   7
HETATM    7  C3  UNL     1      28.570   8.154  48.402  1.00  0.00    -0.056 A 
HETATM    8  C4  UNL     1      27.965   8.068  49.633  1.00  0.00     0.007 A 
HETATM    9  C5  UNL     1      26.943   7.151  49.848  1.00  0.00     0.001 A 
HETATM   10  C6  UNL     1      26.519   6.322  48.844  1.00  0.00     0.000 A 
HETATM   11  C7  UNL     1      27.113   6.395  47.609  1.00  0.00     0.001 A 
HETATM   12  C8  UNL     1      28.130   7.312  47.410  1.00  0.00     0.007 A 
ENDBRANCH   6   7
ENDBRANCH   1   6
BRANCH   1  13
HETATM   13  C9  UNL     1      30.780  11.178  48.816  1.00  0.00     0.204 C 
HETATM   14  O1  UNL     1      30.818  12.403  48.473  1.00  0.00    -0.646 OA
HETATM   15  O2  UNL     1      31.953  10.561  49.194  1.00  0.00    -0.646 OA
ENDBRANCH   1  13
TORSDOF 4
ENDMDL
