MODEL 1
REMARK VINA RESULT: -7.890076333      0.000      0.000
REMARK  4 active torsions:
REMARK  status: ('A' for Active; 'I' for Inactive)
REMARK    1  A    between atoms: N1_1  and  C1_5 
REMARK    2  A    between atoms: C1_5  and  C2_6 
REMARK    3  A    between atoms: C1_5  and  C9_13 
REMARK    4  A    between atoms: C2_6  and  C3_7 
ROOT
HETATM    1  C1  UNL     1      30.117  10.037  48.060  1.00  0.00     0.287 C 
ENDROOT
BRANCH   1   2
HETATM    2  N1  UNL     1      30.815   8.840  48.404  1.00  0.00    -0.065 N 
ATOM      3  H13 UNL     1      31.227   8.921  49.333  1.00  0.00     0.275 HD
ATOM      4  H12 UNL     1      30.157   8.079  48.571  1.00  0.00     0.275 HD
ATOM      5  H11 UNL     1      31.522   8.558  47.723  1.00  0.00     0.275 HD
ENDBRANCH   1   2
BRANCH   1   6
HETATM    6  C2  UNL     1      28.654  10.017  48.402  1.00  0.00     0.082 C 
BRANCH   6   7
HETATM    7  C3  UNL     1      28.032   8.707  48.341  1.00  0.00    -0.056 A 
HETATM    8  C4  UNL     1      28.045   7.942  47.200  1.00  0.00     0.007 A 
HETATM    9  C5  UNL     1      27.436   6.692  47.189  1.00  0.00     0.001 A 
HETATM   10  C6  UNL     1      26.816   6.202  48.308  1.00  0.00     0.000 A 
HETATM   11  C7  UNL     1      26.795   6.954  49.455  1.00  0.00     0.001 A 
HETATM   12  C8  UNL     1      27.405   8.196  49.451  1.00  0.00     0.007 A 
ENDBRANCH   6   7
ENDBRANCH   1   6
BRANCH   1  13
HETATM   13  C9  UNL     1      30.812  11.190  48.684  1.00  0.00     0.204 C 
HETATM   14  O1  UNL     1      30.440  12.384  48.447  1.00  0.00    -0.646 OA
HETATM   15  O2  UNL     1      31.876  10.987  49.536  1.00  0.00    -0.646 OA
ENDBRANCH   1  13
TORSDOF 4
ENDMDL
