MODEL 3
REMARK VINA RESULT: -6.504289918      1.176      1.204
REMARK  4 active torsions:
REMARK  status: ('A' for Active; 'I' for Inactive)
REMARK    1  A    between atoms: N1_1  and  C1_5 
REMARK    2  A    between atoms: C1_5  and  C2_6 
REMARK    3  A    between atoms: C1_5  and  C9_13 
REMARK    4  A    between atoms: C2_6  and  C3_7 
ROOT
HETATM    1  C1  UNL     1      29.491  10.428  48.783  1.00  0.00     0.287 C 
ENDROOT
BRANCH   1   2
HETATM    2  N1  UNL     1      28.478  11.308  48.297  1.00  0.00    -0.065 N 
ATOM      3  H13 UNL     1      28.890  12.180  47.964  1.00  0.00     0.275 HD
ATOM      4  H12 UNL     1      28.088  10.956  47.422  1.00  0.00     0.275 HD
ATOM      5  H11 UNL     1      27.733  11.500  48.969  1.00  0.00     0.275 HD
ENDBRANCH   1   2
BRANCH   1   6
HETATM    6  C2  UNL     1      29.608   9.141  48.016  1.00  0.00     0.082 C 
BRANCH   6   7
HETATM    7  C3  UNL     1      28.559   8.175  48.283  1.00  0.00    -0.056 A 
HETATM    8  C4  UNL     1      28.083   7.323  47.316  1.00  0.00     0.007 A 
HETATM    9  C5  UNL     1      27.076   6.414  47.619  1.00  0.00     0.001 A 
HETATM   10  C6  UNL     1      26.542   6.350  48.878  1.00  0.00     0.000 A 
HETATM   11  C7  UNL     1      27.006   7.194  49.855  1.00  0.00     0.001 A 
HETATM   12  C8  UNL     1      28.009   8.094  49.539  1.00  0.00     0.007 A 
ENDBRANCH   6   7
ENDBRANCH   1   6
BRANCH   1  13
HETATM   13  C9  UNL     1      30.780  11.162  48.826  1.00  0.00     0.204 C 
HETATM   14  O1  UNL     1      30.843  12.392  48.507  1.00  0.00    -0.646 OA
HETATM   15  O2  UNL     1      31.937  10.521  49.215  1.00  0.00    -0.646 OA
ENDBRANCH   1  13
TORSDOF 4
ENDMDL
