MODEL 5
REMARK VINA RESULT: -6.239542286      1.317      2.026
REMARK  4 active torsions:
REMARK  status: ('A' for Active; 'I' for Inactive)
REMARK    1  A    between atoms: N1_1  and  C1_5 
REMARK    2  A    between atoms: C1_5  and  C2_6 
REMARK    3  A    between atoms: C1_5  and  C9_13 
REMARK    4  A    between atoms: C2_6  and  C3_7 
ROOT
HETATM    1  C1  UNL     1      29.672  10.530  48.579  1.00  0.00     0.287 C 
ENDROOT
BRANCH   1   2
HETATM    2  N1  UNL     1      29.657  11.929  48.296  1.00  0.00    -0.065 N 
ATOM      3  H13 UNL     1      28.736  12.216  47.964  1.00  0.00     0.275 HD
ATOM      4  H12 UNL     1      29.705  12.469  49.161  1.00  0.00     0.275 HD
ATOM      5  H11 UNL     1      30.382  12.232  47.645  1.00  0.00     0.275 HD
ENDBRANCH   1   2
BRANCH   1   6
HETATM    6  C2  UNL     1      29.065   9.676  47.500  1.00  0.00     0.082 C 
BRANCH   6   7
HETATM    7  C3  UNL     1      28.238   8.585  47.980  1.00  0.00    -0.056 A 
HETATM    8  C4  UNL     1      27.638   8.608  49.215  1.00  0.00     0.007 A 
HETATM    9  C5  UNL     1      26.853   7.539  49.632  1.00  0.00     0.001 A 
HETATM   10  C6  UNL     1      26.663   6.449  48.824  1.00  0.00     0.000 A 
HETATM   11  C7  UNL     1      27.256   6.412  47.587  1.00  0.00     0.001 A 
HETATM   12  C8  UNL     1      28.034   7.482  47.186  1.00  0.00     0.007 A 
ENDBRANCH   6   7
ENDBRANCH   1   6
BRANCH   1  13
HETATM   13  C9  UNL     1      31.065  10.120  48.887  1.00  0.00     0.204 C 
HETATM   14  O1  UNL     1      31.458   8.928  48.675  1.00  0.00    -0.646 OA
HETATM   15  O2  UNL     1      31.961  11.029  49.409  1.00  0.00    -0.646 OA
ENDBRANCH   1  13
TORSDOF 4
ENDMDL
