MODEL 9
REMARK VINA RESULT: -4.181876085      3.276      4.982
REMARK  4 active torsions:
REMARK  status: ('A' for Active; 'I' for Inactive)
REMARK    1  A    between atoms: N1_1  and  C1_5 
REMARK    2  A    between atoms: C1_5  and  C2_6 
REMARK    3  A    between atoms: C1_5  and  C9_13 
REMARK    4  A    between atoms: C2_6  and  C3_7 
ROOT
HETATM    1  C1  UNL     1      26.874   8.233  49.091  1.00  0.00     0.287 C 
ENDROOT
BRANCH   1   2
HETATM    2  N1  UNL     1      27.652   8.296  50.287  1.00  0.00    -0.065 N 
ATOM      3  H13 UNL     1      28.646   8.340  50.064  1.00  0.00     0.275 HD
ATOM      4  H12 UNL     1      27.536   9.202  50.741  1.00  0.00     0.275 HD
ATOM      5  H11 UNL     1      27.466   7.540  50.947  1.00  0.00     0.275 HD
ENDBRANCH   1   2
BRANCH   1   6
HETATM    6  C2  UNL     1      27.475   8.969  47.926  1.00  0.00     0.082 C 
BRANCH   6   7
HETATM    7  C3  UNL     1      28.752   9.602  48.198  1.00  0.00    -0.056 A 
HETATM    8  C4  UNL     1      28.860  10.939  48.492  1.00  0.00     0.007 A 
HETATM    9  C5  UNL     1      30.105  11.502  48.746  1.00  0.00     0.001 A 
HETATM   10  C6  UNL     1      31.242  10.738  48.710  1.00  0.00     0.000 A 
HETATM   11  C7  UNL     1      31.151   9.401  48.419  1.00  0.00     0.001 A 
HETATM   12  C8  UNL     1      29.905   8.855  48.167  1.00  0.00     0.007 A 
ENDBRANCH   6   7
ENDBRANCH   1   6
BRANCH   1  13
HETATM   13  C9  UNL     1      26.612   6.809  48.767  1.00  0.00     0.204 C 
HETATM   14  O1  UNL     1      25.818   6.112  49.476  1.00  0.00    -0.646 OA
HETATM   15  O2  UNL     1      27.226   6.215  47.685  1.00  0.00    -0.646 OA
ENDBRANCH   1  13
TORSDOF 4
ENDMDL
