MODEL 5
REMARK VINA RESULT: -5.426547131      1.394      1.819
REMARK  4 active torsions:
REMARK  status: ('A' for Active; 'I' for Inactive)
REMARK    1  A    between atoms: C2_2  and  C4_4 
REMARK    2  A    between atoms: C4_4  and  C5_5 
REMARK    3  A    between atoms: C5_5  and  N1_6 
REMARK    4  A    between atoms: C5_5  and  C6_10 
ROOT
HETATM    1  C5  UNL     1      34.831  -2.532  38.596  1.00  0.00     0.283 C 
ENDROOT
BRANCH   1   2
HETATM    2  C4  UNL     1      34.841  -1.442  39.646  1.00  0.00     0.048 C 
BRANCH   2   3
HETATM    3  C2  UNL     1      36.245  -0.934  39.782  1.00  0.00    -0.020 C 
HETATM    4  C1  UNL     1      37.046  -1.684  40.812  1.00  0.00     0.009 C 
HETATM    5  C3  UNL     1      36.278   0.540  40.141  1.00  0.00     0.009 C 
ENDBRANCH   2   3
ENDBRANCH   1   2
BRANCH   1   6
HETATM    6  N1  UNL     1      35.833  -2.298  37.581  1.00  0.00    -0.065 N 
ATOM      7  H13 UNL     1      35.461  -2.460  36.645  1.00  0.00     0.275 HD
ATOM      8  H12 UNL     1      36.051  -1.306  37.494  1.00  0.00     0.275 HD
ATOM      9  H11 UNL     1      36.672  -2.852  37.751  1.00  0.00     0.275 HD
ENDBRANCH   1   6
BRANCH   1  10
HETATM   10  C6  UNL     1      33.494  -2.701  37.977  1.00  0.00     0.204 C 
HETATM   11  O1  UNL     1      33.402  -2.930  36.744  1.00  0.00    -0.646 OA
HETATM   12  O2  UNL     1      32.317  -2.614  38.708  1.00  0.00    -0.646 OA
ENDBRANCH   1  10
TORSDOF 4
ENDMDL
