MODEL 15
REMARK VINA RESULT: -4.037489805      7.631      8.344
REMARK  4 active torsions:
REMARK  status: ('A' for Active; 'I' for Inactive)
REMARK    1  A    between atoms: C2_2  and  C4_4 
REMARK    2  A    between atoms: C4_4  and  C5_5 
REMARK    3  A    between atoms: C5_5  and  N1_6 
REMARK    4  A    between atoms: C5_5  and  C6_10 
ROOT
HETATM    1  C5  UNL     1      37.001  -3.879  31.879  1.00  0.00     0.283 C 
ENDROOT
BRANCH   1   2
HETATM    2  C4  UNL     1      37.913  -2.712  32.193  1.00  0.00     0.048 C 
BRANCH   2   3
HETATM    3  C2  UNL     1      38.938  -2.612  31.104  1.00  0.00    -0.020 C 
HETATM    4  C1  UNL     1      40.279  -3.165  31.505  1.00  0.00     0.009 C 
HETATM    5  C3  UNL     1      39.137  -1.178  30.648  1.00  0.00     0.009 C 
ENDBRANCH   2   3
ENDBRANCH   1   2
BRANCH   1   6
HETATM    6  N1  UNL     1      37.139  -4.303  30.505  1.00  0.00    -0.065 N 
ATOM      7  H13 UNL     1      36.263  -4.677  30.139  1.00  0.00     0.275 HD
ATOM      8  H12 UNL     1      37.245  -3.507  29.877  1.00  0.00     0.275 HD
ATOM      9  H11 UNL     1      37.903  -4.970  30.396  1.00  0.00     0.275 HD
ENDBRANCH   1   6
BRANCH   1  10
HETATM   10  C6  UNL     1      35.582  -3.579  32.190  1.00  0.00     0.204 C 
HETATM   11  O1  UNL     1      34.949  -4.318  32.987  1.00  0.00    -0.646 OA
HETATM   12  O2  UNL     1      34.906  -2.503  31.631  1.00  0.00    -0.646 OA
ENDBRANCH   1  10
TORSDOF 4
ENDMDL
