MODEL 1
REMARK VINA RESULT: -6.274702814      0.000      0.000
REMARK  4 active torsions:
REMARK  status: ('A' for Active; 'I' for Inactive)
REMARK    1  A    between atoms: C2_2  and  C4_4 
REMARK    2  A    between atoms: C4_4  and  C5_5 
REMARK    3  A    between atoms: C5_5  and  N1_6 
REMARK    4  A    between atoms: C5_5  and  C6_10 
ROOT
HETATM    1  C5  UNL     1      33.911  -1.696  38.525  1.00  0.00     0.283 C 
ENDROOT
BRANCH   1   2
HETATM    2  C4  UNL     1      35.336  -2.062  38.883  1.00  0.00     0.048 C 
BRANCH   2   3
HETATM    3  C2  UNL     1      35.698  -1.352  40.153  1.00  0.00    -0.020 C 
HETATM    4  C1  UNL     1      36.336  -0.010  39.916  1.00  0.00     0.009 C 
HETATM    5  C3  UNL     1      36.640  -2.178  41.010  1.00  0.00     0.009 C 
ENDBRANCH   2   3
ENDBRANCH   1   2
BRANCH   1   6
HETATM    6  N1  UNL     1      33.118  -1.443  39.706  1.00  0.00    -0.065 N 
ATOM      7  H13 UNL     1      33.331  -2.108  40.449  1.00  0.00     0.275 HD
ATOM      8  H12 UNL     1      33.409  -0.585  40.175  1.00  0.00     0.275 HD
ATOM      9  H11 UNL     1      32.121  -1.432  39.490  1.00  0.00     0.275 HD
ENDBRANCH   1   6
BRANCH   1  10
HETATM   10  C6  UNL     1      33.265  -2.725  37.675  1.00  0.00     0.204 C 
HETATM   11  O1  UNL     1      33.701  -2.940  36.516  1.00  0.00    -0.646 OA
HETATM   12  O2  UNL     1      32.180  -3.475  38.107  1.00  0.00    -0.646 OA
ENDBRANCH   1  10
TORSDOF 4
ENDMDL
