MODEL 4
REMARK VINA RESULT: -5.756073433      1.050      1.531
REMARK  4 active torsions:
REMARK  status: ('A' for Active; 'I' for Inactive)
REMARK    1  A    between atoms: C2_2  and  C4_4 
REMARK    2  A    between atoms: C4_4  and  C5_5 
REMARK    3  A    between atoms: C5_5  and  N1_6 
REMARK    4  A    between atoms: C5_5  and  C6_10 
ROOT
HETATM    1  C5  UNL     1      34.206  -1.824  38.619  1.00  0.00     0.283 C 
ENDROOT
BRANCH   1   2
HETATM    2  C4  UNL     1      35.503  -2.561  38.879  1.00  0.00     0.048 C 
BRANCH   2   3
HETATM    3  C2  UNL     1      36.575  -1.547  39.142  1.00  0.00    -0.020 C 
HETATM    4  C1  UNL     1      37.747  -1.673  38.207  1.00  0.00     0.009 C 
HETATM    5  C3  UNL     1      37.095  -1.635  40.565  1.00  0.00     0.009 C 
ENDBRANCH   2   3
ENDBRANCH   1   2
BRANCH   1   6
HETATM    6  N1  UNL     1      33.588  -1.392  39.852  1.00  0.00    -0.065 N 
ATOM      7  H13 UNL     1      32.843  -0.717  39.680  1.00  0.00     0.275 HD
ATOM      8  H12 UNL     1      33.032  -2.137  40.272  1.00  0.00     0.275 HD
ATOM      9  H11 UNL     1      34.279  -1.026  40.507  1.00  0.00     0.275 HD
ENDBRANCH   1   6
BRANCH   1  10
HETATM   10  C6  UNL     1      33.255  -2.630  37.816  1.00  0.00     0.204 C 
HETATM   11  O1  UNL     1      32.172  -3.009  38.328  1.00  0.00    -0.646 OA
HETATM   12  O2  UNL     1      33.510  -2.992  36.500  1.00  0.00    -0.646 OA
ENDBRANCH   1  10
TORSDOF 4
ENDMDL
