MODEL 5
REMARK VINA RESULT: -7.354314295      5.159      8.630
REMARK  5 active torsions:
REMARK  status: ('A' for Active; 'I' for Inactive)
REMARK       I    between atoms: N1_2  and  C2_4 
REMARK    1  A    between atoms: C2_4  and  C3_6 
REMARK    2  A    between atoms: C3_6  and  C4_7 
REMARK    3  A    between atoms: C3_6  and  N2_19 
REMARK    4  A    between atoms: C4_7  and  C5_8 
REMARK       I    between atoms: N2_19  and  C11_21 
REMARK       I    between atoms: C11_21  and  N3_23 
REMARK    5  A    between atoms: N3_23  and  C12_25 
ROOT
HETATM    1  C3  UNL     1      32.818  50.704  47.771  1.00  0.00     0.182 C 
ENDROOT
BRANCH   1   2
HETATM    2  C2  UNL     1      34.022  51.121  47.019  1.00  0.00     0.240 C 
HETATM    3  N1  UNL     1      35.344  50.740  47.376  1.00  0.00    -0.364 N 
HETATM    4  C1  UNL     1      36.502  51.178  46.605  1.00  0.00     0.149 C 
ATOM      5  H1  UNL     1      35.487  50.145  48.192  1.00  0.00     0.161 HD
HETATM    6  O1  UNL     1      33.887  51.851  46.011  1.00  0.00    -0.271 OA
ENDBRANCH   1   2
BRANCH   1   7
HETATM    7  C4  UNL     1      33.010  51.144  49.212  1.00  0.00     0.080 C 
BRANCH   7   8
HETATM    8  C5  UNL     1      32.461  52.491  49.455  1.00  0.00     0.028 A 
HETATM    9  C6  UNL     1      31.111  52.699  49.602  1.00  0.00     0.167 A 
HETATM   10  F1  UNL     1      30.237  51.657  49.525  1.00  0.00    -0.202 F 
HETATM   11  C7  UNL     1      30.661  53.998  49.829  1.00  0.00     0.197 A 
HETATM   12  F2  UNL     1      29.326  54.168  49.969  1.00  0.00    -0.199 F 
HETATM   13  C8  UNL     1      31.515  55.069  49.912  1.00  0.00     0.199 A 
HETATM   14  F3  UNL     1      31.051  56.342  50.138  1.00  0.00    -0.199 F 
HETATM   15  C9  UNL     1      32.866  54.850  49.765  1.00  0.00     0.197 A 
HETATM   16  F4  UNL     1      33.729  55.885  49.842  1.00  0.00    -0.199 F 
HETATM   17  C10 UNL     1      33.317  53.565  49.539  1.00  0.00     0.167 A 
HETATM   18  F5  UNL     1      34.654  53.374  49.396  1.00  0.00    -0.202 F 
ENDBRANCH   7   8
ENDBRANCH   1   7
BRANCH   1  19
HETATM   19  N2  UNL     1      32.688  49.270  47.668  1.00  0.00    -0.329 N 
HETATM   20  C11 UNL     1      31.470  48.592  47.956  1.00  0.00     0.322 C 
HETATM   21  O2  UNL     1      30.494  49.293  48.307  1.00  0.00    -0.247 OA
HETATM   22  N3  UNL     1      31.331  47.205  47.861  1.00  0.00    -0.288 N 
ATOM     23  H3  UNL     1      32.131  46.642  47.573  1.00  0.00     0.172 HD
ATOM     24  H2  UNL     1      33.498  48.722  47.378  1.00  0.00     0.165 HD
BRANCH  22  25
HETATM   25  C12 UNL     1      30.082  46.552  48.162  1.00  0.00     0.169 A 
HETATM   26  N4  UNL     1      29.771  45.784  49.200  1.00  0.00    -0.278 N 
HETATM   27  N5  UNL     1      28.608  45.299  49.289  1.00  0.00    -0.285 N 
ATOM     28  H4  UNL     1      30.466  45.588  49.920  1.00  0.00     0.189 HD
HETATM   29  C13 UNL     1      27.706  45.557  48.348  1.00  0.00     0.141 A 
ATOM     30  H5  UNL     1      28.362  44.708  50.083  1.00  0.00     0.188 HD
HETATM   31  S1  UNL     1      25.993  44.981  48.260  1.00  0.00    -0.024 SA
HETATM   32  S2  UNL     1      28.606  46.555  47.292  1.00  0.00    -0.025 SA
ENDBRANCH  22  25
ENDBRANCH   1  19
TORSDOF 5
ENDMDL
