MODEL 1
REMARK VINA RESULT: -7.527340495      0.000      0.000
REMARK  5 active torsions:
REMARK  status: ('A' for Active; 'I' for Inactive)
REMARK       I    between atoms: N1_2  and  C2_4 
REMARK    1  A    between atoms: C2_4  and  C3_6 
REMARK    2  A    between atoms: C3_6  and  C4_7 
REMARK    3  A    between atoms: C3_6  and  N2_19 
REMARK    4  A    between atoms: C4_7  and  C5_8 
REMARK       I    between atoms: N2_19  and  C11_21 
REMARK       I    between atoms: C11_21  and  N3_23 
REMARK    5  A    between atoms: N3_23  and  C12_25 
ROOT
HETATM    1  C3  UNL     1      26.504  45.540  47.709  1.00  0.00     0.182 C 
ENDROOT
BRANCH   1   2
HETATM    2  C2  UNL     1      25.948  44.337  48.365  1.00  0.00     0.240 C 
HETATM    3  N1  UNL     1      26.747  43.276  48.872  1.00  0.00    -0.364 N 
HETATM    4  C1  UNL     1      26.153  42.107  49.510  1.00  0.00     0.149 C 
ATOM      5  H1  UNL     1      27.762  43.334  48.787  1.00  0.00     0.161 HD
HETATM    6  O1  UNL     1      24.706  44.230  48.488  1.00  0.00    -0.271 OA
ENDBRANCH   1   2
BRANCH   1   7
HETATM    7  C4  UNL     1      25.960  45.574  46.291  1.00  0.00     0.080 C 
BRANCH   7   8
HETATM    8  C5  UNL     1      25.803  46.952  45.793  1.00  0.00     0.028 A 
HETATM    9  C6  UNL     1      24.822  47.783  46.277  1.00  0.00     0.167 A 
HETATM   10  F1  UNL     1      23.959  47.349  47.238  1.00  0.00    -0.202 F 
HETATM   11  C7  UNL     1      24.731  49.074  45.762  1.00  0.00     0.197 A 
HETATM   12  F2  UNL     1      23.753  49.865  46.260  1.00  0.00    -0.199 F 
HETATM   13  C8  UNL     1      25.584  49.542  44.794  1.00  0.00     0.199 A 
HETATM   14  F3  UNL     1      25.478  50.819  44.299  1.00  0.00    -0.199 F 
HETATM   15  C9  UNL     1      26.564  48.703  44.316  1.00  0.00     0.197 A 
HETATM   16  F4  UNL     1      27.418  49.136  43.364  1.00  0.00    -0.199 F 
HETATM   17  C10 UNL     1      26.659  47.422  44.823  1.00  0.00     0.167 A 
HETATM   18  F5  UNL     1      27.633  46.612  44.335  1.00  0.00    -0.202 F 
ENDBRANCH   7   8
ENDBRANCH   1   7
BRANCH   1  19
HETATM   19  N2  UNL     1      27.944  45.445  47.721  1.00  0.00    -0.329 N 
HETATM   20  C11 UNL     1      28.782  46.584  47.883  1.00  0.00     0.322 C 
HETATM   21  O2  UNL     1      28.220  47.695  48.018  1.00  0.00    -0.247 OA
HETATM   22  N3  UNL     1      30.177  46.506  47.896  1.00  0.00    -0.288 N 
ATOM     23  H3  UNL     1      30.627  45.597  47.787  1.00  0.00     0.172 HD
ATOM     24  H2  UNL     1      28.377  44.529  47.611  1.00  0.00     0.165 HD
BRANCH  22  25
HETATM   25  C12 UNL     1      30.994  47.681  48.060  1.00  0.00     0.169 A 
HETATM   26  N4  UNL     1      32.061  48.059  47.365  1.00  0.00    -0.278 N 
HETATM   27  N5  UNL     1      32.649  49.137  47.663  1.00  0.00    -0.285 N 
ATOM     28  H4  UNL     1      32.403  47.484  46.595  1.00  0.00     0.189 HD
HETATM   29  C13 UNL     1      32.200  49.883  48.666  1.00  0.00     0.141 A 
ATOM     30  H5  UNL     1      33.469  49.434  47.133  1.00  0.00     0.188 HD
HETATM   31  S1  UNL     1      32.869  51.451  49.273  1.00  0.00    -0.024 SA
HETATM   32  S2  UNL     1      30.859  48.961  49.190  1.00  0.00    -0.025 SA
ENDBRANCH  22  25
ENDBRANCH   1  19
TORSDOF 5
ENDMDL
