MODEL 2
REMARK VINA RESULT: -7.474434702      0.073      2.038
REMARK  5 active torsions:
REMARK  status: ('A' for Active; 'I' for Inactive)
REMARK       I    between atoms: N1_2  and  C2_4 
REMARK    1  A    between atoms: C2_4  and  C3_6 
REMARK    2  A    between atoms: C3_6  and  C4_7 
REMARK    3  A    between atoms: C3_6  and  N2_19 
REMARK    4  A    between atoms: C4_7  and  C5_8 
REMARK       I    between atoms: N2_19  and  C11_21 
REMARK       I    between atoms: C11_21  and  N3_23 
REMARK    5  A    between atoms: N3_23  and  C12_25 
ROOT
HETATM    1  C3  UNL     1      26.467  45.556  47.767  1.00  0.00     0.182 C 
ENDROOT
BRANCH   1   2
HETATM    2  C2  UNL     1      25.932  44.367  48.465  1.00  0.00     0.240 C 
HETATM    3  N1  UNL     1      26.732  43.261  48.864  1.00  0.00    -0.364 N 
HETATM    4  C1  UNL     1      26.159  42.108  49.548  1.00  0.00     0.149 C 
ATOM      5  H1  UNL     1      27.733  43.275  48.666  1.00  0.00     0.161 HD
HETATM    6  O1  UNL     1      24.709  44.314  48.726  1.00  0.00    -0.271 OA
ENDBRANCH   1   2
BRANCH   1   7
HETATM    7  C4  UNL     1      25.877  45.562  46.368  1.00  0.00     0.080 C 
BRANCH   7   8
HETATM    8  C5  UNL     1      25.796  46.924  45.810  1.00  0.00     0.028 A 
HETATM    9  C6  UNL     1      26.661  47.353  44.833  1.00  0.00     0.167 A 
HETATM   10  F1  UNL     1      27.629  46.522  44.352  1.00  0.00    -0.202 F 
HETATM   11  C7  UNL     1      26.527  48.652  44.351  1.00  0.00     0.197 A 
HETATM   12  F2  UNL     1      27.397  49.043  43.390  1.00  0.00    -0.199 F 
HETATM   13  C8  UNL     1      25.564  49.513  44.813  1.00  0.00     0.199 A 
HETATM   14  F3  UNL     1      25.447  50.792  44.324  1.00  0.00    -0.199 F 
HETATM   15  C9  UNL     1      24.700  49.075  45.791  1.00  0.00     0.197 A 
HETATM   16  F4  UNL     1      23.742  49.899  46.265  1.00  0.00    -0.199 F 
HETATM   17  C10 UNL     1      24.829  47.787  46.273  1.00  0.00     0.167 A 
HETATM   18  F5  UNL     1      23.966  47.377  47.238  1.00  0.00    -0.202 F 
ENDBRANCH   7   8
ENDBRANCH   1   7
BRANCH   1  19
HETATM   19  N2  UNL     1      27.907  45.460  47.735  1.00  0.00    -0.329 N 
HETATM   20  C11 UNL     1      28.752  46.593  47.902  1.00  0.00     0.322 C 
HETATM   21  O2  UNL     1      28.195  47.700  48.084  1.00  0.00    -0.247 OA
HETATM   22  N3  UNL     1      30.146  46.513  47.872  1.00  0.00    -0.288 N 
ATOM     23  H3  UNL     1      30.591  45.607  47.726  1.00  0.00     0.172 HD
ATOM     24  H2  UNL     1      28.335  44.546  47.587  1.00  0.00     0.165 HD
BRANCH  22  25
HETATM   25  C12 UNL     1      30.970  47.682  48.044  1.00  0.00     0.169 A 
HETATM   26  N4  UNL     1      32.051  48.049  47.364  1.00  0.00    -0.278 N 
HETATM   27  N5  UNL     1      32.643  49.123  47.667  1.00  0.00    -0.285 N 
ATOM     28  H4  UNL     1      32.401  47.467  46.603  1.00  0.00     0.189 HD
HETATM   29  C13 UNL     1      32.183  49.878  48.659  1.00  0.00     0.141 A 
ATOM     30  H5  UNL     1      33.473  49.411  47.149  1.00  0.00     0.188 HD
HETATM   31  S1  UNL     1      32.854  51.444  49.269  1.00  0.00    -0.024 SA
HETATM   32  S2  UNL     1      30.826  48.970  49.165  1.00  0.00    -0.025 SA
ENDBRANCH  22  25
ENDBRANCH   1  19
TORSDOF 5
ENDMDL
