MODEL 6
REMARK VINA RESULT: -7.278188573      3.689      5.730
REMARK  5 active torsions:
REMARK  status: ('A' for Active; 'I' for Inactive)
REMARK       I    between atoms: N1_2  and  C2_4 
REMARK    1  A    between atoms: C2_4  and  C3_6 
REMARK    2  A    between atoms: C3_6  and  C4_7 
REMARK    3  A    between atoms: C3_6  and  N2_19 
REMARK    4  A    between atoms: C4_7  and  C5_8 
REMARK       I    between atoms: N2_19  and  C11_21 
REMARK       I    between atoms: C11_21  and  N3_23 
REMARK    5  A    between atoms: N3_23  and  C12_25 
ROOT
HETATM    1  C3  UNL     1      27.817  49.665  43.758  1.00  0.00     0.182 C 
ENDROOT
BRANCH   1   2
HETATM    2  C2  UNL     1      27.465  50.095  42.388  1.00  0.00     0.240 C 
HETATM    3  N1  UNL     1      26.193  50.618  42.028  1.00  0.00    -0.364 N 
HETATM    4  C1  UNL     1      25.892  51.028  40.661  1.00  0.00     0.149 C 
ATOM      5  H1  UNL     1      25.473  50.709  42.744  1.00  0.00     0.161 HD
HETATM    6  O1  UNL     1      28.324  50.000  41.481  1.00  0.00    -0.271 OA
ENDBRANCH   1   2
BRANCH   1   7
HETATM    7  C4  UNL     1      26.575  49.037  44.367  1.00  0.00     0.080 C 
BRANCH   7   8
HETATM    8  C5  UNL     1      26.911  48.018  45.378  1.00  0.00     0.028 A 
HETATM    9  C6  UNL     1      27.263  46.740  45.019  1.00  0.00     0.167 A 
HETATM   10  F1  UNL     1      27.309  46.377  43.707  1.00  0.00    -0.202 F 
HETATM   11  C7  UNL     1      27.569  45.828  46.027  1.00  0.00     0.197 A 
HETATM   12  F2  UNL     1      27.910  44.578  45.638  1.00  0.00    -0.199 F 
HETATM   13  C8  UNL     1      27.533  46.161  47.357  1.00  0.00     0.199 A 
HETATM   14  F3  UNL     1      27.839  45.248  48.336  1.00  0.00    -0.199 F 
HETATM   15  C9  UNL     1      27.180  47.445  47.707  1.00  0.00     0.197 A 
HETATM   16  F4  UNL     1      27.137  47.802  49.008  1.00  0.00    -0.199 F 
HETATM   17  C10 UNL     1      26.876  48.353  46.713  1.00  0.00     0.167 A 
HETATM   18  F5  UNL     1      26.530  49.613  47.082  1.00  0.00    -0.202 F 
ENDBRANCH   7   8
ENDBRANCH   1   7
BRANCH   1  19
HETATM   19  N2  UNL     1      28.246  50.823  44.507  1.00  0.00    -0.329 N 
HETATM   20  C11 UNL     1      29.388  50.803  45.354  1.00  0.00     0.322 C 
HETATM   21  O2  UNL     1      30.025  49.727  45.432  1.00  0.00    -0.247 OA
HETATM   22  N3  UNL     1      29.814  51.915  46.084  1.00  0.00    -0.288 N 
ATOM     23  H3  UNL     1      29.290  52.788  46.013  1.00  0.00     0.172 HD
ATOM     24  H2  UNL     1      27.711  51.687  44.424  1.00  0.00     0.165 HD
BRANCH  22  25
HETATM   25  C12 UNL     1      30.975  51.858  46.934  1.00  0.00     0.169 A 
HETATM   26  N4  UNL     1      32.098  51.169  46.768  1.00  0.00    -0.278 N 
HETATM   27  N5  UNL     1      33.014  51.252  47.634  1.00  0.00    -0.285 N 
ATOM     28  H4  UNL     1      32.220  50.577  45.947  1.00  0.00     0.189 HD
HETATM   29  C13 UNL     1      32.850  52.025  48.702  1.00  0.00     0.141 A 
ATOM     30  H5  UNL     1      33.880  50.725  47.513  1.00  0.00     0.188 HD
HETATM   31  S1  UNL     1      34.010  52.302  50.064  1.00  0.00    -0.024 SA
HETATM   32  S2  UNL     1      31.287  52.654  48.419  1.00  0.00    -0.025 SA
ENDBRANCH  22  25
ENDBRANCH   1  19
TORSDOF 5
ENDMDL
