MODEL 7
REMARK VINA RESULT: -7.265900838      3.703      5.489
REMARK  5 active torsions:
REMARK  status: ('A' for Active; 'I' for Inactive)
REMARK       I    between atoms: N1_2  and  C2_4 
REMARK    1  A    between atoms: C2_4  and  C3_6 
REMARK    2  A    between atoms: C3_6  and  C4_7 
REMARK    3  A    between atoms: C3_6  and  N2_19 
REMARK    4  A    between atoms: C4_7  and  C5_8 
REMARK       I    between atoms: N2_19  and  C11_21 
REMARK       I    between atoms: C11_21  and  N3_23 
REMARK    5  A    between atoms: N3_23  and  C12_25 
ROOT
HETATM    1  C3  UNL     1      27.835  49.688  43.755  1.00  0.00     0.182 C 
ENDROOT
BRANCH   1   2
HETATM    2  C2  UNL     1      27.497  50.112  42.379  1.00  0.00     0.240 C 
HETATM    3  N1  UNL     1      26.214  50.587  41.993  1.00  0.00    -0.364 N 
HETATM    4  C1  UNL     1      25.928  50.993  40.622  1.00  0.00     0.149 C 
ATOM      5  H1  UNL     1      25.475  50.646  42.693  1.00  0.00     0.161 HD
HETATM    6  O1  UNL     1      28.379  50.056  41.492  1.00  0.00    -0.271 OA
ENDBRANCH   1   2
BRANCH   1   7
HETATM    7  C4  UNL     1      26.583  49.074  44.358  1.00  0.00     0.080 C 
BRANCH   7   8
HETATM    8  C5  UNL     1      26.902  48.095  45.413  1.00  0.00     0.028 A 
HETATM    9  C6  UNL     1      26.853  48.433  46.743  1.00  0.00     0.167 A 
HETATM   10  F1  UNL     1      26.507  49.694  47.126  1.00  0.00    -0.202 F 
HETATM   11  C7  UNL     1      27.167  47.458  47.687  1.00  0.00     0.197 A 
HETATM   12  F2  UNL     1      27.110  47.824  48.989  1.00  0.00    -0.199 F 
HETATM   13  C8  UNL     1      27.519  46.179  47.336  1.00  0.00     0.199 A 
HETATM   14  F3  UNL     1      27.824  45.231  48.282  1.00  0.00    -0.199 F 
HETATM   15  C9  UNL     1      27.563  45.850  46.000  1.00  0.00     0.197 A 
HETATM   16  F4  UNL     1      27.905  44.599  45.625  1.00  0.00    -0.199 F 
HETATM   17  C10 UNL     1      27.254  46.812  45.060  1.00  0.00     0.167 A 
HETATM   18  F5  UNL     1      27.306  46.464  43.749  1.00  0.00    -0.202 F 
ENDBRANCH   7   8
ENDBRANCH   1   7
BRANCH   1  19
HETATM   19  N2  UNL     1      28.268  50.847  44.499  1.00  0.00    -0.329 N 
HETATM   20  C11 UNL     1      29.408  50.825  45.349  1.00  0.00     0.322 C 
HETATM   21  O2  UNL     1      30.039  49.747  45.433  1.00  0.00    -0.247 OA
HETATM   22  N3  UNL     1      29.838  51.939  46.075  1.00  0.00    -0.288 N 
ATOM     23  H3  UNL     1      29.318  52.814  45.999  1.00  0.00     0.172 HD
ATOM     24  H2  UNL     1      27.737  51.713  44.412  1.00  0.00     0.165 HD
BRANCH  22  25
HETATM   25  C12 UNL     1      30.997  51.880  46.928  1.00  0.00     0.169 A 
HETATM   26  N4  UNL     1      32.134  51.220  46.746  1.00  0.00    -0.278 N 
HETATM   27  N5  UNL     1      33.045  51.295  47.618  1.00  0.00    -0.285 N 
ATOM     28  H4  UNL     1      32.272  50.655  45.907  1.00  0.00     0.189 HD
HETATM   29  C13 UNL     1      32.862  52.031  48.708  1.00  0.00     0.141 A 
ATOM     30  H5  UNL     1      33.922  50.790  47.484  1.00  0.00     0.188 HD
HETATM   31  S1  UNL     1      34.010  52.290  50.083  1.00  0.00    -0.024 SA
HETATM   32  S2  UNL     1      31.286  52.636  48.438  1.00  0.00    -0.025 SA
ENDBRANCH  22  25
ENDBRANCH   1  19
TORSDOF 5
ENDMDL
