MODEL 4
REMARK VINA RESULT: -7.438915248      1.579      1.875
REMARK  5 active torsions:
REMARK  status: ('A' for Active; 'I' for Inactive)
REMARK       I    between atoms: N1_2  and  C2_4 
REMARK    1  A    between atoms: C2_4  and  C3_6 
REMARK    2  A    between atoms: C3_6  and  C4_7 
REMARK    3  A    between atoms: C3_6  and  N2_19 
REMARK    4  A    between atoms: C4_7  and  C5_8 
REMARK       I    between atoms: N2_19  and  C11_21 
REMARK       I    between atoms: C11_21  and  N3_23 
REMARK    5  A    between atoms: N3_23  and  C12_25 
ROOT
HETATM    1  C3  UNL     1      26.168  44.253  48.710  1.00  0.00     0.182 C 
ENDROOT
BRANCH   1   2
HETATM    2  C2  UNL     1      25.900  42.968  49.392  1.00  0.00     0.240 C 
HETATM    3  N1  UNL     1      24.697  42.684  50.093  1.00  0.00    -0.364 N 
HETATM    4  C1  UNL     1      24.478  41.402  50.751  1.00  0.00     0.149 C 
ATOM      5  H1  UNL     1      23.967  43.396  50.136  1.00  0.00     0.161 HD
HETATM    6  O1  UNL     1      26.771  42.069  49.360  1.00  0.00    -0.271 OA
ENDBRANCH   1   2
BRANCH   1   7
HETATM    7  C4  UNL     1      25.513  44.183  47.341  1.00  0.00     0.080 C 
BRANCH   7   8
HETATM    8  C5  UNL     1      25.515  45.492  46.662  1.00  0.00     0.028 A 
HETATM    9  C6  UNL     1      24.635  46.485  47.015  1.00  0.00     0.167 A 
HETATM   10  F1  UNL     1      23.727  46.284  48.011  1.00  0.00    -0.202 F 
HETATM   11  C7  UNL     1      24.693  47.697  46.331  1.00  0.00     0.197 A 
HETATM   12  F2  UNL     1      23.811  48.654  46.704  1.00  0.00    -0.199 F 
HETATM   13  C8  UNL     1      25.595  47.932  45.324  1.00  0.00     0.199 A 
HETATM   14  F3  UNL     1      25.637  49.135  44.662  1.00  0.00    -0.199 F 
HETATM   15  C9  UNL     1      26.474  46.931  44.978  1.00  0.00     0.197 A 
HETATM   16  F4  UNL     1      27.373  47.133  43.991  1.00  0.00    -0.199 F 
HETATM   17  C10 UNL     1      26.421  45.727  45.652  1.00  0.00     0.167 A 
HETATM   18  F5  UNL     1      27.297  44.755  45.292  1.00  0.00    -0.202 F 
ENDBRANCH   7   8
ENDBRANCH   1   7
BRANCH   1  19
HETATM   19  N2  UNL     1      27.598  44.426  48.605  1.00  0.00    -0.329 N 
HETATM   20  C11 UNL     1      28.227  45.692  48.770  1.00  0.00     0.322 C 
HETATM   21  O2  UNL     1      27.486  46.672  49.016  1.00  0.00    -0.247 OA
HETATM   22  N3  UNL     1      29.608  45.874  48.670  1.00  0.00    -0.288 N 
ATOM     23  H3  UNL     1      30.204  45.070  48.471  1.00  0.00     0.172 HD
ATOM     24  H2  UNL     1      28.178  43.612  48.405  1.00  0.00     0.165 HD
BRANCH  22  25
HETATM   25  C12 UNL     1      30.211  47.171  48.842  1.00  0.00     0.169 A 
HETATM   26  N4  UNL     1      29.897  48.129  49.707  1.00  0.00    -0.278 N 
HETATM   27  N5  UNL     1      30.552  49.209  49.705  1.00  0.00    -0.285 N 
ATOM     28  H4  UNL     1      29.133  47.993  50.369  1.00  0.00     0.189 HD
HETATM   29  C13 UNL     1      31.546  49.382  48.841  1.00  0.00     0.141 A 
ATOM     30  H5  UNL     1      30.316  49.949  50.366  1.00  0.00     0.188 HD
HETATM   31  S1  UNL     1      32.617  50.828  48.650  1.00  0.00    -0.024 SA
HETATM   32  S2  UNL     1      31.516  47.894  48.000  1.00  0.00    -0.025 SA
ENDBRANCH  22  25
ENDBRANCH   1  19
TORSDOF 5
ENDMDL
