MODEL 3
REMARK VINA RESULT: -7.445335735      1.595      2.776
REMARK  5 active torsions:
REMARK  status: ('A' for Active; 'I' for Inactive)
REMARK       I    between atoms: N1_2  and  C2_4 
REMARK    1  A    between atoms: C2_4  and  C3_6 
REMARK    2  A    between atoms: C3_6  and  C4_7 
REMARK    3  A    between atoms: C3_6  and  N2_19 
REMARK    4  A    between atoms: C4_7  and  C5_8 
REMARK       I    between atoms: N2_19  and  C11_21 
REMARK       I    between atoms: C11_21  and  N3_23 
REMARK    5  A    between atoms: N3_23  and  C12_25 
ROOT
HETATM    1  C3  UNL     1      26.195  44.221  48.715  1.00  0.00     0.182 C 
ENDROOT
BRANCH   1   2
HETATM    2  C2  UNL     1      25.905  42.953  49.417  1.00  0.00     0.240 C 
HETATM    3  N1  UNL     1      24.658  42.662  50.034  1.00  0.00    -0.364 N 
HETATM    4  C1  UNL     1      24.418  41.397  50.718  1.00  0.00     0.149 C 
ATOM      5  H1  UNL     1      23.911  43.356  49.997  1.00  0.00     0.161 HD
HETATM    6  O1  UNL     1      26.796  42.076  49.483  1.00  0.00    -0.271 OA
ENDBRANCH   1   2
BRANCH   1   7
HETATM    7  C4  UNL     1      25.584  44.120  47.328  1.00  0.00     0.080 C 
BRANCH   7   8
HETATM    8  C5  UNL     1      25.608  45.413  46.619  1.00  0.00     0.028 A 
HETATM    9  C6  UNL     1      26.502  45.658  45.605  1.00  0.00     0.167 A 
HETATM   10  F1  UNL     1      27.399  44.704  45.227  1.00  0.00    -0.202 F 
HETATM   11  C7  UNL     1      26.470  46.901  44.978  1.00  0.00     0.197 A 
HETATM   12  F2  UNL     1      27.365  47.110  43.985  1.00  0.00    -0.199 F 
HETATM   13  C8  UNL     1      25.580  47.882  45.334  1.00  0.00     0.199 A 
HETATM   14  F3  UNL     1      25.563  49.102  44.703  1.00  0.00    -0.199 F 
HETATM   15  C9  UNL     1      24.687  47.627  46.350  1.00  0.00     0.197 A 
HETATM   16  F4  UNL     1      23.798  48.573  46.722  1.00  0.00    -0.199 F 
HETATM   17  C10 UNL     1      24.715  46.396  46.976  1.00  0.00     0.167 A 
HETATM   18  F5  UNL     1      23.825  46.168  47.976  1.00  0.00    -0.202 F 
ENDBRANCH   7   8
ENDBRANCH   1   7
BRANCH   1  19
HETATM   19  N2  UNL     1      27.628  44.393  48.651  1.00  0.00    -0.329 N 
HETATM   20  C11 UNL     1      28.251  45.664  48.791  1.00  0.00     0.322 C 
HETATM   21  O2  UNL     1      27.503  46.651  48.978  1.00  0.00    -0.247 OA
HETATM   22  N3  UNL     1      29.635  45.843  48.731  1.00  0.00    -0.288 N 
ATOM     23  H3  UNL     1      30.237  45.033  48.580  1.00  0.00     0.172 HD
ATOM     24  H2  UNL     1      28.214  43.572  48.499  1.00  0.00     0.165 HD
BRANCH  22  25
HETATM   25  C12 UNL     1      30.232  47.146  48.876  1.00  0.00     0.169 A 
HETATM   26  N4  UNL     1      29.916  48.119  49.723  1.00  0.00    -0.278 N 
HETATM   27  N5  UNL     1      30.566  49.202  49.698  1.00  0.00    -0.285 N 
ATOM     28  H4  UNL     1      29.154  47.993  50.389  1.00  0.00     0.189 HD
HETATM   29  C13 UNL     1      31.557  49.362  48.829  1.00  0.00     0.141 A 
ATOM     30  H5  UNL     1      30.328  49.954  50.346  1.00  0.00     0.188 HD
HETATM   31  S1  UNL     1      32.621  50.810  48.608  1.00  0.00    -0.024 SA
HETATM   32  S2  UNL     1      31.532  47.858  48.018  1.00  0.00    -0.025 SA
ENDBRANCH  22  25
ENDBRANCH   1  19
TORSDOF 5
ENDMDL
