MODEL 3
REMARK VINA RESULT: -4.438502114      1.121      2.034
REMARK  2 active torsions:
REMARK  status: ('A' for Active; 'I' for Inactive)
REMARK    1  A    between atoms: N1_1  and  C1_5 
REMARK    2  A    between atoms: C1_5  and  C2_6 
ROOT
HETATM    1  C2  UNL     1      23.644  15.852  58.180  1.00  0.00    -0.033 A 
HETATM    2  C3  UNL     1      24.421  14.781  58.565  1.00  0.00     0.009 A 
HETATM    3  C4  UNL     1      23.889  13.666  59.194  1.00  0.00     0.001 A 
HETATM    4  C5  UNL     1      22.531  13.679  59.419  1.00  0.00     0.000 A 
HETATM    5  C6  UNL     1      21.705  14.721  59.056  1.00  0.00     0.001 A 
HETATM    6  C7  UNL     1      22.283  15.817  58.429  1.00  0.00     0.009 A 
ENDROOT
BRANCH   1   7
HETATM    7  C1  UNL     1      24.184  17.058  57.506  1.00  0.00     0.268 C 
BRANCH   7   8
HETATM    8  N1  UNL     1      23.080  17.939  57.138  1.00  0.00    -0.075 N 
ATOM      9  H13 UNL     1      22.473  17.524  56.431  1.00  0.00     0.274 HD
ATOM     10  H12 UNL     1      22.392  18.030  57.885  1.00  0.00     0.274 HD
ATOM     11  H11 UNL     1      23.453  18.841  56.845  1.00  0.00     0.274 HD
ENDBRANCH   7   8
ENDBRANCH   1   7
TORSDOF 2
ENDMDL
