MODEL 9
REMARK VINA RESULT: -4.027537006      1.589      1.766
REMARK  2 active torsions:
REMARK  status: ('A' for Active; 'I' for Inactive)
REMARK    1  A    between atoms: N1_1  and  C1_5 
REMARK    2  A    between atoms: C1_5  and  C2_6 
ROOT
HETATM    1  C2  UNL     1      23.288  15.288  58.270  1.00  0.00    -0.033 A 
HETATM    2  C3  UNL     1      22.061  14.881  58.748  1.00  0.00     0.009 A 
HETATM    3  C4  UNL     1      21.689  13.547  58.797  1.00  0.00     0.001 A 
HETATM    4  C5  UNL     1      22.613  12.636  58.339  1.00  0.00     0.000 A 
HETATM    5  C6  UNL     1      23.854  12.983  57.851  1.00  0.00     0.001 A 
HETATM    6  C7  UNL     1      24.183  14.332  57.822  1.00  0.00     0.009 A 
ENDROOT
BRANCH   1   7
HETATM    7  C1  UNL     1      23.716  16.706  58.206  1.00  0.00     0.268 C 
BRANCH   7   8
HETATM    8  N1  UNL     1      22.704  17.483  57.497  1.00  0.00    -0.075 N 
ATOM      9  H13 UNL     1      21.850  16.951  57.337  1.00  0.00     0.274 HD
ATOM     10  H12 UNL     1      22.307  18.223  58.077  1.00  0.00     0.274 HD
ATOM     11  H11 UNL     1      23.102  17.844  56.630  1.00  0.00     0.274 HD
ENDBRANCH   7   8
ENDBRANCH   1   7
TORSDOF 2
ENDMDL
