MODEL 14
REMARK VINA RESULT: -3.634346611      1.188      2.380
REMARK  2 active torsions:
REMARK  status: ('A' for Active; 'I' for Inactive)
REMARK    1  A    between atoms: N1_1  and  C1_5 
REMARK    2  A    between atoms: C1_5  and  C2_6 
ROOT
HETATM    1  C2  UNL     1      23.735  14.789  58.839  1.00  0.00    -0.033 A 
HETATM    2  C3  UNL     1      24.635  13.778  59.096  1.00  0.00     0.009 A 
HETATM    3  C4  UNL     1      24.232  12.499  59.448  1.00  0.00     0.001 A 
HETATM    4  C5  UNL     1      22.875  12.284  59.531  1.00  0.00     0.000 A 
HETATM    5  C6  UNL     1      21.930  13.255  59.286  1.00  0.00     0.001 A 
HETATM    6  C7  UNL     1      22.380  14.522  58.936  1.00  0.00     0.009 A 
ENDROOT
BRANCH   1   7
HETATM    7  C1  UNL     1      24.133  16.167  58.461  1.00  0.00     0.268 C 
BRANCH   7   8
HETATM    8  N1  UNL     1      25.063  16.109  57.338  1.00  0.00    -0.075 N 
ATOM      9  H13 UNL     1      25.197  17.020  56.899  1.00  0.00     0.274 HD
ATOM     10  H12 UNL     1      26.025  15.950  57.639  1.00  0.00     0.274 HD
ATOM     11  H11 UNL     1      24.745  15.404  56.673  1.00  0.00     0.274 HD
ENDBRANCH   7   8
ENDBRANCH   1   7
TORSDOF 2
ENDMDL
