MODEL 1
REMARK VINA RESULT: -4.852003132      0.000      0.000
REMARK  2 active torsions:
REMARK  status: ('A' for Active; 'I' for Inactive)
REMARK    1  A    between atoms: N1_1  and  C1_5 
REMARK    2  A    between atoms: C1_5  and  C2_6 
ROOT
HETATM    1  C2  UNL     1      23.642  16.162  58.076  1.00  0.00    -0.033 A 
HETATM    2  C3  UNL     1      22.287  16.255  58.302  1.00  0.00     0.009 A 
HETATM    3  C4  UNL     1      21.574  15.261  58.955  1.00  0.00     0.001 A 
HETATM    4  C5  UNL     1      22.293  14.164  59.371  1.00  0.00     0.000 A 
HETATM    5  C6  UNL     1      23.648  14.016  59.173  1.00  0.00     0.001 A 
HETATM    6  C7  UNL     1      24.321  15.038  58.515  1.00  0.00     0.009 A 
ENDROOT
BRANCH   1   7
HETATM    7  C1  UNL     1      24.433  17.207  57.381  1.00  0.00     0.268 C 
BRANCH   7   8
HETATM    8  N1  UNL     1      25.844  17.044  57.710  1.00  0.00    -0.075 N 
ATOM      9  H13 UNL     1      26.116  16.062  57.770  1.00  0.00     0.274 HD
ATOM     10  H12 UNL     1      26.456  17.316  56.940  1.00  0.00     0.274 HD
ATOM     11  H11 UNL     1      26.052  17.555  58.568  1.00  0.00     0.274 HD
ENDBRANCH   7   8
ENDBRANCH   1   7
TORSDOF 2
ENDMDL
