MODEL 2
REMARK VINA RESULT: -4.819374679      0.074      1.701
REMARK  2 active torsions:
REMARK  status: ('A' for Active; 'I' for Inactive)
REMARK    1  A    between atoms: N1_1  and  C1_5 
REMARK    2  A    between atoms: C1_5  and  C2_6 
ROOT
HETATM    1  C2  UNL     1      23.684  16.084  58.096  1.00  0.00    -0.033 A 
HETATM    2  C3  UNL     1      24.287  14.930  58.545  1.00  0.00     0.009 A 
HETATM    3  C4  UNL     1      23.580  13.928  59.191  1.00  0.00     0.001 A 
HETATM    4  C5  UNL     1      22.232  14.143  59.365  1.00  0.00     0.000 A 
HETATM    5  C6  UNL     1      21.575  15.276  58.937  1.00  0.00     0.001 A 
HETATM    6  C7  UNL     1      22.325  16.254  58.294  1.00  0.00     0.009 A 
ENDROOT
BRANCH   1   7
HETATM    7  C1  UNL     1      24.412  17.175  57.401  1.00  0.00     0.268 C 
BRANCH   7   8
HETATM    8  N1  UNL     1      25.839  17.056  57.680  1.00  0.00    -0.075 N 
ATOM      9  H13 UNL     1      26.309  17.961  57.689  1.00  0.00     0.274 HD
ATOM     10  H12 UNL     1      26.024  16.788  58.648  1.00  0.00     0.274 HD
ATOM     11  H11 UNL     1      26.261  16.409  57.014  1.00  0.00     0.274 HD
ENDBRANCH   7   8
ENDBRANCH   1   7
TORSDOF 2
ENDMDL
