MODEL 4
REMARK VINA RESULT: -4.522793770      1.244      1.814
REMARK  4 active torsions:
REMARK  status: ('A' for Active; 'I' for Inactive)
REMARK    1  A    between atoms: N1_1  and  C1_5 
REMARK    2  A    between atoms: C1_5  and  C2_6 
REMARK    3  A    between atoms: C2_6  and  C3_7 
REMARK    4  A    between atoms: C3_7  and  C4_8 
ROOT
HETATM    1  C3  UNL     1      22.271  15.641  58.348  1.00  0.00     0.040 C 
ENDROOT
BRANCH   1   2
HETATM    2  C2  UNL     1      23.440  16.549  58.754  1.00  0.00     0.032 C 
BRANCH   2   3
HETATM    3  C1  UNL     1      24.075  17.124  57.505  1.00  0.00     0.230 C 
BRANCH   3   4
HETATM    4  N1  UNL     1      25.518  17.151  57.721  1.00  0.00    -0.079 N 
ATOM      5  H13 UNL     1      25.775  17.496  58.647  1.00  0.00     0.274 HD
ATOM      6  H12 UNL     1      25.925  16.220  57.808  1.00  0.00     0.274 HD
ATOM      7  H11 UNL     1      25.931  17.697  56.965  1.00  0.00     0.274 HD
ENDBRANCH   3   4
ENDBRANCH   2   3
ENDBRANCH   1   2
BRANCH   1   8
HETATM    8  C4  UNL     1      22.540  14.250  58.797  1.00  0.00    -0.058 A 
HETATM    9  C5  UNL     1      21.549  13.293  58.852  1.00  0.00     0.007 A 
HETATM   10  C6  UNL     1      21.800  12.001  59.269  1.00  0.00     0.001 A 
HETATM   11  C7  UNL     1      23.064  11.604  59.654  1.00  0.00     0.000 A 
HETATM   12  C8  UNL     1      24.058  12.558  59.602  1.00  0.00     0.001 A 
HETATM   13  C9  UNL     1      23.805  13.852  59.183  1.00  0.00     0.007 A 
ENDBRANCH   1   8
TORSDOF 4
ENDMDL
