MODEL 1
REMARK VINA RESULT: -4.611427284      0.000      0.000
REMARK  4 active torsions:
REMARK  status: ('A' for Active; 'I' for Inactive)
REMARK    1  A    between atoms: N1_1  and  C1_5 
REMARK    2  A    between atoms: C1_5  and  C2_6 
REMARK    3  A    between atoms: C2_6  and  C3_7 
REMARK    4  A    between atoms: C3_7  and  C4_8 
ROOT
HETATM    1  C3  UNL     1      23.746  15.646  58.935  1.00  0.00     0.040 C 
ENDROOT
BRANCH   1   2
HETATM    2  C2  UNL     1      23.251  16.754  57.995  1.00  0.00     0.032 C 
BRANCH   2   3
HETATM    3  C1  UNL     1      24.418  17.263  57.174  1.00  0.00     0.230 C 
BRANCH   3   4
HETATM    4  N1  UNL     1      25.629  17.060  57.964  1.00  0.00    -0.079 N 
ATOM      5  H13 UNL     1      26.426  17.594  57.615  1.00  0.00     0.274 HD
ATOM      6  H12 UNL     1      25.577  17.488  58.888  1.00  0.00     0.274 HD
ATOM      7  H11 UNL     1      25.807  16.057  58.000  1.00  0.00     0.274 HD
ENDBRANCH   3   4
ENDBRANCH   2   3
ENDBRANCH   1   2
BRANCH   1   8
HETATM    8  C4  UNL     1      23.120  14.353  58.554  1.00  0.00    -0.058 A 
HETATM    9  C5  UNL     1      23.771  13.428  57.765  1.00  0.00     0.007 A 
HETATM   10  C6  UNL     1      23.189  12.227  57.412  1.00  0.00     0.001 A 
HETATM   11  C7  UNL     1      21.919  11.893  57.835  1.00  0.00     0.000 A 
HETATM   12  C8  UNL     1      21.265  12.815  58.624  1.00  0.00     0.001 A 
HETATM   13  C9  UNL     1      21.849  14.018  58.978  1.00  0.00     0.007 A 
ENDBRANCH   1   8
TORSDOF 4
ENDMDL
