MODEL 5
REMARK VINA RESULT: -4.522263660      1.249      1.362
REMARK  4 active torsions:
REMARK  status: ('A' for Active; 'I' for Inactive)
REMARK    1  A    between atoms: N1_1  and  C1_5 
REMARK    2  A    between atoms: C1_5  and  C2_6 
REMARK    3  A    between atoms: C2_6  and  C3_7 
REMARK    4  A    between atoms: C3_7  and  C4_8 
ROOT
HETATM    1  C3  UNL     1      22.269  15.639  58.354  1.00  0.00     0.040 C 
ENDROOT
BRANCH   1   2
HETATM    2  C2  UNL     1      23.431  16.556  58.758  1.00  0.00     0.032 C 
BRANCH   2   3
HETATM    3  C1  UNL     1      24.073  17.121  57.508  1.00  0.00     0.230 C 
BRANCH   3   4
HETATM    4  N1  UNL     1      25.515  17.144  57.729  1.00  0.00    -0.079 N 
ATOM      5  H13 UNL     1      25.846  18.035  58.101  1.00  0.00     0.274 HD
ATOM      6  H12 UNL     1      25.807  16.557  58.510  1.00  0.00     0.274 HD
ATOM      7  H11 UNL     1      25.964  16.889  56.850  1.00  0.00     0.274 HD
ENDBRANCH   3   4
ENDBRANCH   2   3
ENDBRANCH   1   2
BRANCH   1   8
HETATM    8  C4  UNL     1      22.549  14.251  58.804  1.00  0.00    -0.058 A 
HETATM    9  C5  UNL     1      23.810  13.846  59.190  1.00  0.00     0.007 A 
HETATM   10  C6  UNL     1      24.069  12.556  59.609  1.00  0.00     0.001 A 
HETATM   11  C7  UNL     1      23.072  11.604  59.659  1.00  0.00     0.000 A 
HETATM   12  C8  UNL     1      21.810  12.004  59.274  1.00  0.00     0.001 A 
HETATM   13  C9  UNL     1      21.552  13.298  58.855  1.00  0.00     0.007 A 
ENDBRANCH   1   8
TORSDOF 4
ENDMDL
