MODEL 9
REMARK VINA RESULT: -4.273363579      2.908      4.931
REMARK  4 active torsions:
REMARK  status: ('A' for Active; 'I' for Inactive)
REMARK    1  A    between atoms: N1_1  and  C1_5 
REMARK    2  A    between atoms: C1_5  and  C2_6 
REMARK    3  A    between atoms: C2_6  and  C3_7 
REMARK    4  A    between atoms: C3_7  and  C4_8 
ROOT
HETATM    1  C3  UNL     1      21.513  12.904  58.986  1.00  0.00     0.040 C 
ENDROOT
BRANCH   1   2
HETATM    2  C2  UNL     1      21.382  11.992  57.758  1.00  0.00     0.032 C 
BRANCH   2   3
HETATM    3  C1  UNL     1      20.177  11.092  57.938  1.00  0.00     0.230 C 
BRANCH   3   4
HETATM    4  N1  UNL     1      19.332  11.252  56.758  1.00  0.00    -0.079 N 
ATOM      5  H13 UNL     1      19.804  11.735  55.994  1.00  0.00     0.274 HD
ATOM      6  H12 UNL     1      19.158  10.372  56.272  1.00  0.00     0.274 HD
ATOM      7  H11 UNL     1      18.476  11.718  57.056  1.00  0.00     0.274 HD
ENDBRANCH   3   4
ENDBRANCH   2   3
ENDBRANCH   1   2
BRANCH   1   8
HETATM    8  C4  UNL     1      22.257  14.136  58.616  1.00  0.00    -0.058 A 
HETATM    9  C5  UNL     1      21.672  15.385  58.657  1.00  0.00     0.007 A 
HETATM   10  C6  UNL     1      22.364  16.529  58.313  1.00  0.00     0.001 A 
HETATM   11  C7  UNL     1      23.682  16.476  57.908  1.00  0.00     0.000 A 
HETATM   12  C8  UNL     1      24.270  15.230  57.866  1.00  0.00     0.001 A 
HETATM   13  C9  UNL     1      23.575  14.084  58.212  1.00  0.00     0.007 A 
ENDBRANCH   1   8
TORSDOF 4
ENDMDL
