MODEL 2
REMARK VINA RESULT: -4.586168705      0.094      1.487
REMARK  4 active torsions:
REMARK  status: ('A' for Active; 'I' for Inactive)
REMARK    1  A    between atoms: N1_1  and  C1_5 
REMARK    2  A    between atoms: C1_5  and  C2_6 
REMARK    3  A    between atoms: C2_6  and  C3_7 
REMARK    4  A    between atoms: C3_7  and  C4_8 
ROOT
HETATM    1  C3  UNL     1      23.801  15.641  58.960  1.00  0.00     0.040 C 
ENDROOT
BRANCH   1   2
HETATM    2  C2  UNL     1      23.326  16.753  58.015  1.00  0.00     0.032 C 
BRANCH   2   3
HETATM    3  C1  UNL     1      24.493  17.214  57.167  1.00  0.00     0.230 C 
BRANCH   3   4
HETATM    4  N1  UNL     1      25.703  17.064  57.970  1.00  0.00    -0.079 N 
ATOM      5  H13 UNL     1      26.520  17.504  57.545  1.00  0.00     0.274 HD
ATOM      6  H12 UNL     1      25.683  17.618  58.825  1.00  0.00     0.274 HD
ATOM      7  H11 UNL     1      25.833  16.068  58.144  1.00  0.00     0.274 HD
ENDBRANCH   3   4
ENDBRANCH   2   3
ENDBRANCH   1   2
BRANCH   1   8
HETATM    8  C4  UNL     1      23.188  14.349  58.558  1.00  0.00    -0.058 A 
HETATM    9  C5  UNL     1      21.902  14.005  58.919  1.00  0.00     0.007 A 
HETATM   10  C6  UNL     1      21.333  12.804  58.546  1.00  0.00     0.001 A 
HETATM   11  C7  UNL     1      22.028  11.884  57.789  1.00  0.00     0.000 A 
HETATM   12  C8  UNL     1      23.315  12.224  57.426  1.00  0.00     0.001 A 
HETATM   13  C9  UNL     1      23.884  13.428  57.801  1.00  0.00     0.007 A 
ENDBRANCH   1   8
TORSDOF 4
ENDMDL
