MODEL 6
REMARK VINA RESULT: -4.363645269      1.483      1.536
REMARK  4 active torsions:
REMARK  status: ('A' for Active; 'I' for Inactive)
REMARK    1  A    between atoms: N1_1  and  C1_5 
REMARK    2  A    between atoms: C1_5  and  C2_6 
REMARK    3  A    between atoms: C2_6  and  C3_7 
REMARK    4  A    between atoms: C3_7  and  C4_8 
ROOT
HETATM    1  C3  UNL     1      23.094  15.951  58.797  1.00  0.00     0.040 C 
ENDROOT
BRANCH   1   2
HETATM    2  C2  UNL     1      24.417  16.231  58.069  1.00  0.00     0.032 C 
BRANCH   2   3
HETATM    3  C1  UNL     1      24.271  17.495  57.248  1.00  0.00     0.230 C 
BRANCH   3   4
HETATM    4  N1  UNL     1      22.849  17.818  57.191  1.00  0.00    -0.079 N 
ATOM      5  H13 UNL     1      22.655  18.799  57.395  1.00  0.00     0.274 HD
ATOM      6  H12 UNL     1      22.476  17.803  56.242  1.00  0.00     0.274 HD
ATOM      7  H11 UNL     1      22.364  17.178  57.820  1.00  0.00     0.274 HD
ENDBRANCH   3   4
ENDBRANCH   2   3
ENDBRANCH   1   2
BRANCH   1   8
HETATM    8  C4  UNL     1      22.965  14.494  59.054  1.00  0.00    -0.058 A 
HETATM    9  C5  UNL     1      24.056  13.701  59.343  1.00  0.00     0.007 A 
HETATM   10  C6  UNL     1      23.933  12.346  59.582  1.00  0.00     0.001 A 
HETATM   11  C7  UNL     1      22.706  11.718  59.541  1.00  0.00     0.000 A 
HETATM   12  C8  UNL     1      21.613  12.507  59.252  1.00  0.00     0.001 A 
HETATM   13  C9  UNL     1      21.737  13.864  59.013  1.00  0.00     0.007 A 
ENDBRANCH   1   8
TORSDOF 4
ENDMDL
