MODEL 5
REMARK VINA RESULT: -4.369999239      1.159      2.002
REMARK  3 active torsions:
REMARK  status: ('A' for Active; 'I' for Inactive)
REMARK    1  A    between atoms: N1_1  and  C1_5 
REMARK    2  A    between atoms: C1_5  and  C2_6 
REMARK    3  A    between atoms: C2_6  and  C3_7 
ROOT
HETATM    1  C3  UNL     1      94.344  78.191 -16.130  1.00  0.00    -0.057 A 
HETATM    2  C4  UNL     1      95.295  78.580 -17.053  1.00  0.00     0.007 A 
HETATM    3  C5  UNL     1      95.449  77.892 -18.253  1.00  0.00     0.001 A 
HETATM    4  C6  UNL     1      94.627  76.794 -18.517  1.00  0.00     0.000 A 
HETATM    5  C7  UNL     1      93.676  76.389 -17.616  1.00  0.00     0.001 A 
HETATM    6  C8  UNL     1      93.553  77.103 -16.429  1.00  0.00     0.007 A 
ENDROOT
BRANCH   1   7
HETATM    7  C2  UNL     1      94.156  78.908 -14.840  1.00  0.00     0.065 C 
BRANCH   7   8
HETATM    8  C1  UNL     1      92.695  78.717 -14.454  1.00  0.00     0.234 C 
BRANCH   8   9
HETATM    9  N1  UNL     1      92.408  79.616 -13.346  1.00  0.00    -0.079 N 
ATOM     10  H13 UNL     1      93.024  79.468 -12.546  1.00  0.00     0.274 HD
ATOM     11  H12 UNL     1      92.671  80.581 -13.542  1.00  0.00     0.274 HD
ATOM     12  H11 UNL     1      91.421  79.513 -13.110  1.00  0.00     0.274 HD
ENDBRANCH   8   9
ENDBRANCH   7   8
ENDBRANCH   1   7
TORSDOF 3
ENDMDL
