MODEL 7
REMARK VINA RESULT: -4.344902589      1.438      2.128
REMARK  3 active torsions:
REMARK  status: ('A' for Active; 'I' for Inactive)
REMARK    1  A    between atoms: N1_1  and  C1_5 
REMARK    2  A    between atoms: C1_5  and  C2_6 
REMARK    3  A    between atoms: C2_6  and  C3_7 
ROOT
HETATM    1  C3  UNL     1      93.752  78.312 -16.611  1.00  0.00    -0.057 A 
HETATM    2  C4  UNL     1      94.098  79.180 -17.627  1.00  0.00     0.007 A 
HETATM    3  C5  UNL     1      93.554  79.042 -18.901  1.00  0.00     0.001 A 
HETATM    4  C6  UNL     1      92.647  78.008 -19.143  1.00  0.00     0.000 A 
HETATM    5  C7  UNL     1      92.287  77.134 -18.150  1.00  0.00     0.001 A 
HETATM    6  C8  UNL     1      92.853  77.306 -16.891  1.00  0.00     0.007 A 
ENDROOT
BRANCH   1   7
HETATM    7  C2  UNL     1      94.317  78.436 -15.240  1.00  0.00     0.065 C 
BRANCH   7   8
HETATM    8  C1  UNL     1      94.610  79.916 -15.031  1.00  0.00     0.234 C 
BRANCH   8   9
HETATM    9  N1  UNL     1      94.863  80.122 -13.613  1.00  0.00    -0.079 N 
ATOM     10  H13 UNL     1      95.730  80.629 -13.435  1.00  0.00     0.274 HD
ATOM     11  H12 UNL     1      94.223  80.794 -13.190  1.00  0.00     0.274 HD
ATOM     12  H11 UNL     1      94.837  79.209 -13.157  1.00  0.00     0.274 HD
ENDBRANCH   8   9
ENDBRANCH   7   8
ENDBRANCH   1   7
TORSDOF 3
ENDMDL
