MODEL 2
REMARK VINA RESULT: -4.541188952      0.041      1.593
REMARK  3 active torsions:
REMARK  status: ('A' for Active; 'I' for Inactive)
REMARK    1  A    between atoms: N1_1  and  C1_5 
REMARK    2  A    between atoms: C1_5  and  C2_6 
REMARK    3  A    between atoms: C2_6  and  C3_7 
ROOT
HETATM    1  C3  UNL     1      94.405  77.678 -16.409  1.00  0.00    -0.057 A 
HETATM    2  C4  UNL     1      95.338  78.221 -17.269  1.00  0.00     0.007 A 
HETATM    3  C5  UNL     1      95.468  77.750 -18.572  1.00  0.00     0.001 A 
HETATM    4  C6  UNL     1      94.638  76.713 -19.005  1.00  0.00     0.000 A 
HETATM    5  C7  UNL     1      93.704  76.157 -18.169  1.00  0.00     0.001 A 
HETATM    6  C8  UNL     1      93.606  76.657 -16.875  1.00  0.00     0.007 A 
ENDROOT
BRANCH   1   7
HETATM    7  C2  UNL     1      94.243  78.162 -15.011  1.00  0.00     0.065 C 
BRANCH   7   8
HETATM    8  C1  UNL     1      94.441  79.672 -15.057  1.00  0.00     0.234 C 
BRANCH   8   9
HETATM    9  N1  UNL     1      94.890  80.100 -13.741  1.00  0.00    -0.079 N 
ATOM     10  H13 UNL     1      95.025  79.322 -13.095  1.00  0.00     0.274 HD
ATOM     11  H12 UNL     1      95.851  80.442 -13.742  1.00  0.00     0.274 HD
ATOM     12  H11 UNL     1      94.224  80.791 -13.394  1.00  0.00     0.274 HD
ENDBRANCH   8   9
ENDBRANCH   7   8
ENDBRANCH   1   7
TORSDOF 3
ENDMDL
