MODEL 1
REMARK VINA RESULT: -4.558177174      0.000      0.000
REMARK  3 active torsions:
REMARK  status: ('A' for Active; 'I' for Inactive)
REMARK    1  A    between atoms: N1_1  and  C1_5 
REMARK    2  A    between atoms: C1_5  and  C2_6 
REMARK    3  A    between atoms: C2_6  and  C3_7 
ROOT
HETATM    1  C3  UNL     1      94.371  77.636 -16.402  1.00  0.00    -0.057 A 
HETATM    2  C4  UNL     1      93.577  76.615 -16.885  1.00  0.00     0.007 A 
HETATM    3  C5  UNL     1      93.716  76.160 -18.193  1.00  0.00     0.001 A 
HETATM    4  C6  UNL     1      94.674  76.751 -19.019  1.00  0.00     0.000 A 
HETATM    5  C7  UNL     1      95.475  77.767 -18.562  1.00  0.00     0.001 A 
HETATM    6  C8  UNL     1      95.304  78.192 -17.248  1.00  0.00     0.007 A 
ENDROOT
BRANCH   1   7
HETATM    7  C2  UNL     1      94.244  78.142 -15.008  1.00  0.00     0.065 C 
BRANCH   7   8
HETATM    8  C1  UNL     1      94.452  79.649 -15.080  1.00  0.00     0.234 C 
BRANCH   8   9
HETATM    9  N1  UNL     1      94.907  80.097 -13.772  1.00  0.00    -0.079 N 
ATOM     10  H13 UNL     1      94.732  79.412 -13.036  1.00  0.00     0.274 HD
ATOM     11  H12 UNL     1      95.923  80.123 -13.694  1.00  0.00     0.274 HD
ATOM     12  H11 UNL     1      94.470  81.000 -13.583  1.00  0.00     0.274 HD
ENDBRANCH   8   9
ENDBRANCH   7   8
ENDBRANCH   1   7
TORSDOF 3
ENDMDL
