MODEL 4
REMARK VINA RESULT: -4.377038824      1.147      1.210
REMARK  3 active torsions:
REMARK  status: ('A' for Active; 'I' for Inactive)
REMARK    1  A    between atoms: N1_1  and  C1_5 
REMARK    2  A    between atoms: C1_5  and  C2_6 
REMARK    3  A    between atoms: C2_6  and  C3_7 
ROOT
HETATM    1  C3  UNL     1      94.302  78.125 -16.120  1.00  0.00    -0.057 A 
HETATM    2  C4  UNL     1      93.531  77.024 -16.433  1.00  0.00     0.007 A 
HETATM    3  C5  UNL     1      93.707  76.348 -17.638  1.00  0.00     0.001 A 
HETATM    4  C6  UNL     1      94.678  76.799 -18.534  1.00  0.00     0.000 A 
HETATM    5  C7  UNL     1      95.456  77.891 -18.245  1.00  0.00     0.001 A 
HETATM    6  C8  UNL     1      95.249  78.538 -17.031  1.00  0.00     0.007 A 
ENDROOT
BRANCH   1   7
HETATM    7  C2  UNL     1      94.137  78.866 -14.840  1.00  0.00     0.065 C 
BRANCH   7   8
HETATM    8  C1  UNL     1      92.675  78.710 -14.442  1.00  0.00     0.234 C 
BRANCH   8   9
HETATM    9  N1  UNL     1      92.413  79.633 -13.348  1.00  0.00    -0.079 N 
ATOM     10  H13 UNL     1      91.655  80.285 -13.552  1.00  0.00     0.274 HD
ATOM     11  H12 UNL     1      91.986  79.179 -12.541  1.00  0.00     0.274 HD
ATOM     12  H11 UNL     1      93.289  80.104 -13.121  1.00  0.00     0.274 HD
ENDBRANCH   8   9
ENDBRANCH   7   8
ENDBRANCH   1   7
TORSDOF 3
ENDMDL
