MODEL 2
REMARK VINA RESULT: -4.791725895      0.085      1.700
REMARK  2 active torsions:
REMARK  status: ('A' for Active; 'I' for Inactive)
REMARK    1  A    between atoms: N1_1  and  C1_5 
REMARK    2  A    between atoms: C1_5  and  C2_6 
ROOT
HETATM    1  C2  UNL     1      28.735  15.883  16.186  1.00  0.00    -0.033 A 
HETATM    2  C3  UNL     1      29.609  14.858  16.475  1.00  0.00     0.009 A 
HETATM    3  C4  UNL     1      29.527  14.121  17.646  1.00  0.00     0.001 A 
HETATM    4  C5  UNL     1      28.518  14.466  18.517  1.00  0.00     0.000 A 
HETATM    5  C6  UNL     1      27.616  15.480  18.282  1.00  0.00     0.001 A 
HETATM    6  C7  UNL     1      27.737  16.191  17.095  1.00  0.00     0.009 A 
ENDROOT
BRANCH   1   7
HETATM    7  C1  UNL     1      28.797  16.689  14.942  1.00  0.00     0.268 C 
BRANCH   7   8
HETATM    8  N1  UNL     1      29.993  16.325  14.190  1.00  0.00    -0.075 N 
ATOM      9  H13 UNL     1      30.642  15.765  14.743  1.00  0.00     0.274 HD
ATOM     10  H12 UNL     1      29.797  15.641  13.459  1.00  0.00     0.274 HD
ATOM     11  H11 UNL     1      30.429  17.170  13.821  1.00  0.00     0.274 HD
ENDBRANCH   7   8
ENDBRANCH   1   7
TORSDOF 2
ENDMDL
