MODEL 1
REMARK VINA RESULT: -4.827460531      0.000      0.000
REMARK  2 active torsions:
REMARK  status: ('A' for Active; 'I' for Inactive)
REMARK    1  A    between atoms: N1_1  and  C1_5 
REMARK    2  A    between atoms: C1_5  and  C2_6 
ROOT
HETATM    1  C2  UNL     1      28.697  15.922  16.183  1.00  0.00    -0.033 A 
HETATM    2  C3  UNL     1      27.740  16.154  17.146  1.00  0.00     0.009 A 
HETATM    3  C4  UNL     1      27.671  15.415  18.317  1.00  0.00     0.001 A 
HETATM    4  C5  UNL     1      28.616  14.426  18.474  1.00  0.00     0.000 A 
HETATM    5  C6  UNL     1      29.596  14.149  17.546  1.00  0.00     0.001 A 
HETATM    6  C7  UNL     1      29.625  14.916  16.388  1.00  0.00     0.009 A 
ENDROOT
BRANCH   1   7
HETATM    7  C1  UNL     1      28.796  16.695  14.921  1.00  0.00     0.268 C 
BRANCH   7   8
HETATM    8  N1  UNL     1      30.020  16.320  14.221  1.00  0.00    -0.075 N 
ATOM      9  H13 UNL     1      30.818  16.889  14.505  1.00  0.00     0.274 HD
ATOM     10  H12 UNL     1      30.375  15.412  14.521  1.00  0.00     0.274 HD
ATOM     11  H11 UNL     1      29.858  16.358  13.215  1.00  0.00     0.274 HD
ENDBRANCH   7   8
ENDBRANCH   1   7
TORSDOF 2
ENDMDL
