MODEL 20
REMARK VINA RESULT: -3.246903257      3.926      4.888
REMARK  2 active torsions:
REMARK  status: ('A' for Active; 'I' for Inactive)
REMARK    1  A    between atoms: N1_1  and  C1_5 
REMARK    2  A    between atoms: C1_5  and  C2_6 
ROOT
HETATM    1  C2  UNL     1      27.154  12.264  18.104  1.00  0.00    -0.033 A 
HETATM    2  C3  UNL     1      27.787  13.475  17.931  1.00  0.00     0.009 A 
HETATM    3  C4  UNL     1      28.510  13.778  16.788  1.00  0.00     0.001 A 
HETATM    4  C5  UNL     1      28.569  12.800  15.822  1.00  0.00     0.000 A 
HETATM    5  C6  UNL     1      27.957  11.571  15.939  1.00  0.00     0.001 A 
HETATM    6  C7  UNL     1      27.242  11.312  17.102  1.00  0.00     0.009 A 
ENDROOT
BRANCH   1   7
HETATM    7  C1  UNL     1      26.372  11.910  19.314  1.00  0.00     0.268 C 
BRANCH   7   8
HETATM    8  N1  UNL     1      24.985  11.662  18.937  1.00  0.00    -0.075 N 
ATOM      9  H13 UNL     1      24.869  11.575  17.927  1.00  0.00     0.274 HD
ATOM     10  H12 UNL     1      24.673  10.727  19.200  1.00  0.00     0.274 HD
ATOM     11  H11 UNL     1      24.393  12.392  19.332  1.00  0.00     0.274 HD
ENDBRANCH   7   8
ENDBRANCH   1   7
TORSDOF 2
ENDMDL
