MODEL 18
REMARK VINA RESULT: -3.391387664      3.979      4.899
REMARK  2 active torsions:
REMARK  status: ('A' for Active; 'I' for Inactive)
REMARK    1  A    between atoms: N1_1  and  C1_5 
REMARK    2  A    between atoms: C1_5  and  C2_6 
ROOT
HETATM    1  C2  UNL     1      27.255  12.564  18.006  1.00  0.00    -0.033 A 
HETATM    2  C3  UNL     1      27.439  12.038  16.747  1.00  0.00     0.009 A 
HETATM    3  C4  UNL     1      26.650  11.014  16.247  1.00  0.00     0.001 A 
HETATM    4  C5  UNL     1      25.661  10.541  17.079  1.00  0.00     0.000 A 
HETATM    5  C6  UNL     1      25.430  11.027  18.348  1.00  0.00     0.001 A 
HETATM    6  C7  UNL     1      26.246  12.054  18.806  1.00  0.00     0.009 A 
ENDROOT
BRANCH   1   7
HETATM    7  C1  UNL     1      28.082  13.660  18.569  1.00  0.00     0.268 C 
BRANCH   7   8
HETATM    8  N1  UNL     1      27.232  14.813  18.845  1.00  0.00    -0.075 N 
ATOM      9  H13 UNL     1      26.635  15.052  18.053  1.00  0.00     0.274 HD
ATOM     10  H12 UNL     1      26.498  14.600  19.521  1.00  0.00     0.274 HD
ATOM     11  H11 UNL     1      27.813  15.597  19.141  1.00  0.00     0.274 HD
ENDBRANCH   7   8
ENDBRANCH   1   7
TORSDOF 2
ENDMDL
