MODEL 3
REMARK VINA RESULT: -4.397689333      1.524      1.524
REMARK  2 active torsions:
REMARK  status: ('A' for Active; 'I' for Inactive)
REMARK    1  A    between atoms: N1_1  and  C1_5 
REMARK    2  A    between atoms: C1_5  and  C2_6 
ROOT
HETATM    1  C2  UNL     1      28.390  16.113  16.459  1.00  0.00    -0.033 A 
HETATM    2  C3  UNL     1      27.652  15.848  17.591  1.00  0.00     0.009 A 
HETATM    3  C4  UNL     1      27.971  14.816  18.460  1.00  0.00     0.001 A 
HETATM    4  C5  UNL     1      29.074  14.059  18.135  1.00  0.00     0.000 A 
HETATM    5  C6  UNL     1      29.849  14.277  17.017  1.00  0.00     0.001 A 
HETATM    6  C7  UNL     1      29.491  15.323  16.175  1.00  0.00     0.009 A 
ENDROOT
BRANCH   1   7
HETATM    7  C1  UNL     1      28.075  17.209  15.510  1.00  0.00     0.268 C 
BRANCH   7   8
HETATM    8  N1  UNL     1      26.876  17.907  15.961  1.00  0.00    -0.075 N 
ATOM      9  H13 UNL     1      26.194  18.028  15.213  1.00  0.00     0.274 HD
ATOM     10  H12 UNL     1      26.306  17.335  16.585  1.00  0.00     0.274 HD
ATOM     11  H11 UNL     1      27.143  18.794  16.387  1.00  0.00     0.274 HD
ENDBRANCH   7   8
ENDBRANCH   1   7
TORSDOF 2
ENDMDL
