MODEL 3
REMARK VINA RESULT: -4.540855507      0.054      1.593
REMARK  3 active torsions:
REMARK  status: ('A' for Active; 'I' for Inactive)
REMARK    1  A    between atoms: N1_1  and  C1_5 
REMARK    2  A    between atoms: C1_5  and  C2_6 
REMARK    3  A    between atoms: C2_6  and  C3_7 
ROOT
HETATM    1  C3  UNL     1      45.870  20.249  50.744  1.00  0.00    -0.057 A 
HETATM    2  C4  UNL     1      46.710  21.010  51.531  1.00  0.00     0.007 A 
HETATM    3  C5  UNL     1      46.984  22.336  51.208  1.00  0.00     0.001 A 
HETATM    4  C6  UNL     1      46.397  22.893  50.071  1.00  0.00     0.000 A 
HETATM    5  C7  UNL     1      45.559  22.157  49.273  1.00  0.00     0.001 A 
HETATM    6  C8  UNL     1      45.310  20.836  49.630  1.00  0.00     0.007 A 
ENDROOT
BRANCH   1   7
HETATM    7  C2  UNL     1      45.558  18.830  51.066  1.00  0.00     0.065 C 
BRANCH   7   8
HETATM    8  C1  UNL     1      45.571  18.723  52.585  1.00  0.00     0.234 C 
BRANCH   8   9
HETATM    9  N1  UNL     1      45.697  17.315  52.930  1.00  0.00    -0.079 N 
ATOM     10  H13 UNL     1      46.277  17.159  53.754  1.00  0.00     0.274 HD
ATOM     11  H12 UNL     1      44.832  16.918  53.296  1.00  0.00     0.274 HD
ATOM     12  H11 UNL     1      46.041  16.822  52.105  1.00  0.00     0.274 HD
ENDBRANCH   8   9
ENDBRANCH   7   8
ENDBRANCH   1   7
TORSDOF 3
ENDMDL
