MODEL 1
REMARK VINA RESULT: -4.556242785      0.000      0.000
REMARK  3 active torsions:
REMARK  status: ('A' for Active; 'I' for Inactive)
REMARK    1  A    between atoms: N1_1  and  C1_5 
REMARK    2  A    between atoms: C1_5  and  C2_6 
REMARK    3  A    between atoms: C2_6  and  C3_7 
ROOT
HETATM    1  C3  UNL     1      45.848  20.242  50.722  1.00  0.00    -0.057 A 
HETATM    2  C4  UNL     1      45.328  20.835  49.589  1.00  0.00     0.007 A 
HETATM    3  C5  UNL     1      45.615  22.163  49.283  1.00  0.00     0.001 A 
HETATM    4  C6  UNL     1      46.440  22.894  50.139  1.00  0.00     0.000 A 
HETATM    5  C7  UNL     1      46.969  22.327  51.269  1.00  0.00     0.001 A 
HETATM    6  C8  UNL     1      46.659  20.998  51.540  1.00  0.00     0.007 A 
ENDROOT
BRANCH   1   7
HETATM    7  C2  UNL     1      45.560  18.825  51.074  1.00  0.00     0.065 C 
BRANCH   7   8
HETATM    8  C1  UNL     1      45.570  18.753  52.595  1.00  0.00     0.234 C 
BRANCH   8   9
HETATM    9  N1  UNL     1      45.739  17.357  52.972  1.00  0.00    -0.079 N 
ATOM     10  H13 UNL     1      44.947  16.774  52.698  1.00  0.00     0.274 HD
ATOM     11  H12 UNL     1      46.453  16.882  52.420  1.00  0.00     0.274 HD
ATOM     12  H11 UNL     1      45.926  17.326  53.974  1.00  0.00     0.274 HD
ENDBRANCH   8   9
ENDBRANCH   7   8
ENDBRANCH   1   7
TORSDOF 3
ENDMDL
