MODEL 4
REMARK VINA RESULT: -4.531581062      1.474      2.156
REMARK  3 active torsions:
REMARK  status: ('A' for Active; 'I' for Inactive)
REMARK    1  A    between atoms: N1_1  and  C1_5 
REMARK    2  A    between atoms: C1_5  and  C2_6 
REMARK    3  A    between atoms: C2_6  and  C3_7 
ROOT
HETATM    1  C3  UNL     1      45.003  20.215  51.218  1.00  0.00    -0.057 A 
HETATM    2  C4  UNL     1      45.259  21.227  52.121  1.00  0.00     0.007 A 
HETATM    3  C5  UNL     1      44.801  22.522  51.890  1.00  0.00     0.001 A 
HETATM    4  C6  UNL     1      44.076  22.788  50.727  1.00  0.00     0.000 A 
HETATM    5  C7  UNL     1      43.808  21.799  49.816  1.00  0.00     0.001 A 
HETATM    6  C8  UNL     1      44.283  20.519  50.084  1.00  0.00     0.007 A 
ENDROOT
BRANCH   1   7
HETATM    7  C2  UNL     1      45.478  18.822  51.439  1.00  0.00     0.065 C 
BRANCH   7   8
HETATM    8  C1  UNL     1      45.621  18.654  52.947  1.00  0.00     0.234 C 
BRANCH   8   9
HETATM    9  N1  UNL     1      45.921  17.254  53.210  1.00  0.00    -0.079 N 
ATOM     10  H13 UNL     1      46.588  17.128  53.972  1.00  0.00     0.274 HD
ATOM     11  H12 UNL     1      45.139  16.754  53.632  1.00  0.00     0.274 HD
ATOM     12  H11 UNL     1      46.235  16.833  52.335  1.00  0.00     0.274 HD
ENDBRANCH   8   9
ENDBRANCH   7   8
ENDBRANCH   1   7
TORSDOF 3
ENDMDL
