MODEL 2
REMARK VINA RESULT: -4.550887655      1.481      1.488
REMARK  3 active torsions:
REMARK  status: ('A' for Active; 'I' for Inactive)
REMARK    1  A    between atoms: N1_1  and  C1_5 
REMARK    2  A    between atoms: C1_5  and  C2_6 
REMARK    3  A    between atoms: C2_6  and  C3_7 
ROOT
HETATM    1  C3  UNL     1      44.983  20.180  51.162  1.00  0.00    -0.057 A 
HETATM    2  C4  UNL     1      44.259  20.506  50.033  1.00  0.00     0.007 A 
HETATM    3  C5  UNL     1      43.800  21.805  49.829  1.00  0.00     0.001 A 
HETATM    4  C6  UNL     1      44.082  22.782  50.785  1.00  0.00     0.000 A 
HETATM    5  C7  UNL     1      44.799  22.483  51.915  1.00  0.00     0.001 A 
HETATM    6  C8  UNL     1      45.240  21.174  52.081  1.00  0.00     0.007 A 
ENDROOT
BRANCH   1   7
HETATM    7  C2  UNL     1      45.486  18.801  51.406  1.00  0.00     0.065 C 
BRANCH   7   8
HETATM    8  C1  UNL     1      45.599  18.649  52.917  1.00  0.00     0.234 C 
BRANCH   8   9
HETATM    9  N1  UNL     1      45.898  17.253  53.200  1.00  0.00    -0.079 N 
ATOM     10  H13 UNL     1      46.668  17.139  53.860  1.00  0.00     0.274 HD
ATOM     11  H12 UNL     1      45.175  16.798  53.757  1.00  0.00     0.274 HD
ATOM     12  H11 UNL     1      46.068  16.784  52.310  1.00  0.00     0.274 HD
ENDBRANCH   8   9
ENDBRANCH   7   8
ENDBRANCH   1   7
TORSDOF 3
ENDMDL
