MODEL 5
REMARK VINA RESULT: -4.378628213      1.578      2.274
REMARK  3 active torsions:
REMARK  status: ('A' for Active; 'I' for Inactive)
REMARK    1  A    between atoms: N1_1  and  C1_5 
REMARK    2  A    between atoms: C1_5  and  C2_6 
REMARK    3  A    between atoms: C2_6  and  C3_7 
ROOT
HETATM    1  C3  UNL     1      45.378  20.436  51.625  1.00  0.00    -0.057 A 
HETATM    2  C4  UNL     1      45.044  21.764  51.800  1.00  0.00     0.007 A 
HETATM    3  C5  UNL     1      44.219  22.418  50.889  1.00  0.00     0.001 A 
HETATM    4  C6  UNL     1      43.729  21.713  49.788  1.00  0.00     0.000 A 
HETATM    5  C7  UNL     1      44.047  20.393  49.594  1.00  0.00     0.001 A 
HETATM    6  C8  UNL     1      44.874  19.776  50.526  1.00  0.00     0.007 A 
ENDROOT
BRANCH   1   7
HETATM    7  C2  UNL     1      46.257  19.711  52.583  1.00  0.00     0.065 C 
BRANCH   7   8
HETATM    8  C1  UNL     1      45.533  18.417  52.931  1.00  0.00     0.234 C 
BRANCH   8   9
HETATM    9  N1  UNL     1      46.238  17.800  54.045  1.00  0.00    -0.079 N 
ATOM     10  H13 UNL     1      45.617  17.538  54.811  1.00  0.00     0.274 HD
ATOM     11  H12 UNL     1      46.584  16.866  53.827  1.00  0.00     0.274 HD
ATOM     12  H11 UNL     1      46.978  18.440  54.337  1.00  0.00     0.274 HD
ENDBRANCH   8   9
ENDBRANCH   7   8
ENDBRANCH   1   7
TORSDOF 3
ENDMDL
