MODEL 6
REMARK VINA RESULT: -11.171625388      4.101      9.592
REMARK  3 active torsions:
REMARK  status: ('A' for Active; 'I' for Inactive)
REMARK    1  A    between atoms: C3_3  and  C4_4 
REMARK    2  A    between atoms: C7_7  and  C8_8 
REMARK    3  A    between atoms: C22_26  and  C23_27 
ROOT
HETATM    1  C1  UNL     1       6.644  27.869 118.767  1.00  0.00     0.052 C 
HETATM    2  C2  UNL     1       5.505  27.064 118.283  1.00  0.00    -0.017 A 
HETATM    3  C3  UNL     1       5.577  25.703 118.153  1.00  0.00     0.050 A 
HETATM    4  N1  UNL     1       4.484  25.064 117.689  1.00  0.00    -0.354 N 
ATOM      5  H1  UNL     1       4.523  24.049 117.587  1.00  0.00     0.166 HD
HETATM    6  C16 UNL     1       3.345  25.696 117.353  1.00  0.00     0.044 A 
HETATM    7  C17 UNL     1       2.249  25.016 116.882  1.00  0.00     0.033 A 
HETATM    8  C18 UNL     1       1.084  25.648 116.538  1.00  0.00     0.044 A 
HETATM    9  C19 UNL     1       1.023  27.009 116.672  1.00  0.00     0.117 A 
HETATM   10  F2  UNL     1      -0.120  27.668 116.338  1.00  0.00    -0.206 F 
HETATM   11  C20 UNL     1       2.110  27.713 117.143  1.00  0.00     0.057 A 
HETATM   12  C21 UNL     1       3.279  27.059 117.487  1.00  0.00     0.011 A 
HETATM   13  C22 UNL     1       4.357  27.781 117.955  1.00  0.00     0.061 A 
ENDROOT
BRANCH   3  14
HETATM   14  C4  UNL     1       6.801  25.013 118.503  1.00  0.00    -0.009 A 
HETATM   15  C5  UNL     1       7.343  24.130 117.564  1.00  0.00     0.014 A 
HETATM   16  C6  UNL     1       8.494  23.417 117.804  1.00  0.00     0.013 A 
HETATM   17  C7  UNL     1       9.162  23.554 119.000  1.00  0.00    -0.023 A 
HETATM   18  C14 UNL     1       8.651  24.417 119.940  1.00  0.00     0.013 A 
HETATM   19  C15 UNL     1       7.485  25.132 119.684  1.00  0.00     0.014 A 
BRANCH  17  20
HETATM   20  C8  UNL     1      10.385  22.774 119.212  1.00  0.00     0.013 A 
HETATM   21  C9  UNL     1      11.617  23.393 119.310  1.00  0.00     0.015 A 
HETATM   22  C10 UNL     1      12.762  22.660 119.509  1.00  0.00     0.001 A 
HETATM   23  C11 UNL     1      12.704  21.287 119.617  1.00  0.00     0.003 A 
HETATM   24  C12 UNL     1      11.490  20.660 119.523  1.00  0.00     0.043 A 
HETATM   25  C13 UNL     1      10.364  21.400 119.325  1.00  0.00     0.127 A 
HETATM   26  F1  UNL     1       9.139  20.783 119.229  1.00  0.00    -0.205 F 
ENDBRANCH  17  20
ENDBRANCH   3  14
BRANCH  13  27
HETATM   27  C23 UNL     1       4.278  29.229 118.093  1.00  0.00     0.210 C 
HETATM   28  O1  UNL     1       4.030  29.783 119.199  1.00  0.00    -0.644 OA
HETATM   29  O2  UNL     1       4.469  30.089 117.010  1.00  0.00    -0.644 OA
ENDBRANCH  13  27
TORSDOF 3
ENDMDL
