MODEL 1
REMARK VINA RESULT: -12.691685170      0.000      0.000
REMARK  3 active torsions:
REMARK  status: ('A' for Active; 'I' for Inactive)
REMARK    1  A    between atoms: C3_3  and  C4_4 
REMARK    2  A    between atoms: C7_7  and  C8_8 
REMARK    3  A    between atoms: C22_26  and  C23_27 
ROOT
HETATM    1  C1  UNL     1       8.208  21.208 118.832  1.00  0.00     0.052 C 
HETATM    2  C2  UNL     1       9.451  21.968 119.066  1.00  0.00    -0.017 A 
HETATM    3  C3  UNL     1       9.497  23.335 118.987  1.00  0.00     0.050 A 
HETATM    4  N1  UNL     1      10.686  23.931 119.205  1.00  0.00    -0.354 N 
ATOM      5  H1  UNL     1      10.736  24.949 119.150  1.00  0.00     0.166 HD
HETATM    6  C16 UNL     1      11.812  23.252 119.493  1.00  0.00     0.044 A 
HETATM    7  C17 UNL     1      13.009  23.890 119.710  1.00  0.00     0.033 A 
HETATM    8  C18 UNL     1      14.160  23.210 120.004  1.00  0.00     0.044 A 
HETATM    9  C19 UNL     1      14.103  21.844 120.082  1.00  0.00     0.117 A 
HETATM   10  F2  UNL     1      15.230  21.138 120.372  1.00  0.00    -0.206 F 
HETATM   11  C20 UNL     1      12.913  21.182 119.868  1.00  0.00     0.057 A 
HETATM   12  C21 UNL     1      11.759  21.884 119.572  1.00  0.00     0.011 A 
HETATM   13  C22 UNL     1      10.578  21.204 119.361  1.00  0.00     0.061 A 
ENDROOT
BRANCH   3  14
HETATM   14  C4  UNL     1       8.293  24.074 118.668  1.00  0.00    -0.009 A 
HETATM   15  C5  UNL     1       7.811  24.975 119.623  1.00  0.00     0.014 A 
HETATM   16  C6  UNL     1       6.669  25.715 119.424  1.00  0.00     0.013 A 
HETATM   17  C7  UNL     1       5.952  25.589 118.255  1.00  0.00    -0.023 A 
HETATM   18  C14 UNL     1       6.406  24.712 117.300  1.00  0.00     0.013 A 
HETATM   19  C15 UNL     1       7.563  23.969 117.515  1.00  0.00     0.014 A 
BRANCH  17  20
HETATM   20  C8  UNL     1       4.741  26.398 118.086  1.00  0.00     0.013 A 
HETATM   21  C9  UNL     1       3.486  25.855 118.288  1.00  0.00     0.015 A 
HETATM   22  C10 UNL     1       2.353  26.615 118.129  1.00  0.00     0.001 A 
HETATM   23  C11 UNL     1       2.446  27.942 117.764  1.00  0.00     0.003 A 
HETATM   24  C12 UNL     1       3.683  28.494 117.562  1.00  0.00     0.043 A 
HETATM   25  C13 UNL     1       4.797  27.728 117.722  1.00  0.00     0.127 A 
HETATM   26  F1  UNL     1       6.044  28.270 117.521  1.00  0.00    -0.205 F 
ENDBRANCH  17  20
ENDBRANCH   3  14
BRANCH  13  27
HETATM   27  C23 UNL     1      10.532  19.751 119.447  1.00  0.00     0.210 C 
HETATM   28  O1  UNL     1      10.422  19.148 120.550  1.00  0.00    -0.644 OA
HETATM   29  O2  UNL     1      10.607  18.938 118.314  1.00  0.00    -0.644 OA
ENDBRANCH  13  27
TORSDOF 3
ENDMDL
