MODEL 4
REMARK VINA RESULT: -11.652223621      1.047      1.334
REMARK  3 active torsions:
REMARK  status: ('A' for Active; 'I' for Inactive)
REMARK    1  A    between atoms: C3_3  and  C4_4 
REMARK    2  A    between atoms: C7_7  and  C8_8 
REMARK    3  A    between atoms: C22_26  and  C23_27 
ROOT
HETATM    1  C1  UNL     1       8.237  21.107 118.620  1.00  0.00     0.052 C 
HETATM    2  C2  UNL     1       9.444  21.913 118.887  1.00  0.00    -0.017 A 
HETATM    3  C3  UNL     1       9.454  23.276 118.758  1.00  0.00     0.050 A 
HETATM    4  N1  UNL     1      10.613  23.916 119.013  1.00  0.00    -0.354 N 
ATOM      5  H1  UNL     1      10.636  24.932 118.922  1.00  0.00     0.166 HD
HETATM    6  C16 UNL     1      11.742  23.283 119.382  1.00  0.00     0.044 A 
HETATM    7  C17 UNL     1      12.907  23.964 119.634  1.00  0.00     0.033 A 
HETATM    8  C18 UNL     1      14.061  23.331 120.010  1.00  0.00     0.044 A 
HETATM    9  C19 UNL     1      14.040  21.968 120.137  1.00  0.00     0.117 A 
HETATM   10  F2  UNL     1      15.171  21.308 120.509  1.00  0.00    -0.206 F 
HETATM   11  C20 UNL     1      12.882  21.263 119.889  1.00  0.00     0.057 A 
HETATM   12  C21 UNL     1      11.725  21.918 119.510  1.00  0.00     0.011 A 
HETATM   13  C22 UNL     1      10.576  21.194 119.266  1.00  0.00     0.061 A 
ENDROOT
BRANCH   3  14
HETATM   14  C4  UNL     1       8.248  23.966 118.353  1.00  0.00    -0.009 A 
HETATM   15  C5  UNL     1       7.606  24.767 119.302  1.00  0.00     0.014 A 
HETATM   16  C6  UNL     1       6.447  25.453 119.021  1.00  0.00     0.013 A 
HETATM   17  C7  UNL     1       5.873  25.370 117.773  1.00  0.00    -0.023 A 
HETATM   18  C14 UNL     1       6.485  24.590 116.822  1.00  0.00     0.013 A 
HETATM   19  C15 UNL     1       7.657  23.901 117.119  1.00  0.00     0.014 A 
BRANCH  17  20
HETATM   20  C8  UNL     1       4.638  26.119 117.519  1.00  0.00     0.013 A 
HETATM   21  C9  UNL     1       4.262  27.172 118.332  1.00  0.00     0.015 A 
HETATM   22  C10 UNL     1       3.105  27.872 118.091  1.00  0.00     0.001 A 
HETATM   23  C11 UNL     1       2.292  27.537 117.030  1.00  0.00     0.003 A 
HETATM   24  C12 UNL     1       2.651  26.496 116.215  1.00  0.00     0.043 A 
HETATM   25  C13 UNL     1       3.801  25.811 116.466  1.00  0.00     0.127 A 
HETATM   26  F1  UNL     1       4.173  24.764 115.657  1.00  0.00    -0.205 F 
ENDBRANCH  17  20
ENDBRANCH   3  14
BRANCH  13  27
HETATM   27  C23 UNL     1      10.567  19.745 119.404  1.00  0.00     0.210 C 
HETATM   28  O1  UNL     1      10.662  18.977 118.407  1.00  0.00    -0.644 OA
HETATM   29  O2  UNL     1      10.451  19.118 120.646  1.00  0.00    -0.644 OA
ENDBRANCH  13  27
TORSDOF 3
ENDMDL
