MODEL 7
REMARK VINA RESULT: -11.167781791      4.059      9.518
REMARK  3 active torsions:
REMARK  status: ('A' for Active; 'I' for Inactive)
REMARK    1  A    between atoms: C3_3  and  C4_4 
REMARK    2  A    between atoms: C7_7  and  C8_8 
REMARK    3  A    between atoms: C22_26  and  C23_27 
ROOT
HETATM    1  C1  UNL     1       6.624  27.900 118.790  1.00  0.00     0.052 C 
HETATM    2  C2  UNL     1       5.488  27.092 118.307  1.00  0.00    -0.017 A 
HETATM    3  C3  UNL     1       5.563  25.731 118.175  1.00  0.00     0.050 A 
HETATM    4  N1  UNL     1       4.472  25.089 117.712  1.00  0.00    -0.354 N 
ATOM      5  H1  UNL     1       4.513  24.075 117.609  1.00  0.00     0.166 HD
HETATM    6  C16 UNL     1       3.330  25.719 117.377  1.00  0.00     0.044 A 
HETATM    7  C17 UNL     1       2.236  25.036 116.907  1.00  0.00     0.033 A 
HETATM    8  C18 UNL     1       1.069  25.665 116.565  1.00  0.00     0.044 A 
HETATM    9  C19 UNL     1       1.004  27.026 116.700  1.00  0.00     0.117 A 
HETATM   10  F2  UNL     1      -0.142  27.682 116.368  1.00  0.00    -0.206 F 
HETATM   11  C20 UNL     1       2.089  27.733 117.170  1.00  0.00     0.057 A 
HETATM   12  C21 UNL     1       3.260  27.082 117.512  1.00  0.00     0.011 A 
HETATM   13  C22 UNL     1       4.337  27.807 117.980  1.00  0.00     0.061 A 
ENDROOT
BRANCH   3  14
HETATM   14  C4  UNL     1       6.790  25.045 118.523  1.00  0.00    -0.009 A 
HETATM   15  C5  UNL     1       7.333  24.166 117.582  1.00  0.00     0.014 A 
HETATM   16  C6  UNL     1       8.487  23.456 117.820  1.00  0.00     0.013 A 
HETATM   17  C7  UNL     1       9.155  23.593 119.017  1.00  0.00    -0.023 A 
HETATM   18  C14 UNL     1       8.642  24.452 119.958  1.00  0.00     0.013 A 
HETATM   19  C15 UNL     1       7.474  25.164 119.704  1.00  0.00     0.014 A 
BRANCH  17  20
HETATM   20  C8  UNL     1      10.381  22.817 119.227  1.00  0.00     0.013 A 
HETATM   21  C9  UNL     1      10.345  21.437 119.316  1.00  0.00     0.015 A 
HETATM   22  C10 UNL     1      11.496  20.712 119.512  1.00  0.00     0.001 A 
HETATM   23  C11 UNL     1      12.714  21.348 119.624  1.00  0.00     0.003 A 
HETATM   24  C12 UNL     1      12.764  22.714 119.537  1.00  0.00     0.043 A 
HETATM   25  C13 UNL     1      11.616  23.420 119.342  1.00  0.00     0.127 A 
HETATM   26  F1  UNL     1      11.653  24.791 119.253  1.00  0.00    -0.205 F 
ENDBRANCH  17  20
ENDBRANCH   3  14
BRANCH  13  27
HETATM   27  C23 UNL     1       4.254  29.254 118.119  1.00  0.00     0.210 C 
HETATM   28  O1  UNL     1       4.000  29.807 119.225  1.00  0.00    -0.644 OA
HETATM   29  O2  UNL     1       4.447  30.116 117.038  1.00  0.00    -0.644 OA
ENDBRANCH  13  27
TORSDOF 3
ENDMDL
