MODEL 2
REMARK VINA RESULT: -12.593432587      0.871      1.246
REMARK  3 active torsions:
REMARK  status: ('A' for Active; 'I' for Inactive)
REMARK    1  A    between atoms: C3_3  and  C4_4 
REMARK    2  A    between atoms: C7_7  and  C8_8 
REMARK    3  A    between atoms: C22_26  and  C23_27 
ROOT
HETATM    1  C1  UNL     1       8.163  21.259 118.811  1.00  0.00     0.052 C 
HETATM    2  C2  UNL     1       9.416  22.001 119.051  1.00  0.00    -0.017 A 
HETATM    3  C3  UNL     1       9.482  23.367 118.971  1.00  0.00     0.050 A 
HETATM    4  N1  UNL     1      10.679  23.946 119.194  1.00  0.00    -0.354 N 
ATOM      5  H1  UNL     1      10.743  24.963 119.139  1.00  0.00     0.166 HD
HETATM    6  C16 UNL     1      11.794  23.250 119.486  1.00  0.00     0.044 A 
HETATM    7  C17 UNL     1      12.999  23.871 119.708  1.00  0.00     0.033 A 
HETATM    8  C18 UNL     1      14.139  23.175 120.007  1.00  0.00     0.044 A 
HETATM    9  C19 UNL     1      14.062  21.810 120.085  1.00  0.00     0.117 A 
HETATM   10  F2  UNL     1      15.178  21.087 120.379  1.00  0.00    -0.206 F 
HETATM   11  C20 UNL     1      12.864  21.165 119.866  1.00  0.00     0.057 A 
HETATM   12  C21 UNL     1      11.721  21.883 119.566  1.00  0.00     0.011 A 
HETATM   13  C22 UNL     1      10.531  21.220 119.350  1.00  0.00     0.061 A 
ENDROOT
BRANCH   3  14
HETATM   14  C4  UNL     1       8.291  24.123 118.648  1.00  0.00    -0.009 A 
HETATM   15  C5  UNL     1       7.827  25.043 119.594  1.00  0.00     0.014 A 
HETATM   16  C6  UNL     1       6.697  25.801 119.390  1.00  0.00     0.013 A 
HETATM   17  C7  UNL     1       5.975  25.675 118.224  1.00  0.00    -0.023 A 
HETATM   18  C14 UNL     1       6.410  24.778 117.278  1.00  0.00     0.013 A 
HETATM   19  C15 UNL     1       7.555  24.018 117.497  1.00  0.00     0.014 A 
BRANCH  17  20
HETATM   20  C8  UNL     1       4.778  26.503 118.050  1.00  0.00     0.013 A 
HETATM   21  C9  UNL     1       4.879  27.856 117.786  1.00  0.00     0.015 A 
HETATM   22  C10 UNL     1       3.756  28.630 117.623  1.00  0.00     0.001 A 
HETATM   23  C11 UNL     1       2.500  28.070 117.717  1.00  0.00     0.003 A 
HETATM   24  C12 UNL     1       2.384  26.729 117.977  1.00  0.00     0.043 A 
HETATM   25  C13 UNL     1       3.506  25.975 118.137  1.00  0.00     0.127 A 
HETATM   26  F1  UNL     1       3.404  24.630 118.398  1.00  0.00    -0.205 F 
ENDBRANCH  17  20
ENDBRANCH   3  14
BRANCH  13  27
HETATM   27  C23 UNL     1      10.463  19.769 119.435  1.00  0.00     0.210 C 
HETATM   28  O1  UNL     1      10.313  19.169 120.536  1.00  0.00    -0.644 OA
HETATM   29  O2  UNL     1      10.562  18.953 118.306  1.00  0.00    -0.644 OA
ENDBRANCH  13  27
TORSDOF 3
ENDMDL
