MODEL 3
REMARK VINA RESULT: -12.120032906      0.365      1.132
REMARK  3 active torsions:
REMARK  status: ('A' for Active; 'I' for Inactive)
REMARK    1  A    between atoms: C3_3  and  C4_4 
REMARK    2  A    between atoms: C7_7  and  C8_8 
REMARK    3  A    between atoms: C22_26  and  C23_27 
ROOT
HETATM    1  C1  UNL     1       8.419  21.249 119.055  1.00  0.00     0.052 C 
HETATM    2  C2  UNL     1       9.652  22.034 119.257  1.00  0.00    -0.017 A 
HETATM    3  C3  UNL     1       9.658  23.403 119.236  1.00  0.00     0.050 A 
HETATM    4  N1  UNL     1      10.841  24.023 119.417  1.00  0.00    -0.354 N 
ATOM      5  H1  UNL     1      10.861  25.043 119.405  1.00  0.00     0.166 HD
HETATM    6  C16 UNL     1      11.998  23.365 119.615  1.00  0.00     0.044 A 
HETATM    7  C17 UNL     1      13.188  24.027 119.796  1.00  0.00     0.033 A 
HETATM    8  C18 UNL     1      14.371  23.368 119.998  1.00  0.00     0.044 A 
HETATM    9  C19 UNL     1      14.354  21.999 120.019  1.00  0.00     0.117 A 
HETATM   10  F2  UNL     1      15.513  21.314 120.217  1.00  0.00    -0.206 F 
HETATM   11  C20 UNL     1      13.172  21.313 119.839  1.00  0.00     0.057 A 
HETATM   12  C21 UNL     1      11.986  21.994 119.636  1.00  0.00     0.011 A 
HETATM   13  C22 UNL     1      10.813  21.290 119.458  1.00  0.00     0.061 A 
ENDROOT
BRANCH   3  14
HETATM   14  C4  UNL     1       8.420  24.121 119.015  1.00  0.00    -0.009 A 
HETATM   15  C5  UNL     1       7.742  23.895 117.813  1.00  0.00     0.014 A 
HETATM   16  C6  UNL     1       6.566  24.537 117.501  1.00  0.00     0.013 A 
HETATM   17  C7  UNL     1       6.009  25.438 118.380  1.00  0.00    -0.023 A 
HETATM   18  C14 UNL     1       6.656  25.677 119.569  1.00  0.00     0.013 A 
HETATM   19  C15 UNL     1       7.845  25.021 119.872  1.00  0.00     0.014 A 
BRANCH  17  20
HETATM   20  C8  UNL     1       4.755  26.098 118.006  1.00  0.00     0.013 A 
HETATM   21  C9  UNL     1       3.550  25.422 118.058  1.00  0.00     0.015 A 
HETATM   22  C10 UNL     1       2.376  26.042 117.707  1.00  0.00     0.001 A 
HETATM   23  C11 UNL     1       2.375  27.358 117.294  1.00  0.00     0.003 A 
HETATM   24  C12 UNL     1       3.562  28.040 117.238  1.00  0.00     0.043 A 
HETATM   25  C13 UNL     1       4.718  27.412 117.588  1.00  0.00     0.127 A 
HETATM   26  F1  UNL     1       5.915  28.085 117.536  1.00  0.00    -0.205 F 
ENDBRANCH  17  20
ENDBRANCH   3  14
BRANCH  13  27
HETATM   27  C23 UNL     1      10.810  19.834 119.481  1.00  0.00     0.210 C 
HETATM   28  O1  UNL     1      11.010  19.147 118.441  1.00  0.00    -0.644 OA
HETATM   29  O2  UNL     1      10.582  19.111 120.654  1.00  0.00    -0.644 OA
ENDBRANCH  13  27
TORSDOF 3
ENDMDL
