MODEL 8
REMARK VINA RESULT: -10.754346786      3.076      8.939
REMARK  3 active torsions:
REMARK  status: ('A' for Active; 'I' for Inactive)
REMARK    1  A    between atoms: C3_3  and  C4_4 
REMARK    2  A    between atoms: C7_7  and  C8_8 
REMARK    3  A    between atoms: C22_26  and  C23_27 
ROOT
HETATM    1  C1  UNL     1       7.838  25.163 120.322  1.00  0.00     0.052 C 
HETATM    2  C2  UNL     1       7.436  24.908 118.925  1.00  0.00    -0.017 A 
HETATM    3  C3  UNL     1       8.155  24.089 118.096  1.00  0.00     0.050 A 
HETATM    4  N1  UNL     1       7.709  23.935 116.833  1.00  0.00    -0.354 N 
ATOM      5  H1  UNL     1       8.234  23.327 116.205  1.00  0.00     0.166 HD
HETATM    6  C16 UNL     1       6.605  24.543 116.360  1.00  0.00     0.044 A 
HETATM    7  C17 UNL     1       6.178  24.365 115.067  1.00  0.00     0.033 A 
HETATM    8  C18 UNL     1       5.057  24.978 114.574  1.00  0.00     0.044 A 
HETATM    9  C19 UNL     1       4.345  25.795 115.410  1.00  0.00     0.117 A 
HETATM   10  F2  UNL     1       3.226  26.419 114.952  1.00  0.00    -0.206 F 
HETATM   11  C20 UNL     1       4.755  25.988 116.712  1.00  0.00     0.057 A 
HETATM   12  C21 UNL     1       5.889  25.362 117.194  1.00  0.00     0.011 A 
HETATM   13  C22 UNL     1       6.284  25.568 118.500  1.00  0.00     0.061 A 
ENDROOT
BRANCH   3  14
HETATM   14  C4  UNL     1       9.348  23.437 118.593  1.00  0.00    -0.009 A 
HETATM   15  C5  UNL     1       9.246  22.097 118.979  1.00  0.00     0.014 A 
HETATM   16  C6  UNL     1      10.318  21.392 119.477  1.00  0.00     0.013 A 
HETATM   17  C7  UNL     1      11.547  21.997 119.613  1.00  0.00    -0.023 A 
HETATM   18  C14 UNL     1      11.674  23.313 119.240  1.00  0.00     0.013 A 
HETATM   19  C15 UNL     1      10.582  24.015 118.738  1.00  0.00     0.014 A 
BRANCH  17  20
HETATM   20  C8  UNL     1      12.660  21.206 120.147  1.00  0.00     0.013 A 
HETATM   21  C9  UNL     1      12.505  19.865 120.444  1.00  0.00     0.015 A 
HETATM   22  C10 UNL     1      13.549  19.126 120.944  1.00  0.00     0.001 A 
HETATM   23  C11 UNL     1      14.779  19.711 121.161  1.00  0.00     0.003 A 
HETATM   24  C12 UNL     1      14.948  21.039 120.871  1.00  0.00     0.043 A 
HETATM   25  C13 UNL     1      13.903  21.758 120.376  1.00  0.00     0.127 A 
HETATM   26  F1  UNL     1      14.060  23.091 120.080  1.00  0.00    -0.205 F 
ENDBRANCH  17  20
ENDBRANCH   3  14
BRANCH  13  27
HETATM   27  C23 UNL     1       5.518  26.439 119.379  1.00  0.00     0.210 C 
HETATM   28  O1  UNL     1       4.601  25.999 120.126  1.00  0.00    -0.644 OA
HETATM   29  O2  UNL     1       5.749  27.815 119.447  1.00  0.00    -0.644 OA
ENDBRANCH  13  27
TORSDOF 3
ENDMDL
