MODEL 5
REMARK VINA RESULT: -11.449620527      1.181      1.236
REMARK  3 active torsions:
REMARK  status: ('A' for Active; 'I' for Inactive)
REMARK    1  A    between atoms: C3_3  and  C4_4 
REMARK    2  A    between atoms: C7_7  and  C8_8 
REMARK    3  A    between atoms: C22_26  and  C23_27 
ROOT
HETATM    1  C1  UNL     1       9.266  21.005 118.955  1.00  0.00     0.052 C 
HETATM    2  C2  UNL     1      10.358  21.964 119.212  1.00  0.00    -0.017 A 
HETATM    3  C3  UNL     1      10.190  23.316 119.069  1.00  0.00     0.050 A 
HETATM    4  N1  UNL     1      11.256  24.104 119.315  1.00  0.00    -0.354 N 
ATOM      5  H1  UNL     1      11.146  25.114 119.213  1.00  0.00     0.166 HD
HETATM    6  C16 UNL     1      12.457  23.628 119.690  1.00  0.00     0.044 A 
HETATM    7  C17 UNL     1      13.523  24.459 119.933  1.00  0.00     0.033 A 
HETATM    8  C18 UNL     1      14.750  23.986 120.315  1.00  0.00     0.044 A 
HETATM    9  C19 UNL     1      14.907  22.633 120.456  1.00  0.00     0.117 A 
HETATM   10  F2  UNL     1      16.114  22.130 120.834  1.00  0.00    -0.206 F 
HETATM   11  C20 UNL     1      13.851  21.780 120.218  1.00  0.00     0.057 A 
HETATM   12  C21 UNL     1      12.619  22.274 119.833  1.00  0.00     0.011 A 
HETATM   13  C22 UNL     1      11.574  21.404 119.598  1.00  0.00     0.061 A 
ENDROOT
BRANCH   3  14
HETATM   14  C4  UNL     1       8.904  23.838 118.657  1.00  0.00    -0.009 A 
HETATM   15  C5  UNL     1       8.230  24.682 119.544  1.00  0.00     0.014 A 
HETATM   16  C6  UNL     1       6.997  25.220 119.254  1.00  0.00     0.013 A 
HETATM   17  C7  UNL     1       6.378  24.937 118.058  1.00  0.00    -0.023 A 
HETATM   18  C14 UNL     1       7.020  24.110 117.168  1.00  0.00     0.013 A 
HETATM   19  C15 UNL     1       8.267  23.573 117.474  1.00  0.00     0.014 A 
BRANCH  17  20
HETATM   20  C8  UNL     1       5.065  25.532 117.792  1.00  0.00     0.013 A 
HETATM   21  C9  UNL     1       4.087  25.569 118.768  1.00  0.00     0.015 A 
HETATM   22  C10 UNL     1       2.857  26.127 118.516  1.00  0.00     0.001 A 
HETATM   23  C11 UNL     1       2.573  26.665 117.279  1.00  0.00     0.003 A 
HETATM   24  C12 UNL     1       3.532  26.637 116.302  1.00  0.00     0.043 A 
HETATM   25  C13 UNL     1       4.746  26.079 116.566  1.00  0.00     0.127 A 
HETATM   26  F1  UNL     1       5.718  26.044 115.594  1.00  0.00    -0.205 F 
ENDBRANCH  17  20
ENDBRANCH   3  14
BRANCH  13  27
HETATM   27  C23 UNL     1      11.755  19.967 119.752  1.00  0.00     0.210 C 
HETATM   28  O1  UNL     1      12.060  19.446 120.860  1.00  0.00    -0.644 OA
HETATM   29  O2  UNL     1      11.603  19.082 118.683  1.00  0.00    -0.644 OA
ENDBRANCH  13  27
TORSDOF 3
ENDMDL
