MODEL 8
REMARK VINA RESULT: -3.773492235      2.649      4.711
REMARK  4 active torsions:
REMARK  status: ('A' for Active; 'I' for Inactive)
REMARK    1  A    between atoms: N1_2  and  C4_5 
REMARK    2  A    between atoms: C4_5  and  C5_6 
REMARK    3  A    between atoms: C5_6  and  O1_7 
REMARK    4  A    between atoms: O1_7  and  C6_8 
ROOT
HETATM    1  C4  UNL     1     138.363 123.640  85.941  1.00  0.00     0.262 C 
ENDROOT
BRANCH   1   2
HETATM    2  N1  UNL     1     138.323 122.812  84.784  1.00  0.00    -0.077 N 
HETATM    3  C1  UNL     1     138.508 123.499  83.540  1.00  0.00     0.271 C 
HETATM    4  C2  UNL     1     139.312 121.731  84.853  1.00  0.00     0.271 C 
HETATM    5  C3  UNL     1     137.018 122.146  84.719  1.00  0.00     0.271 C 
ENDBRANCH   1   2
BRANCH   1   6
HETATM    6  C5  UNL     1     139.022 124.969  85.731  1.00  0.00     0.208 C 
BRANCH   6   7
HETATM    7  O1  UNL     1     139.566 125.476  86.935  1.00  0.00    -0.305 OA
BRANCH   7   8
HETATM    8  C6  UNL     1     138.643 125.978  87.867  1.00  0.00     0.372 C 
HETATM    9  N2  UNL     1     138.476 125.410  89.154  1.00  0.00    -0.032 NA
HETATM   10  O2  UNL     1     137.919 126.976  87.577  1.00  0.00    -0.242 OA
ENDBRANCH   7   8
ENDBRANCH   6   7
ENDBRANCH   1   6
TORSDOF 4
ENDMDL
