MODEL 3
REMARK VINA RESULT: -4.375070327      0.059      1.278
REMARK  4 active torsions:
REMARK  status: ('A' for Active; 'I' for Inactive)
REMARK    1  A    between atoms: N1_2  and  C4_5 
REMARK    2  A    between atoms: C4_5  and  C5_6 
REMARK    3  A    between atoms: C5_6  and  O1_7 
REMARK    4  A    between atoms: O1_7  and  C6_8 
ROOT
HETATM    1  C4  UNL     1     138.935 124.710  85.873  1.00  0.00     0.262 C 
ENDROOT
BRANCH   1   2
HETATM    2  N1  UNL     1     138.531 125.076  87.188  1.00  0.00    -0.077 N 
HETATM    3  C1  UNL     1     138.292 126.476  87.380  1.00  0.00     0.271 C 
HETATM    4  C2  UNL     1     137.328 124.351  87.609  1.00  0.00     0.271 C 
HETATM    5  C3  UNL     1     139.579 124.684  88.136  1.00  0.00     0.271 C 
ENDBRANCH   1   2
BRANCH   1   6
HETATM    6  C5  UNL     1     138.570 123.312  85.478  1.00  0.00     0.208 C 
BRANCH   6   7
HETATM    7  O1  UNL     1     138.566 123.153  84.071  1.00  0.00    -0.305 OA
BRANCH   7   8
HETATM    8  C6  UNL     1     137.554 122.334  83.544  1.00  0.00     0.372 C 
HETATM    9  N2  UNL     1     136.561 121.733  84.358  1.00  0.00    -0.032 NA
HETATM   10  O2  UNL     1     137.498 122.106  82.300  1.00  0.00    -0.242 OA
ENDBRANCH   7   8
ENDBRANCH   6   7
ENDBRANCH   1   6
TORSDOF 4
ENDMDL
