MODEL 4
REMARK VINA RESULT: -4.347558894      1.614      2.022
REMARK  4 active torsions:
REMARK  status: ('A' for Active; 'I' for Inactive)
REMARK    1  A    between atoms: N1_2  and  C4_5 
REMARK    2  A    between atoms: C4_5  and  C5_6 
REMARK    3  A    between atoms: C5_6  and  O1_7 
REMARK    4  A    between atoms: O1_7  and  C6_8 
ROOT
HETATM    1  C4  UNL     1     138.592 123.985  86.544  1.00  0.00     0.262 C 
ENDROOT
BRANCH   1   2
HETATM    2  N1  UNL     1     138.692 124.838  87.679  1.00  0.00    -0.077 N 
HETATM    3  C1  UNL     1     139.744 124.506  88.594  1.00  0.00     0.271 C 
HETATM    4  C2  UNL     1     138.857 126.242  87.292  1.00  0.00     0.271 C 
HETATM    5  C3  UNL     1     137.433 124.782  88.430  1.00  0.00     0.271 C 
ENDBRANCH   1   2
BRANCH   1   6
HETATM    6  C5  UNL     1     138.623 124.698  85.227  1.00  0.00     0.208 C 
BRANCH   6   7
HETATM    7  O1  UNL     1     139.293 123.936  84.239  1.00  0.00    -0.305 OA
BRANCH   7   8
HETATM    8  C6  UNL     1     138.536 123.588  83.108  1.00  0.00     0.372 C 
HETATM    9  N2  UNL     1     138.867 124.034  81.804  1.00  0.00    -0.032 NA
HETATM   10  O2  UNL     1     137.514 122.849  83.225  1.00  0.00    -0.242 OA
ENDBRANCH   7   8
ENDBRANCH   6   7
ENDBRANCH   1   6
TORSDOF 4
ENDMDL
