MODEL 2
REMARK VINA RESULT: -4.413083299      0.047      1.279
REMARK  4 active torsions:
REMARK  status: ('A' for Active; 'I' for Inactive)
REMARK    1  A    between atoms: N1_2  and  C4_5 
REMARK    2  A    between atoms: C4_5  and  C5_6 
REMARK    3  A    between atoms: C5_6  and  O1_7 
REMARK    4  A    between atoms: O1_7  and  C6_8 
ROOT
HETATM    1  C4  UNL     1     138.932 124.700  85.878  1.00  0.00     0.262 C 
ENDROOT
BRANCH   1   2
HETATM    2  N1  UNL     1     138.583 125.029  87.219  1.00  0.00    -0.077 N 
HETATM    3  C1  UNL     1     139.555 124.659  88.205  1.00  0.00     0.271 C 
HETATM    4  C2  UNL     1     138.305 126.460  87.373  1.00  0.00     0.271 C 
HETATM    5  C3  UNL     1     137.333 124.346  87.568  1.00  0.00     0.271 C 
ENDBRANCH   1   2
BRANCH   1   6
HETATM    6  C5  UNL     1     138.559 123.310  85.463  1.00  0.00     0.208 C 
BRANCH   6   7
HETATM    7  O1  UNL     1     138.545 123.174  84.055  1.00  0.00    -0.305 OA
BRANCH   7   8
HETATM    8  C6  UNL     1     137.541 122.348  83.523  1.00  0.00     0.372 C 
HETATM    9  N2  UNL     1     136.546 121.743  84.331  1.00  0.00    -0.032 NA
HETATM   10  O2  UNL     1     137.495 122.116  82.278  1.00  0.00    -0.242 OA
ENDBRANCH   7   8
ENDBRANCH   6   7
ENDBRANCH   1   6
TORSDOF 4
ENDMDL
