MODEL 1
REMARK VINA RESULT: -4.418294906      0.000      0.000
REMARK  4 active torsions:
REMARK  status: ('A' for Active; 'I' for Inactive)
REMARK    1  A    between atoms: N1_2  and  C4_5 
REMARK    2  A    between atoms: C4_5  and  C5_6 
REMARK    3  A    between atoms: C5_6  and  O1_7 
REMARK    4  A    between atoms: O1_7  and  C6_8 
ROOT
HETATM    1  C4  UNL     1     138.939 124.690  85.904  1.00  0.00     0.262 C 
ENDROOT
BRANCH   1   2
HETATM    2  N1  UNL     1     138.535 124.999  87.234  1.00  0.00    -0.077 N 
HETATM    3  C1  UNL     1     137.322 124.367  87.661  1.00  0.00     0.271 C 
HETATM    4  C2  UNL     1     139.581 124.674  88.210  1.00  0.00     0.271 C 
HETATM    5  C3  UNL     1     138.330 126.447  87.345  1.00  0.00     0.271 C 
ENDBRANCH   1   2
BRANCH   1   6
HETATM    6  C5  UNL     1     138.575 123.309  85.450  1.00  0.00     0.208 C 
BRANCH   6   7
HETATM    7  O1  UNL     1     138.509 123.227  84.039  1.00  0.00    -0.305 OA
BRANCH   7   8
HETATM    8  C6  UNL     1     137.539 122.356  83.515  1.00  0.00     0.372 C 
HETATM    9  N2  UNL     1     136.566 121.724  84.328  1.00  0.00    -0.032 NA
HETATM   10  O2  UNL     1     137.506 122.107  82.274  1.00  0.00    -0.242 OA
ENDBRANCH   7   8
ENDBRANCH   6   7
ENDBRANCH   1   6
TORSDOF 4
ENDMDL
