MODEL 5
REMARK VINA RESULT: -4.243441008      1.135      1.526
REMARK  4 active torsions:
REMARK  status: ('A' for Active; 'I' for Inactive)
REMARK    1  A    between atoms: N1_2  and  C4_5 
REMARK    2  A    between atoms: C4_5  and  C5_6 
REMARK    3  A    between atoms: C5_6  and  O1_7 
REMARK    4  A    between atoms: O1_7  and  C6_8 
ROOT
HETATM    1  C4  UNL     1     137.515 123.745  86.979  1.00  0.00     0.262 C 
ENDROOT
BRANCH   1   2
HETATM    2  N1  UNL     1     138.373 124.864  87.176  1.00  0.00    -0.077 N 
HETATM    3  C1  UNL     1     137.702 126.113  87.382  1.00  0.00     0.271 C 
HETATM    4  C2  UNL     1     139.291 124.654  88.299  1.00  0.00     0.271 C 
HETATM    5  C3  UNL     1     139.227 125.024  85.994  1.00  0.00     0.271 C 
ENDBRANCH   1   2
BRANCH   1   6
HETATM    6  C5  UNL     1     137.894 122.866  85.827  1.00  0.00     0.208 C 
BRANCH   6   7
HETATM    7  O1  UNL     1     136.805 122.072  85.397  1.00  0.00    -0.305 OA
BRANCH   7   8
HETATM    8  C6  UNL     1     136.767 121.762  84.027  1.00  0.00     0.372 C 
HETATM    9  N2  UNL     1     136.007 120.682  83.512  1.00  0.00    -0.032 NA
HETATM   10  O2  UNL     1     137.426 122.454  83.196  1.00  0.00    -0.242 OA
ENDBRANCH   7   8
ENDBRANCH   6   7
ENDBRANCH   1   6
TORSDOF 4
ENDMDL
