MODEL 6
REMARK VINA RESULT: -3.843861980      2.631      4.716
REMARK  4 active torsions:
REMARK  status: ('A' for Active; 'I' for Inactive)
REMARK    1  A    between atoms: N1_2  and  C4_5 
REMARK    2  A    between atoms: C4_5  and  C5_6 
REMARK    3  A    between atoms: C5_6  and  O1_7 
REMARK    4  A    between atoms: O1_7  and  C6_8 
ROOT
HETATM    1  C4  UNL     1     138.376 123.608  85.959  1.00  0.00     0.262 C 
ENDROOT
BRANCH   1   2
HETATM    2  N1  UNL     1     138.272 122.786  84.802  1.00  0.00    -0.077 N 
HETATM    3  C1  UNL     1     137.012 122.121  84.642  1.00  0.00     0.271 C 
HETATM    4  C2  UNL     1     138.543 123.540  83.573  1.00  0.00     0.271 C 
HETATM    5  C3  UNL     1     139.304 121.746  84.861  1.00  0.00     0.271 C 
ENDBRANCH   1   2
BRANCH   1   6
HETATM    6  C5  UNL     1     139.000 124.947  85.716  1.00  0.00     0.208 C 
BRANCH   6   7
HETATM    7  O1  UNL     1     139.558 125.484  86.901  1.00  0.00    -0.305 OA
BRANCH   7   8
HETATM    8  C6  UNL     1     138.644 125.981  87.845  1.00  0.00     0.372 C 
HETATM    9  N2  UNL     1     138.500 125.414  89.136  1.00  0.00    -0.032 NA
HETATM   10  O2  UNL     1     137.908 126.972  87.563  1.00  0.00    -0.242 OA
ENDBRANCH   7   8
ENDBRANCH   6   7
ENDBRANCH   1   6
TORSDOF 4
ENDMDL
