MODEL 7
REMARK VINA RESULT: -3.801969624      2.637      4.711
REMARK  4 active torsions:
REMARK  status: ('A' for Active; 'I' for Inactive)
REMARK    1  A    between atoms: N1_2  and  C4_5 
REMARK    2  A    between atoms: C4_5  and  C5_6 
REMARK    3  A    between atoms: C5_6  and  O1_7 
REMARK    4  A    between atoms: O1_7  and  C6_8 
ROOT
HETATM    1  C4  UNL     1     138.319 123.639  85.955  1.00  0.00     0.262 C 
ENDROOT
BRANCH   1   2
HETATM    2  N1  UNL     1     138.323 122.765  84.831  1.00  0.00    -0.077 N 
HETATM    3  C1  UNL     1     139.314 121.731  84.872  1.00  0.00     0.271 C 
HETATM    4  C2  UNL     1     137.016 122.129  84.632  1.00  0.00     0.271 C 
HETATM    5  C3  UNL     1     138.567 123.550  83.617  1.00  0.00     0.271 C 
ENDBRANCH   1   2
BRANCH   1   6
HETATM    6  C5  UNL     1     139.004 124.951  85.723  1.00  0.00     0.208 C 
BRANCH   6   7
HETATM    7  O1  UNL     1     139.553 125.470  86.920  1.00  0.00    -0.305 OA
BRANCH   7   8
HETATM    8  C6  UNL     1     138.634 125.973  87.855  1.00  0.00     0.372 C 
HETATM    9  N2  UNL     1     138.487 125.420  89.152  1.00  0.00    -0.032 NA
HETATM   10  O2  UNL     1     137.894 126.958  87.560  1.00  0.00    -0.242 OA
ENDBRANCH   7   8
ENDBRANCH   6   7
ENDBRANCH   1   6
TORSDOF 4
ENDMDL
