MODEL 1
REMARK VINA RESULT: -9.767704360      0.000      0.000
REMARK  8 active torsions:
REMARK  status: ('A' for Active; 'I' for Inactive)
REMARK    1  A    between atoms: C4_4  and  N1_5 
REMARK    2  A    between atoms: N1_5  and  S1_7 
REMARK    3  A    between atoms: S1_7  and  C5_10 
REMARK    4  A    between atoms: C12_17  and  O3_18 
REMARK    5  A    between atoms: O3_18  and  C13_19 
REMARK    6  A    between atoms: C13_19  and  C14_20 
REMARK    7  A    between atoms: C14_20  and  N2_21 
REMARK    8  A    between atoms: N2_21  and  C15_23 
ROOT
HETATM    1  C1  UNL     1      54.000  62.273  44.915  1.00  0.00     0.048 C 
HETATM    2  C2  UNL     1      53.235  61.007  45.132  1.00  0.00    -0.057 A 
HETATM    3  C3  UNL     1      53.423  60.327  46.319  1.00  0.00     0.037 A 
HETATM    4  C4  UNL     1      52.707  59.163  46.494  1.00  0.00     0.045 A 
HETATM    5  C11 UNL     1      51.835  58.728  45.479  1.00  0.00     0.066 A 
HETATM    6  C12 UNL     1      51.654  59.409  44.303  1.00  0.00     0.071 A 
HETATM    7  C20 UNL     1      52.380  60.577  44.139  1.00  0.00     0.043 A 
ENDROOT
BRANCH   6   8
HETATM    8  O3  UNL     1      50.778  58.916  43.353  1.00  0.00    -0.349 OA
BRANCH   8   9
HETATM    9  C13 UNL     1      50.820  59.267  41.996  1.00  0.00     0.195 C 
BRANCH   9  10
HETATM   10  C14 UNL     1      50.235  58.114  41.209  1.00  0.00     0.146 C 
BRANCH  10  11
HETATM   11  N2  UNL     1      49.151  58.592  40.386  1.00  0.00    -0.388 N 
ATOM     12  H2  UNL     1      49.290  59.405  39.785  1.00  0.00     0.159 HD
BRANCH  11  13
HETATM   13  C15 UNL     1      47.884  57.934  40.410  1.00  0.00     0.030 A 
HETATM   14  C16 UNL     1      47.829  56.584  40.681  1.00  0.00     0.046 A 
HETATM   15  C17 UNL     1      46.597  55.946  40.703  1.00  0.00     0.089 A 
HETATM   16  N3  UNL     1      45.471  56.651  40.461  1.00  0.00    -0.375 N 
HETATM   17  C18 UNL     1      45.475  57.965  40.193  1.00  0.00     0.089 A 
ATOM     18  H3  UNL     1      44.576  56.161  40.483  1.00  0.00     0.164 HD
HETATM   19  C19 UNL     1      46.703  58.607  40.169  1.00  0.00     0.046 A 
ENDBRANCH  11  13
ENDBRANCH  10  11
ENDBRANCH   9  10
ENDBRANCH   8   9
ENDBRANCH   6   8
BRANCH   4  20
HETATM   20  N1  UNL     1      52.823  58.414  47.686  1.00  0.00    -0.281 N 
ATOM     21  H1  UNL     1      53.071  57.428  47.602  1.00  0.00     0.179 HD
BRANCH  20  22
HETATM   22  S1  UNL     1      52.579  59.033  49.253  1.00  0.00     0.263 S 
HETATM   23  O1  UNL     1      53.889  59.585  49.807  1.00  0.00    -0.200 OA
HETATM   24  O2  UNL     1      52.218  57.905  50.216  1.00  0.00    -0.200 OA
BRANCH  22  25
HETATM   25  C5  UNL     1      51.315  60.213  49.392  1.00  0.00     0.079 A 
HETATM   26  C6  UNL     1      49.998  59.791  49.262  1.00  0.00     0.025 A 
HETATM   27  C7  UNL     1      48.986  60.705  49.394  1.00  0.00     0.002 A 
HETATM   28  C8  UNL     1      49.217  62.032  49.650  1.00  0.00     0.000 A 
HETATM   29  C9  UNL     1      50.505  62.458  49.778  1.00  0.00     0.002 A 
HETATM   30  C10 UNL     1      51.542  61.563  49.651  1.00  0.00     0.025 A 
ENDBRANCH  22  25
ENDBRANCH  20  22
ENDBRANCH   4  20
TORSDOF 8
ENDMDL
