MODEL 10
REMARK VINA RESULT: -8.369171127      2.986      5.225
REMARK  8 active torsions:
REMARK  status: ('A' for Active; 'I' for Inactive)
REMARK    1  A    between atoms: C4_4  and  N1_5 
REMARK    2  A    between atoms: N1_5  and  S1_7 
REMARK    3  A    between atoms: S1_7  and  C5_10 
REMARK    4  A    between atoms: C12_17  and  O3_18 
REMARK    5  A    between atoms: O3_18  and  C13_19 
REMARK    6  A    between atoms: C13_19  and  C14_20 
REMARK    7  A    between atoms: C14_20  and  N2_21 
REMARK    8  A    between atoms: N2_21  and  C15_23 
ROOT
HETATM    1  C1  UNL     1      53.315  61.404  45.897  1.00  0.00     0.048 C 
HETATM    2  C2  UNL     1      52.609  60.293  45.188  1.00  0.00    -0.057 A 
HETATM    3  C3  UNL     1      52.359  59.129  45.887  1.00  0.00     0.037 A 
HETATM    4  C4  UNL     1      51.708  58.121  45.212  1.00  0.00     0.045 A 
HETATM    5  C11 UNL     1      51.334  58.315  43.869  1.00  0.00     0.066 A 
HETATM    6  C12 UNL     1      51.587  59.475  43.181  1.00  0.00     0.071 A 
HETATM    7  C20 UNL     1      52.243  60.481  43.872  1.00  0.00     0.043 A 
ENDROOT
BRANCH   6   8
HETATM    8  O3  UNL     1      51.189  59.590  41.863  1.00  0.00    -0.349 OA
BRANCH   8   9
HETATM    9  C13 UNL     1      51.722  58.824  40.816  1.00  0.00     0.195 C 
BRANCH   9  10
HETATM   10  C14 UNL     1      50.630  57.897  40.328  1.00  0.00     0.146 C 
BRANCH  10  11
HETATM   11  N2  UNL     1      49.364  58.589  40.347  1.00  0.00    -0.388 N 
ATOM     12  H2  UNL     1      49.343  59.609  40.349  1.00  0.00     0.159 HD
BRANCH  11  13
HETATM   13  C15 UNL     1      48.140  57.853  40.364  1.00  0.00     0.030 A 
HETATM   14  C16 UNL     1      48.177  56.486  40.533  1.00  0.00     0.046 A 
HETATM   15  C17 UNL     1      46.987  55.772  40.549  1.00  0.00     0.089 A 
HETATM   16  N3  UNL     1      45.812  56.421  40.400  1.00  0.00    -0.375 N 
HETATM   17  C18 UNL     1      45.728  57.749  40.233  1.00  0.00     0.089 A 
ATOM     18  H3  UNL     1      44.950  55.876  40.416  1.00  0.00     0.164 HD
HETATM   19  C19 UNL     1      46.913  58.467  40.216  1.00  0.00     0.046 A 
ENDBRANCH  11  13
ENDBRANCH  10  11
ENDBRANCH   9  10
ENDBRANCH   8   9
ENDBRANCH   6   8
BRANCH   4  20
HETATM   20  N1  UNL     1      51.393  56.903  45.856  1.00  0.00    -0.281 N 
ATOM     21  H1  UNL     1      50.763  56.942  46.657  1.00  0.00     0.179 HD
BRANCH  20  22
HETATM   22  S1  UNL     1      51.987  55.377  45.395  1.00  0.00     0.263 S 
HETATM   23  O1  UNL     1      51.061  54.278  45.910  1.00  0.00    -0.200 OA
HETATM   24  O2  UNL     1      53.316  55.094  46.092  1.00  0.00    -0.200 OA
BRANCH  22  25
HETATM   25  C5  UNL     1      52.278  55.180  43.697  1.00  0.00     0.079 A 
HETATM   26  C6  UNL     1      53.525  55.529  43.193  1.00  0.00     0.025 A 
HETATM   27  C7  UNL     1      53.779  55.356  41.858  1.00  0.00     0.002 A 
HETATM   28  C8  UNL     1      52.850  54.850  40.987  1.00  0.00     0.000 A 
HETATM   29  C9  UNL     1      51.623  54.505  41.469  1.00  0.00     0.002 A 
HETATM   30  C10 UNL     1      51.338  54.667  42.805  1.00  0.00     0.025 A 
ENDBRANCH  22  25
ENDBRANCH  20  22
ENDBRANCH   4  20
TORSDOF 8
ENDMDL
