MODEL 15
REMARK VINA RESULT: -8.353209198      3.396      8.362
REMARK  8 active torsions:
REMARK  status: ('A' for Active; 'I' for Inactive)
REMARK    1  A    between atoms: C4_4  and  N1_5 
REMARK    2  A    between atoms: N1_5  and  S1_7 
REMARK    3  A    between atoms: S1_7  and  C5_10 
REMARK    4  A    between atoms: C12_17  and  O3_18 
REMARK    5  A    between atoms: O3_18  and  C13_19 
REMARK    6  A    between atoms: C13_19  and  C14_20 
REMARK    7  A    between atoms: C14_20  and  N2_21 
REMARK    8  A    between atoms: N2_21  and  C15_23 
ROOT
HETATM    1  C1  UNL     1      53.753  61.721  45.283  1.00  0.00     0.048 C 
HETATM    2  C2  UNL     1      52.782  60.651  44.899  1.00  0.00    -0.057 A 
HETATM    3  C3  UNL     1      52.258  60.675  43.622  1.00  0.00     0.037 A 
HETATM    4  C4  UNL     1      51.365  59.680  43.292  1.00  0.00     0.045 A 
HETATM    5  C11 UNL     1      51.033  58.703  44.250  1.00  0.00     0.066 A 
HETATM    6  C12 UNL     1      51.559  58.686  45.517  1.00  0.00     0.071 A 
HETATM    7  C20 UNL     1      52.454  59.693  45.835  1.00  0.00     0.043 A 
ENDROOT
BRANCH   6   8
HETATM    8  O3  UNL     1      51.183  57.692  46.401  1.00  0.00    -0.349 OA
BRANCH   8   9
HETATM    9  C13 UNL     1      50.077  57.787  47.258  1.00  0.00     0.195 C 
BRANCH   9  10
HETATM   10  C14 UNL     1      50.580  57.605  48.674  1.00  0.00     0.146 C 
BRANCH  10  11
HETATM   11  N2  UNL     1      49.827  58.453  49.566  1.00  0.00    -0.388 N 
ATOM     12  H2  UNL     1      49.075  58.057  50.129  1.00  0.00     0.159 HD
BRANCH  11  13
HETATM   13  C15 UNL     1      50.131  59.845  49.664  1.00  0.00     0.030 A 
HETATM   14  C16 UNL     1      49.177  60.771  49.302  1.00  0.00     0.046 A 
HETATM   15  C17 UNL     1      49.474  62.123  49.397  1.00  0.00     0.089 A 
HETATM   16  N3  UNL     1      50.687  62.515  49.842  1.00  0.00    -0.375 N 
HETATM   17  C18 UNL     1      51.646  61.651  50.206  1.00  0.00     0.089 A 
ATOM     18  H3  UNL     1      50.883  63.515  49.905  1.00  0.00     0.164 HD
HETATM   19  C19 UNL     1      51.355  60.300  50.112  1.00  0.00     0.046 A 
ENDBRANCH  11  13
ENDBRANCH  10  11
ENDBRANCH   9  10
ENDBRANCH   8   9
ENDBRANCH   6   8
BRANCH   4  20
HETATM   20  N1  UNL     1      50.795  59.616  42.001  1.00  0.00    -0.281 N 
ATOM     21  H1  UNL     1      50.555  60.497  41.547  1.00  0.00     0.179 HD
BRANCH  20  22
HETATM   22  S1  UNL     1      50.480  58.179  41.146  1.00  0.00     0.263 S 
HETATM   23  O1  UNL     1      50.099  58.501  39.704  1.00  0.00    -0.200 OA
HETATM   24  O2  UNL     1      49.240  57.490  41.710  1.00  0.00    -0.200 OA
BRANCH  22  25
HETATM   25  C5  UNL     1      51.752  57.000  41.190  1.00  0.00     0.079 A 
HETATM   26  C6  UNL     1      51.430  55.669  40.952  1.00  0.00     0.025 A 
HETATM   27  C7  UNL     1      52.427  54.729  40.959  1.00  0.00     0.002 A 
HETATM   28  C8  UNL     1      53.740  55.045  41.191  1.00  0.00     0.000 A 
HETATM   29  C9  UNL     1      54.068  56.346  41.426  1.00  0.00     0.002 A 
HETATM   30  C10 UNL     1      53.089  57.313  41.426  1.00  0.00     0.025 A 
ENDBRANCH  22  25
ENDBRANCH  20  22
ENDBRANCH   4  20
TORSDOF 8
ENDMDL
