MODEL 7
REMARK VINA RESULT: -8.690148728      1.401      1.984
REMARK  8 active torsions:
REMARK  status: ('A' for Active; 'I' for Inactive)
REMARK    1  A    between atoms: C4_4  and  N1_5 
REMARK    2  A    between atoms: N1_5  and  S1_7 
REMARK    3  A    between atoms: S1_7  and  C5_10 
REMARK    4  A    between atoms: C12_17  and  O3_18 
REMARK    5  A    between atoms: O3_18  and  C13_19 
REMARK    6  A    between atoms: C13_19  and  C14_20 
REMARK    7  A    between atoms: C14_20  and  N2_21 
REMARK    8  A    between atoms: N2_21  and  C15_23 
ROOT
HETATM    1  C1  UNL     1      53.703  61.834  45.123  1.00  0.00     0.048 C 
HETATM    2  C2  UNL     1      52.794  60.702  44.767  1.00  0.00    -0.057 A 
HETATM    3  C3  UNL     1      52.185  60.008  45.793  1.00  0.00     0.037 A 
HETATM    4  C4  UNL     1      51.352  58.969  45.439  1.00  0.00     0.045 A 
HETATM    5  C11 UNL     1      51.164  58.667  44.077  1.00  0.00     0.066 A 
HETATM    6  C12 UNL     1      51.774  59.361  43.064  1.00  0.00     0.071 A 
HETATM    7  C20 UNL     1      52.608  60.402  43.434  1.00  0.00     0.043 A 
ENDROOT
BRANCH   6   8
HETATM    8  O3  UNL     1      51.538  59.002  41.750  1.00  0.00    -0.349 OA
BRANCH   8   9
HETATM    9  C13 UNL     1      52.354  58.125  41.021  1.00  0.00     0.195 C 
BRANCH   9  10
HETATM   10  C14 UNL     1      51.505  57.515  39.927  1.00  0.00     0.146 C 
BRANCH  10  11
HETATM   11  N2  UNL     1      50.556  56.597  40.508  1.00  0.00    -0.388 N 
ATOM     12  H2  UNL     1      50.887  55.801  41.054  1.00  0.00     0.159 HD
BRANCH  11  13
HETATM   13  C15 UNL     1      49.154  56.796  40.322  1.00  0.00     0.030 A 
HETATM   14  C16 UNL     1      48.714  57.921  39.659  1.00  0.00     0.046 A 
HETATM   15  C17 UNL     1      47.352  58.114  39.480  1.00  0.00     0.089 A 
HETATM   16  N3  UNL     1      46.476  57.201  39.954  1.00  0.00    -0.375 N 
HETATM   17  C18 UNL     1      46.857  56.092  40.604  1.00  0.00     0.089 A 
ATOM     18  H3  UNL     1      45.479  57.363  39.809  1.00  0.00     0.164 HD
HETATM   19  C19 UNL     1      48.216  55.896  40.786  1.00  0.00     0.046 A 
ENDBRANCH  11  13
ENDBRANCH  10  11
ENDBRANCH   9  10
ENDBRANCH   8   9
ENDBRANCH   6   8
BRANCH   4  20
HETATM   20  N1  UNL     1      50.672  58.218  46.423  1.00  0.00    -0.281 N 
ATOM     21  H1  UNL     1      49.947  57.573  46.107  1.00  0.00     0.179 HD
BRANCH  20  22
HETATM   22  S1  UNL     1      50.971  58.308  48.096  1.00  0.00     0.263 S 
HETATM   23  O1  UNL     1      52.363  57.768  48.408  1.00  0.00    -0.200 OA
HETATM   24  O2  UNL     1      50.034  57.369  48.851  1.00  0.00    -0.200 OA
BRANCH  22  25
HETATM   25  C5  UNL     1      50.755  59.878  48.801  1.00  0.00     0.079 A 
HETATM   26  C6  UNL     1      51.868  60.532  49.315  1.00  0.00     0.025 A 
HETATM   27  C7  UNL     1      51.719  61.783  49.853  1.00  0.00     0.002 A 
HETATM   28  C8  UNL     1      50.510  62.426  49.908  1.00  0.00     0.000 A 
HETATM   29  C9  UNL     1      49.411  61.795  49.407  1.00  0.00     0.002 A 
HETATM   30  C10 UNL     1      49.529  60.538  48.861  1.00  0.00     0.025 A 
ENDBRANCH  22  25
ENDBRANCH  20  22
ENDBRANCH   4  20
TORSDOF 8
ENDMDL
