MODEL 2
REMARK VINA RESULT: -8.984976344      1.226      1.770
REMARK  8 active torsions:
REMARK  status: ('A' for Active; 'I' for Inactive)
REMARK    1  A    between atoms: C4_4  and  N1_5 
REMARK    2  A    between atoms: N1_5  and  S1_7 
REMARK    3  A    between atoms: S1_7  and  C5_10 
REMARK    4  A    between atoms: C12_17  and  O3_18 
REMARK    5  A    between atoms: O3_18  and  C13_19 
REMARK    6  A    between atoms: C13_19  and  C14_20 
REMARK    7  A    between atoms: C14_20  and  N2_21 
REMARK    8  A    between atoms: N2_21  and  C15_23 
ROOT
HETATM    1  C1  UNL     1      54.035  62.264  44.800  1.00  0.00     0.048 C 
HETATM    2  C2  UNL     1      53.176  61.061  45.021  1.00  0.00    -0.057 A 
HETATM    3  C3  UNL     1      53.142  60.507  46.285  1.00  0.00     0.037 A 
HETATM    4  C4  UNL     1      52.343  59.399  46.462  1.00  0.00     0.045 A 
HETATM    5  C11 UNL     1      51.613  58.891  45.371  1.00  0.00     0.066 A 
HETATM    6  C12 UNL     1      51.652  59.447  44.118  1.00  0.00     0.071 A 
HETATM    7  C20 UNL     1      52.459  60.560  43.954  1.00  0.00     0.043 A 
ENDROOT
BRANCH   6   8
HETATM    8  O3  UNL     1      50.906  58.889  43.097  1.00  0.00    -0.349 OA
BRANCH   8   9
HETATM    9  C13 UNL     1      51.094  59.185  41.740  1.00  0.00     0.195 C 
BRANCH   9  10
HETATM   10  C14 UNL     1      50.349  58.142  40.937  1.00  0.00     0.146 C 
BRANCH  10  11
HETATM   11  N2  UNL     1      49.117  58.704  40.439  1.00  0.00    -0.388 N 
ATOM     12  H2  UNL     1      49.104  59.658  40.078  1.00  0.00     0.159 HD
BRANCH  11  13
HETATM   13  C15 UNL     1      47.916  57.932  40.451  1.00  0.00     0.030 A 
HETATM   14  C16 UNL     1      47.990  56.572  40.656  1.00  0.00     0.046 A 
HETATM   15  C17 UNL     1      46.822  55.823  40.667  1.00  0.00     0.089 A 
HETATM   16  N3  UNL     1      45.631  56.432  40.478  1.00  0.00    -0.375 N 
HETATM   17  C18 UNL     1      45.510  57.752  40.275  1.00  0.00     0.089 A 
ATOM     18  H3  UNL     1      44.785  55.862  40.490  1.00  0.00     0.164 HD
HETATM   19  C19 UNL     1      46.674  58.504  40.263  1.00  0.00     0.046 A 
ENDBRANCH  11  13
ENDBRANCH  10  11
ENDBRANCH   9  10
ENDBRANCH   8   9
ENDBRANCH   6   8
BRANCH   4  20
HETATM   20  N1  UNL     1      52.233  58.780  47.727  1.00  0.00    -0.281 N 
ATOM     21  H1  UNL     1      52.778  57.933  47.887  1.00  0.00     0.179 HD
BRANCH  20  22
HETATM   22  S1  UNL     1      51.259  59.342  49.004  1.00  0.00     0.263 S 
HETATM   23  O1  UNL     1      50.907  58.189  49.940  1.00  0.00    -0.200 OA
HETATM   24  O2  UNL     1      49.908  59.810  48.472  1.00  0.00    -0.200 OA
BRANCH  22  25
HETATM   25  C5  UNL     1      51.915  60.674  49.901  1.00  0.00     0.079 A 
HETATM   26  C6  UNL     1      51.874  61.940  49.332  1.00  0.00     0.025 A 
HETATM   27  C7  UNL     1      52.365  63.007  50.037  1.00  0.00     0.002 A 
HETATM   28  C8  UNL     1      52.901  62.880  51.292  1.00  0.00     0.000 A 
HETATM   29  C9  UNL     1      52.947  61.643  51.861  1.00  0.00     0.002 A 
HETATM   30  C10 UNL     1      52.462  60.553  51.177  1.00  0.00     0.025 A 
ENDBRANCH  22  25
ENDBRANCH  20  22
ENDBRANCH   4  20
TORSDOF 8
ENDMDL
