MODEL 13
REMARK VINA RESULT: -8.363186996      3.378      8.286
REMARK  8 active torsions:
REMARK  status: ('A' for Active; 'I' for Inactive)
REMARK    1  A    between atoms: C4_4  and  N1_5 
REMARK    2  A    between atoms: N1_5  and  S1_7 
REMARK    3  A    between atoms: S1_7  and  C5_10 
REMARK    4  A    between atoms: C12_17  and  O3_18 
REMARK    5  A    between atoms: O3_18  and  C13_19 
REMARK    6  A    between atoms: C13_19  and  C14_20 
REMARK    7  A    between atoms: C14_20  and  N2_21 
REMARK    8  A    between atoms: N2_21  and  C15_23 
ROOT
HETATM    1  C1  UNL     1      53.672  62.051  45.151  1.00  0.00     0.048 C 
HETATM    2  C2  UNL     1      52.905  60.776  45.013  1.00  0.00    -0.057 A 
HETATM    3  C3  UNL     1      52.283  60.517  43.808  1.00  0.00     0.037 A 
HETATM    4  C4  UNL     1      51.582  59.336  43.706  1.00  0.00     0.045 A 
HETATM    5  C11 UNL     1      51.532  58.463  44.809  1.00  0.00     0.066 A 
HETATM    6  C12 UNL     1      52.154  58.727  46.003  1.00  0.00     0.071 A 
HETATM    7  C20 UNL     1      52.854  59.919  46.092  1.00  0.00     0.043 A 
ENDROOT
BRANCH   6   8
HETATM    8  O3  UNL     1      52.058  57.819  47.041  1.00  0.00    -0.349 OA
BRANCH   8   9
HETATM    9  C13 UNL     1      50.933  57.017  47.276  1.00  0.00     0.195 C 
BRANCH   9  10
HETATM   10  C14 UNL     1      49.879  57.888  47.926  1.00  0.00     0.146 C 
BRANCH  10  11
HETATM   11  N2  UNL     1      50.401  58.444  49.151  1.00  0.00    -0.388 N 
ATOM     12  H2  UNL     1      50.743  57.824  49.885  1.00  0.00     0.159 HD
BRANCH  11  13
HETATM   13  C15 UNL     1      50.441  59.859  49.340  1.00  0.00     0.030 A 
HETATM   14  C16 UNL     1      51.655  60.479  49.541  1.00  0.00     0.046 A 
HETATM   15  C17 UNL     1      51.691  61.854  49.725  1.00  0.00     0.089 A 
HETATM   16  N3  UNL     1      50.544  62.566  49.705  1.00  0.00    -0.375 N 
HETATM   17  C18 UNL     1      49.341  62.006  49.512  1.00  0.00     0.089 A 
ATOM     18  H3  UNL     1      50.595  63.576  49.842  1.00  0.00     0.164 HD
HETATM   19  C19 UNL     1      49.298  60.633  49.328  1.00  0.00     0.046 A 
ENDBRANCH  11  13
ENDBRANCH  10  11
ENDBRANCH   9  10
ENDBRANCH   8   9
ENDBRANCH   6   8
BRANCH   4  20
HETATM   20  N1  UNL     1      50.931  58.981  42.504  1.00  0.00    -0.281 N 
ATOM     21  H1  UNL     1      49.914  59.059  42.476  1.00  0.00     0.179 HD
BRANCH  20  22
HETATM   22  S1  UNL     1      51.716  58.433  41.096  1.00  0.00     0.263 S 
HETATM   23  O1  UNL     1      52.782  59.438  40.667  1.00  0.00    -0.200 OA
HETATM   24  O2  UNL     1      50.740  58.408  39.923  1.00  0.00    -0.200 OA
BRANCH  22  25
HETATM   25  C5  UNL     1      52.390  56.839  41.200  1.00  0.00     0.079 A 
HETATM   26  C6  UNL     1      51.625  55.766  40.760  1.00  0.00     0.025 A 
HETATM   27  C7  UNL     1      52.153  54.503  40.812  1.00  0.00     0.002 A 
HETATM   28  C8  UNL     1      53.413  54.246  41.285  1.00  0.00     0.000 A 
HETATM   29  C9  UNL     1      54.173  55.290  41.720  1.00  0.00     0.002 A 
HETATM   30  C10 UNL     1      53.671  56.570  41.680  1.00  0.00     0.025 A 
ENDBRANCH  22  25
ENDBRANCH  20  22
ENDBRANCH   4  20
TORSDOF 8
ENDMDL
