MODEL 5
REMARK VINA RESULT: -6.063747892      1.173      1.831
REMARK  8 active torsions:
REMARK  status: ('A' for Active; 'I' for Inactive)
REMARK    1  A    between atoms: N5_13  and  C6_14 
REMARK    2  A    between atoms: C7_16  and  C8_17 
REMARK    3  A    between atoms: C8_17  and  O2_18 
REMARK    4  A    between atoms: O2_18  and  P1_19 
REMARK    5  A    between atoms: P1_19  and  O5_22 
REMARK    6  A    between atoms: O5_22  and  P2_23 
REMARK    7  A    between atoms: C9_27  and  O9_28 
REMARK    8  A    between atoms: C10_30  and  O10_31 
ROOT
HETATM    1  C6  UNL     1       7.523  47.700  -3.240  1.00  0.00     0.262 C 
HETATM    2  O1  UNL     1       8.572  47.059  -3.868  1.00  0.00    -0.353 OA
HETATM    3  C7  UNL     1       9.739  47.696  -3.565  1.00  0.00     0.180 C 
HETATM    4  C9  UNL     1       9.472  48.583  -2.373  1.00  0.00     0.182 C 
HETATM    5  C10 UNL     1       8.043  49.010  -2.738  1.00  0.00     0.198 C 
ENDROOT
BRANCH   1   6
HETATM    6  N5  UNL     1       6.990  46.843  -2.232  1.00  0.00    -0.297 N 
HETATM    7  C3  UNL     1       5.714  46.712  -1.833  1.00  0.00     0.142 A 
HETATM    8  N3  UNL     1       4.587  47.305  -2.224  1.00  0.00    -0.336 N 
HETATM    9  C4  UNL     1       5.648  45.777  -0.838  1.00  0.00     0.119 A 
HETATM   10  C2  UNL     1       3.404  47.001  -1.661  1.00  0.00     0.183 A 
ATOM     11  H3  UNL     1       4.623  48.004  -2.966  1.00  0.00     0.168 HD
HETATM   12  N2  UNL     1       3.321  46.091  -0.688  1.00  0.00    -0.339 N 
HETATM   13  C1  UNL     1       4.429  45.474  -0.269  1.00  0.00     0.148 A 
ATOM     14  H2  UNL     1       2.419  45.868  -0.269  1.00  0.00     0.167 HD
HETATM   15  N1  UNL     1       4.414  44.502   0.756  1.00  0.00    -0.080 NA
HETATM   16  N4  UNL     1       6.887  45.343  -0.636  1.00  0.00    -0.346 N 
HETATM   17  C5  UNL     1       7.692  45.982  -1.472  1.00  0.00     0.188 A 
ATOM     18  H4  UNL     1       7.169  44.639   0.045  1.00  0.00     0.167 HD
ENDBRANCH   1   6
BRANCH   5  19
HETATM   19  O10 UNL     1       8.169  49.863  -3.842  1.00  0.00    -0.388 OA
ATOM     20  H10 UNL     1       8.751  49.442  -4.463  1.00  0.00     0.210 HD
ENDBRANCH   5  19
BRANCH   3  21
HETATM   21  C8  UNL     1      10.924  46.802  -3.375  1.00  0.00     0.216 C 
BRANCH  21  22
HETATM   22  O2  UNL     1      12.134  47.438  -3.474  1.00  0.00    -0.287 OA
BRANCH  22  23
HETATM   23  P1  UNL     1      12.908  47.280  -1.957  1.00  0.00     0.418 P 
HETATM   24  O3  UNL     1      13.118  48.662  -1.397  1.00  0.00    -0.624 OA
HETATM   25  O4  UNL     1      14.419  46.559  -2.121  1.00  0.00    -0.624 OA
BRANCH  23  26
HETATM   26  O5  UNL     1      11.917  46.401  -0.937  1.00  0.00    -0.173 OA
BRANCH  26  27
HETATM   27  P2  UNL     1      12.187  46.698   0.685  1.00  0.00     0.431 P 
HETATM   28  O6  UNL     1      11.563  48.005   1.137  1.00  0.00    -0.616 OA
HETATM   29  O7  UNL     1      13.838  46.796   1.057  1.00  0.00    -0.616 OA
HETATM   30  O8  UNL     1      11.533  45.390   1.565  1.00  0.00    -0.616 OA
ENDBRANCH  26  27
ENDBRANCH  23  26
ENDBRANCH  22  23
ENDBRANCH  21  22
ENDBRANCH   3  21
BRANCH   4  31
HETATM   31  O9  UNL     1      10.324  49.658  -2.284  1.00  0.00    -0.390 OA
ATOM     32  H9  UNL     1       9.882  50.482  -2.117  1.00  0.00     0.210 HD
ENDBRANCH   4  31
TORSDOF 8
ENDMDL
