MODEL 15
REMARK VINA RESULT: -5.695557092      1.932      4.578
REMARK  8 active torsions:
REMARK  status: ('A' for Active; 'I' for Inactive)
REMARK    1  A    between atoms: N5_13  and  C6_14 
REMARK    2  A    between atoms: C7_16  and  C8_17 
REMARK    3  A    between atoms: C8_17  and  O2_18 
REMARK    4  A    between atoms: O2_18  and  P1_19 
REMARK    5  A    between atoms: P1_19  and  O5_22 
REMARK    6  A    between atoms: O5_22  and  P2_23 
REMARK    7  A    between atoms: C9_27  and  O9_28 
REMARK    8  A    between atoms: C10_30  and  O10_31 
ROOT
HETATM    1  C6  UNL     1       7.722  43.858   1.077  1.00  0.00     0.262 C 
HETATM    2  O1  UNL     1       8.913  44.326   1.593  1.00  0.00    -0.353 OA
HETATM    3  C7  UNL     1       9.928  43.496   1.216  1.00  0.00     0.180 C 
HETATM    4  C9  UNL     1       9.414  42.644   0.081  1.00  0.00     0.182 C 
HETATM    5  C10 UNL     1       7.972  42.470   0.578  1.00  0.00     0.198 C 
ENDROOT
BRANCH   1   6
HETATM    6  N5  UNL     1       7.252  44.773   0.088  1.00  0.00    -0.297 N 
HETATM    7  C3  UNL     1       5.993  45.180  -0.146  1.00  0.00     0.142 A 
HETATM    8  N3  UNL     1       4.832  44.881   0.435  1.00  0.00    -0.336 N 
HETATM    9  C4  UNL     1       5.993  46.062  -1.189  1.00  0.00     0.119 A 
HETATM   10  C2  UNL     1       3.678  45.428   0.014  1.00  0.00     0.183 A 
ATOM     11  H3  UNL     1       4.819  44.225   1.216  1.00  0.00     0.168 HD
HETATM   12  N2  UNL     1       3.659  46.292  -1.003  1.00  0.00    -0.339 N 
HETATM   13  C1  UNL     1       4.802  46.616  -1.611  1.00  0.00     0.148 A 
ATOM     14  H2  UNL     1       2.778  46.701  -1.314  1.00  0.00     0.167 HD
HETATM   15  N1  UNL     1       4.856  47.522  -2.694  1.00  0.00    -0.080 NA
HETATM   16  N4  UNL     1       7.254  46.188  -1.586  1.00  0.00    -0.346 N 
HETATM   17  C5  UNL     1       8.010  45.415  -0.820  1.00  0.00     0.188 A 
ATOM     18  H4  UNL     1       7.584  46.779  -2.349  1.00  0.00     0.167 HD
ENDBRANCH   1   6
BRANCH   5  19
HETATM   19  O10 UNL     1       8.051  41.629   1.695  1.00  0.00    -0.388 OA
ATOM     20  H10 UNL     1       7.604  42.064   2.412  1.00  0.00     0.210 HD
ENDBRANCH   5  19
BRANCH   3  21
HETATM   21  C8  UNL     1      11.223  44.175   0.899  1.00  0.00     0.216 C 
BRANCH  21  22
HETATM   22  O2  UNL     1      11.454  45.317   1.620  1.00  0.00    -0.287 OA
BRANCH  22  23
HETATM   23  P1  UNL     1      11.911  46.530   0.504  1.00  0.00     0.418 P 
HETATM   24  O3  UNL     1      13.412  46.514   0.389  1.00  0.00    -0.624 OA
HETATM   25  O4  UNL     1      11.455  48.056   1.048  1.00  0.00    -0.624 OA
BRANCH  23  26
HETATM   26  O5  UNL     1      11.226  46.178  -0.980  1.00  0.00    -0.173 OA
BRANCH  26  27
HETATM   27  P2  UNL     1      11.129  47.495  -2.006  1.00  0.00     0.431 P 
HETATM   28  O6  UNL     1      11.098  47.079  -3.464  1.00  0.00    -0.616 OA
HETATM   29  O7  UNL     1      12.446  48.547  -1.830  1.00  0.00    -0.616 OA
HETATM   30  O8  UNL     1       9.715  48.360  -1.602  1.00  0.00    -0.616 OA
ENDBRANCH  26  27
ENDBRANCH  23  26
ENDBRANCH  22  23
ENDBRANCH  21  22
ENDBRANCH   3  21
BRANCH   4  31
HETATM   31  O9  UNL     1      10.065  41.439  -0.042  1.00  0.00    -0.390 OA
ATOM     32  H9  UNL     1      10.122  40.952   0.771  1.00  0.00     0.210 HD
ENDBRANCH   4  31
TORSDOF 8
ENDMDL
