MODEL 12
REMARK VINA RESULT: -5.747931957      2.876      5.097
REMARK  8 active torsions:
REMARK  status: ('A' for Active; 'I' for Inactive)
REMARK    1  A    between atoms: N5_13  and  C6_14 
REMARK    2  A    between atoms: C7_16  and  C8_17 
REMARK    3  A    between atoms: C8_17  and  O2_18 
REMARK    4  A    between atoms: O2_18  and  P1_19 
REMARK    5  A    between atoms: P1_19  and  O5_22 
REMARK    6  A    between atoms: O5_22  and  P2_23 
REMARK    7  A    between atoms: C9_27  and  O9_28 
REMARK    8  A    between atoms: C10_30  and  O10_31 
ROOT
HETATM    1  C6  UNL     1      10.463  45.040  -0.725  1.00  0.00     0.262 C 
HETATM    2  O1  UNL     1      10.344  45.750  -1.902  1.00  0.00    -0.353 OA
HETATM    3  C7  UNL     1      10.762  44.976  -2.944  1.00  0.00     0.180 C 
HETATM    4  C9  UNL     1      10.810  43.549  -2.453  1.00  0.00     0.182 C 
HETATM    5  C10 UNL     1      11.290  43.829  -1.023  1.00  0.00     0.198 C 
ENDROOT
BRANCH   1   6
HETATM    6  N5  UNL     1       9.161  44.762  -0.214  1.00  0.00    -0.297 N 
HETATM    7  C3  UNL     1       7.981  45.273  -0.606  1.00  0.00     0.142 A 
HETATM    8  N3  UNL     1       7.655  46.156  -1.548  1.00  0.00    -0.336 N 
HETATM    9  C4  UNL     1       6.983  44.732   0.155  1.00  0.00     0.119 A 
HETATM   10  C2  UNL     1       6.376  46.518  -1.756  1.00  0.00     0.183 A 
ATOM     11  H3  UNL     1       8.390  46.567  -2.123  1.00  0.00     0.168 HD
HETATM   12  N2  UNL     1       5.389  46.000  -1.023  1.00  0.00    -0.339 N 
HETATM   13  C1  UNL     1       5.675  45.110  -0.069  1.00  0.00     0.148 A 
ATOM     14  H2  UNL     1       4.423  46.280  -1.190  1.00  0.00     0.167 HD
HETATM   15  N1  UNL     1       4.681  44.523   0.744  1.00  0.00    -0.080 NA
HETATM   16  N4  UNL     1       7.561  43.893   1.007  1.00  0.00    -0.346 N 
HETATM   17  C5  UNL     1       8.867  43.912   0.786  1.00  0.00     0.188 A 
ATOM     18  H4  UNL     1       7.081  43.332   1.711  1.00  0.00     0.167 HD
ENDBRANCH   1   6
BRANCH   5  19
HETATM   19  O10 UNL     1      12.621  44.248  -1.142  1.00  0.00    -0.388 OA
ATOM     20  H10 UNL     1      13.121  43.516  -1.482  1.00  0.00     0.210 HD
ENDBRANCH   5  19
BRANCH   3  21
HETATM   21  C8  UNL     1       9.981  45.134  -4.210  1.00  0.00     0.216 C 
BRANCH  21  22
HETATM   22  O2  UNL     1       9.157  46.229  -4.233  1.00  0.00    -0.287 OA
BRANCH  22  23
HETATM   23  P1  UNL     1       9.864  47.365  -5.299  1.00  0.00     0.418 P 
HETATM   24  O3  UNL     1       8.869  47.659  -6.390  1.00  0.00    -0.624 OA
HETATM   25  O4  UNL     1      11.247  46.737  -6.022  1.00  0.00    -0.624 OA
BRANCH  23  26
HETATM   26  O5  UNL     1      10.199  48.763  -4.446  1.00  0.00    -0.173 OA
BRANCH  26  27
HETATM   27  P2  UNL     1       8.905  49.335  -3.555  1.00  0.00     0.431 P 
HETATM   28  O6  UNL     1       9.006  48.949  -2.092  1.00  0.00    -0.616 OA
HETATM   29  O7  UNL     1       7.422  48.732  -4.113  1.00  0.00    -0.616 OA
HETATM   30  O8  UNL     1       8.872  51.033  -3.723  1.00  0.00    -0.616 OA
ENDBRANCH  26  27
ENDBRANCH  23  26
ENDBRANCH  22  23
ENDBRANCH  21  22
ENDBRANCH   3  21
BRANCH   4  31
HETATM   31  O9  UNL     1      11.693  42.757  -3.148  1.00  0.00    -0.390 OA
ATOM     32  H9  UNL     1      11.271  42.113  -3.704  1.00  0.00     0.210 HD
ENDBRANCH   4  31
TORSDOF 8
ENDMDL
