MODEL 10
REMARK VINA RESULT: -5.696001509      1.010      1.065
REMARK  1 active torsions:
REMARK  status: ('A' for Active; 'I' for Inactive)
REMARK    1  A    between atoms: C5_6  and  C6_7 
ROOT
HETATM    1  C6  UNL     1      83.725  69.108 -10.246  1.00  0.00    -0.010 A 
HETATM    2  C7  UNL     1      83.611  69.645  -8.983  1.00  0.00     0.012 A 
HETATM    3  C8  UNL     1      82.375  69.705  -8.338  1.00  0.00     0.018 A 
HETATM    4  C9  UNL     1      81.239  69.227  -8.953  1.00  0.00     0.087 A 
HETATM    5  N2  UNL     1      81.372  68.707 -10.186  1.00  0.00    -0.375 N 
ATOM      6  H2  UNL     1      80.542  68.348 -10.657  1.00  0.00     0.164 HD
HETATM    7  C10 UNL     1      82.572  68.639 -10.833  1.00  0.00     0.096 A 
ENDROOT
BRANCH   1   8
HETATM    8  C5  UNL     1      85.026  69.059 -10.890  1.00  0.00     0.257 C 
HETATM    9  N1  UNL     1      85.749  70.306 -10.872  1.00  0.00     0.093 N 
HETATM   10  C1  UNL     1      85.291  71.209 -11.902  1.00  0.00     0.310 C 
HETATM   11  C2  UNL     1      87.141  69.963 -11.100  1.00  0.00     0.273 C 
HETATM   12  C3  UNL     1      87.245  68.464 -11.014  1.00  0.00     0.033 C 
HETATM   13  C4  UNL     1      86.020  68.145 -10.162  1.00  0.00     0.042 C 
ENDBRANCH   1   8
TORSDOF 1
ENDMDL
