MODEL 5
REMARK VINA RESULT: -5.911429991      1.544      2.494
REMARK  1 active torsions:
REMARK  status: ('A' for Active; 'I' for Inactive)
REMARK    1  A    between atoms: C5_6  and  C6_7 
ROOT
HETATM    1  C6  UNL     1      82.745  69.327  -9.494  1.00  0.00    -0.010 A 
HETATM    2  C7  UNL     1      81.626  68.563  -9.742  1.00  0.00     0.012 A 
HETATM    3  C8  UNL     1      80.564  68.535  -8.839  1.00  0.00     0.018 A 
HETATM    4  C9  UNL     1      80.610  69.272  -7.677  1.00  0.00     0.087 A 
HETATM    5  N2  UNL     1      81.711  70.011  -7.454  1.00  0.00    -0.375 N 
ATOM      6  H2  UNL     1      81.763  70.563  -6.598  1.00  0.00     0.164 HD
HETATM    7  C10 UNL     1      82.761  70.052  -8.324  1.00  0.00     0.096 A 
ENDROOT
BRANCH   1   8
HETATM    8  C5  UNL     1      83.835  69.337 -10.454  1.00  0.00     0.257 C 
HETATM    9  N1  UNL     1      85.010  68.616 -10.032  1.00  0.00     0.093 N 
HETATM   10  C1  UNL     1      85.823  69.393  -9.127  1.00  0.00     0.310 C 
HETATM   11  C2  UNL     1      85.757  68.328 -11.243  1.00  0.00     0.273 C 
HETATM   12  C3  UNL     1      84.871  68.691 -12.404  1.00  0.00     0.033 C 
HETATM   13  C4  UNL     1      83.495  68.591 -11.751  1.00  0.00     0.042 C 
ENDBRANCH   1   8
TORSDOF 1
ENDMDL
