MODEL 6
REMARK VINA RESULT: -5.895794867      1.299      4.440
REMARK  1 active torsions:
REMARK  status: ('A' for Active; 'I' for Inactive)
REMARK    1  A    between atoms: C5_6  and  C6_7 
ROOT
HETATM    1  C6  UNL     1      83.500  69.350  -9.695  1.00  0.00    -0.010 A 
HETATM    2  C7  UNL     1      84.652  69.617  -8.989  1.00  0.00     0.012 A 
HETATM    3  C8  UNL     1      85.905  69.319  -9.523  1.00  0.00     0.018 A 
HETATM    4  C9  UNL     1      86.019  68.749 -10.771  1.00  0.00     0.087 A 
HETATM    5  N2  UNL     1      84.882  68.496 -11.444  1.00  0.00    -0.375 N 
ATOM      6  H2  UNL     1      84.946  68.074 -12.370  1.00  0.00     0.164 HD
HETATM    7  C10 UNL     1      83.647  68.781 -10.939  1.00  0.00     0.096 A 
ENDROOT
BRANCH   1   8
HETATM    8  C5  UNL     1      82.210  69.673  -9.112  1.00  0.00     0.257 C 
HETATM    9  N1  UNL     1      81.312  68.553  -8.988  1.00  0.00     0.093 N 
HETATM   10  C1  UNL     1      80.653  68.249 -10.237  1.00  0.00     0.310 C 
HETATM   11  C2  UNL     1      80.328  68.938  -7.992  1.00  0.00     0.273 C 
HETATM   12  C3  UNL     1      80.813  70.218  -7.367  1.00  0.00     0.033 C 
HETATM   13  C4  UNL     1      82.310  70.119  -7.648  1.00  0.00     0.042 C 
ENDBRANCH   1   8
TORSDOF 1
ENDMDL
