MODEL 2
REMARK VINA RESULT: -6.499776523      1.132      1.543
REMARK  1 active torsions:
REMARK  status: ('A' for Active; 'I' for Inactive)
REMARK    1  A    between atoms: C5_6  and  C6_7 
ROOT
HETATM    1  C6  UNL     1      83.621  69.048 -10.097  1.00  0.00    -0.010 A 
HETATM    2  C7  UNL     1      82.437  68.600 -10.641  1.00  0.00     0.012 A 
HETATM    3  C8  UNL     1      81.220  68.839 -10.003  1.00  0.00     0.018 A 
HETATM    4  C9  UNL     1      81.175  69.529  -8.812  1.00  0.00     0.087 A 
HETATM    5  N2  UNL     1      82.341  69.957  -8.298  1.00  0.00    -0.375 N 
ATOM      6  H2  UNL     1      82.328  70.470  -7.417  1.00  0.00     0.164 HD
HETATM    7  C10 UNL     1      83.542  69.734  -8.906  1.00  0.00     0.096 A 
ENDROOT
BRANCH   1   8
HETATM    8  C5  UNL     1      84.872  68.784 -10.786  1.00  0.00     0.257 C 
HETATM    9  N1  UNL     1      85.345  69.872 -11.605  1.00  0.00     0.093 N 
HETATM   10  C1  UNL     1      84.671  69.918 -12.881  1.00  0.00     0.310 C 
HETATM   11  C2  UNL     1      86.763  69.634 -11.804  1.00  0.00     0.273 C 
HETATM   12  C3  UNL     1      87.154  68.509 -10.884  1.00  0.00     0.033 C 
HETATM   13  C4  UNL     1      86.058  68.615  -9.828  1.00  0.00     0.042 C 
ENDBRANCH   1   8
TORSDOF 1
ENDMDL
