MODEL 3
REMARK VINA RESULT: -6.035861600      1.203      4.769
REMARK  1 active torsions:
REMARK  status: ('A' for Active; 'I' for Inactive)
REMARK    1  A    between atoms: C5_6  and  C6_7 
ROOT
HETATM    1  C6  UNL     1      83.658  68.994 -10.256  1.00  0.00    -0.010 A 
HETATM    2  C7  UNL     1      83.816  68.873 -11.620  1.00  0.00     0.012 A 
HETATM    3  C8  UNL     1      85.047  69.133 -12.224  1.00  0.00     0.018 A 
HETATM    4  C9  UNL     1      86.133  69.516 -11.469  1.00  0.00     0.087 A 
HETATM    5  N2  UNL     1      85.957  69.627 -10.140  1.00  0.00    -0.375 N 
ATOM      6  H2  UNL     1      86.750  69.910  -9.565  1.00  0.00     0.164 HD
HETATM    7  C10 UNL     1      84.762  69.378  -9.530  1.00  0.00     0.096 A 
ENDROOT
BRANCH   1   8
HETATM    8  C5  UNL     1      82.365  68.716  -9.657  1.00  0.00     0.257 C 
HETATM    9  N1  UNL     1      81.719  69.863  -9.069  1.00  0.00     0.093 N 
HETATM   10  C1  UNL     1      82.244  70.164  -7.758  1.00  0.00     0.310 C 
HETATM   11  C2  UNL     1      80.312  69.522  -8.971  1.00  0.00     0.273 C 
HETATM   12  C3  UNL     1      80.115  68.240  -9.734  1.00  0.00     0.033 C 
HETATM   13  C4  UNL     1      81.308  68.292 -10.685  1.00  0.00     0.042 C 
ENDBRANCH   1   8
TORSDOF 1
ENDMDL
