MODEL 1
REMARK VINA RESULT: -6.620067927      0.000      0.000
REMARK  1 active torsions:
REMARK  status: ('A' for Active; 'I' for Inactive)
REMARK    1  A    between atoms: C5_6  and  C6_7 
ROOT
HETATM    1  C6  UNL     1      83.232  68.999 -10.086  1.00  0.00    -0.010 A 
HETATM    2  C7  UNL     1      82.824  69.459  -8.853  1.00  0.00     0.012 A 
HETATM    3  C8  UNL     1      81.475  69.462  -8.500  1.00  0.00     0.018 A 
HETATM    4  C9  UNL     1      80.518  69.003  -9.379  1.00  0.00     0.087 A 
HETATM    5  N2  UNL     1      80.938  68.560 -10.576  1.00  0.00    -0.375 N 
ATOM      6  H2  UNL     1      80.244  68.216 -11.241  1.00  0.00     0.164 HD
HETATM    7  C10 UNL     1      82.253  68.549 -10.941  1.00  0.00     0.096 A 
ENDROOT
BRANCH   1   8
HETATM    8  C5  UNL     1      84.645  69.009 -10.424  1.00  0.00     0.257 C 
HETATM    9  N1  UNL     1      85.017  69.991 -11.411  1.00  0.00     0.093 N 
HETATM   10  C1  UNL     1      84.716  69.549 -12.752  1.00  0.00     0.310 C 
HETATM   11  C2  UNL     1      86.449  70.182 -11.264  1.00  0.00     0.273 C 
HETATM   12  C3  UNL     1      86.862  69.462 -10.008  1.00  0.00     0.033 C 
HETATM   13  C4  UNL     1      85.537  69.434  -9.250  1.00  0.00     0.042 C 
ENDBRANCH   1   8
TORSDOF 1
ENDMDL
