MODEL 7
REMARK VINA RESULT: -5.823555729      1.143      4.575
REMARK  1 active torsions:
REMARK  status: ('A' for Active; 'I' for Inactive)
REMARK    1  A    between atoms: C5_6  and  C6_7 
ROOT
HETATM    1  C6  UNL     1      83.692  68.988 -10.282  1.00  0.00    -0.010 A 
HETATM    2  C7  UNL     1      84.747  69.382  -9.487  1.00  0.00     0.012 A 
HETATM    3  C8  UNL     1      85.998  69.652 -10.040  1.00  0.00     0.018 A 
HETATM    4  C9  UNL     1      86.208  69.531 -11.395  1.00  0.00     0.087 A 
HETATM    5  N2  UNL     1      85.167  69.145 -12.153  1.00  0.00    -0.375 N 
ATOM      6  H2  UNL     1      85.303  69.050 -13.159  1.00  0.00     0.164 HD
HETATM    7  C10 UNL     1      83.934  68.876 -11.632  1.00  0.00     0.096 A 
ENDROOT
BRANCH   1   8
HETATM    8  C5  UNL     1      82.401  68.714  -9.676  1.00  0.00     0.257 C 
HETATM    9  N1  UNL     1      81.759  69.865  -9.090  1.00  0.00     0.093 N 
HETATM   10  C1  UNL     1      82.290  70.170  -7.783  1.00  0.00     0.310 C 
HETATM   11  C2  UNL     1      80.352  69.526  -8.985  1.00  0.00     0.273 C 
HETATM   12  C3  UNL     1      80.151  68.241  -9.743  1.00  0.00     0.033 C 
HETATM   13  C4  UNL     1      81.340  68.288 -10.698  1.00  0.00     0.042 C 
ENDBRANCH   1   8
TORSDOF 1
ENDMDL
