MODEL 2
REMARK VINA RESULT: -5.768554202      1.542      1.704
REMARK  9 active torsions:
REMARK  status: ('A' for Active; 'I' for Inactive)
REMARK    1  A    between atoms: C2_2  and  C3_3 
REMARK    2  A    between atoms: C3_3  and  C4_4 
REMARK    3  A    between atoms: C4_4  and  O1_5 
REMARK    4  A    between atoms: O1_5  and  C5_6 
REMARK    5  A    between atoms: C6_8  and  C7_9 
REMARK    6  A    between atoms: C7_9  and  O3_10 
REMARK    7  A    between atoms: C8_12  and  O4_13 
REMARK    8  A    between atoms: C9_15  and  O5_16 
REMARK    9  A    between atoms: C10_18  and  O6_19 
ROOT
HETATM    1  C5  UNL     1       8.339  15.032  36.003  1.00  0.00     0.291 C 
HETATM    2  O2  UNL     1       9.519  14.747  35.271  1.00  0.00    -0.348 OA
HETATM    3  C6  UNL     1       9.910  13.470  35.655  1.00  0.00     0.179 C 
HETATM    4  C8  UNL     1       8.990  12.470  34.979  1.00  0.00     0.180 C 
HETATM    5  C9  UNL     1       7.727  13.151  34.468  1.00  0.00     0.183 C 
HETATM    6  C10 UNL     1       7.217  14.156  35.489  1.00  0.00     0.204 C 
ENDROOT
BRANCH   1   7
HETATM    7  O1  UNL     1       8.554  14.755  37.328  1.00  0.00    -0.359 OA
BRANCH   7   8
HETATM    8  C4  UNL     1       8.981  15.825  38.049  1.00  0.00     0.171 C 
BRANCH   8   9
HETATM    9  C3  UNL     1      10.237  15.488  38.809  1.00  0.00     0.026 C 
BRANCH   9  10
HETATM   10  C2  UNL     1      11.228  16.615  38.491  1.00  0.00    -0.002 C 
HETATM   11  C1  UNL     1      12.143  16.750  39.674  1.00  0.00     0.005 C 
ENDBRANCH   9  10
ENDBRANCH   8   9
ENDBRANCH   7   8
ENDBRANCH   1   7
BRANCH   6  12
HETATM   12  O6  UNL     1       6.294  14.973  34.864  1.00  0.00    -0.388 OA
ATOM     13  H6  UNL     1       6.531  15.031  33.946  1.00  0.00     0.210 HD
ENDBRANCH   6  12
BRANCH   3  14
HETATM   14  C7  UNL     1      11.317  13.253  35.144  1.00  0.00     0.198 C 
BRANCH  14  15
HETATM   15  O3  UNL     1      11.435  13.896  33.918  1.00  0.00    -0.398 OA
ATOM     16  H3  UNL     1      11.921  13.326  33.332  1.00  0.00     0.209 HD
ENDBRANCH  14  15
ENDBRANCH   3  14
BRANCH   5  17
HETATM   17  O5  UNL     1       8.005  13.777  33.257  1.00  0.00    -0.390 OA
ATOM     18  H5  UNL     1       7.247  13.704  32.688  1.00  0.00     0.210 HD
ENDBRANCH   5  17
BRANCH   4  19
HETATM   19  O4  UNL     1       8.647  11.499  35.926  1.00  0.00    -0.390 OA
ATOM     20  H4  UNL     1       9.423  11.307  36.439  1.00  0.00     0.210 HD
ENDBRANCH   4  19
TORSDOF 9
ENDMDL
