MODEL 18
REMARK VINA RESULT: -4.647910202      2.019      4.991
REMARK  9 active torsions:
REMARK  status: ('A' for Active; 'I' for Inactive)
REMARK    1  A    between atoms: C2_2  and  C3_3 
REMARK    2  A    between atoms: C3_3  and  C4_4 
REMARK    3  A    between atoms: C4_4  and  O1_5 
REMARK    4  A    between atoms: O1_5  and  C5_6 
REMARK    5  A    between atoms: C6_8  and  C7_9 
REMARK    6  A    between atoms: C7_9  and  O3_10 
REMARK    7  A    between atoms: C8_12  and  O4_13 
REMARK    8  A    between atoms: C9_15  and  O5_16 
REMARK    9  A    between atoms: C10_18  and  O6_19 
ROOT
HETATM    1  C5  UNL     1       8.189  15.571  37.738  1.00  0.00     0.291 C 
HETATM    2  O2  UNL     1       6.905  15.626  38.335  1.00  0.00    -0.348 OA
HETATM    3  C6  UNL     1       6.193  14.552  37.815  1.00  0.00     0.179 C 
HETATM    4  C8  UNL     1       6.690  13.285  38.488  1.00  0.00     0.180 C 
HETATM    5  C9  UNL     1       8.035  13.519  39.165  1.00  0.00     0.183 C 
HETATM    6  C10 UNL     1       8.932  14.369  38.278  1.00  0.00     0.204 C 
ENDROOT
BRANCH   1   7
HETATM    7  O1  UNL     1       8.049  15.438  36.380  1.00  0.00    -0.359 OA
BRANCH   7   8
HETATM    8  C4  UNL     1       9.104  14.828  35.778  1.00  0.00     0.171 C 
BRANCH   8   9
HETATM    9  C3  UNL     1       8.629  13.753  34.837  1.00  0.00     0.026 C 
BRANCH   9  10
HETATM   10  C2  UNL     1       9.661  12.622  34.947  1.00  0.00    -0.002 C 
HETATM   11  C1  UNL     1      11.010  13.264  35.100  1.00  0.00     0.005 C 
ENDBRANCH   9  10
ENDBRANCH   8   9
ENDBRANCH   7   8
ENDBRANCH   1   7
BRANCH   6  12
HETATM   12  O6  UNL     1       9.983  14.830  39.048  1.00  0.00    -0.388 OA
ATOM     13  H6  UNL     1       9.649  15.513  39.617  1.00  0.00     0.210 HD
ENDBRANCH   6  12
BRANCH   3  14
HETATM   14  C7  UNL     1       4.738  14.752  38.178  1.00  0.00     0.198 C 
BRANCH  14  15
HETATM   15  O3  UNL     1       4.132  13.502  38.230  1.00  0.00    -0.398 OA
ATOM     16  H3  UNL     1       4.585  12.929  37.623  1.00  0.00     0.209 HD
ENDBRANCH  14  15
ENDBRANCH   3  14
BRANCH   5  17
HETATM   17  O5  UNL     1       7.825  14.139  40.392  1.00  0.00    -0.390 OA
ATOM     18  H5  UNL     1       6.968  14.551  40.390  1.00  0.00     0.210 HD
ENDBRANCH   5  17
BRANCH   4  19
HETATM   19  O4  UNL     1       6.828  12.304  37.502  1.00  0.00    -0.390 OA
ATOM     20  H4  UNL     1       6.433  11.504  37.830  1.00  0.00     0.210 HD
ENDBRANCH   4  19
TORSDOF 9
ENDMDL
