MODEL 3
REMARK VINA RESULT: -5.586802948      0.782      1.356
REMARK  9 active torsions:
REMARK  status: ('A' for Active; 'I' for Inactive)
REMARK    1  A    between atoms: C2_2  and  C3_3 
REMARK    2  A    between atoms: C3_3  and  C4_4 
REMARK    3  A    between atoms: C4_4  and  O1_5 
REMARK    4  A    between atoms: O1_5  and  C5_6 
REMARK    5  A    between atoms: C6_8  and  C7_9 
REMARK    6  A    between atoms: C7_9  and  O3_10 
REMARK    7  A    between atoms: C8_12  and  O4_13 
REMARK    8  A    between atoms: C9_15  and  O5_16 
REMARK    9  A    between atoms: C10_18  and  O6_19 
ROOT
HETATM    1  C5  UNL     1       8.242  15.058  35.947  1.00  0.00     0.291 C 
HETATM    2  O2  UNL     1       9.441  14.799  35.237  1.00  0.00    -0.348 OA
HETATM    3  C6  UNL     1       9.859  13.535  35.635  1.00  0.00     0.179 C 
HETATM    4  C8  UNL     1       8.976  12.508  34.948  1.00  0.00     0.180 C 
HETATM    5  C9  UNL     1       7.705  13.153  34.412  1.00  0.00     0.183 C 
HETATM    6  C10 UNL     1       7.152  14.151  35.418  1.00  0.00     0.204 C 
ENDROOT
BRANCH   1   7
HETATM    7  O1  UNL     1       8.441  14.792  37.278  1.00  0.00    -0.359 OA
BRANCH   7   8
HETATM    8  C4  UNL     1       7.292  14.570  37.969  1.00  0.00     0.171 C 
BRANCH   8   9
HETATM    9  C3  UNL     1       7.515  13.555  39.059  1.00  0.00     0.026 C 
BRANCH   9  10
HETATM   10  C2  UNL     1       6.195  13.490  39.839  1.00  0.00    -0.002 C 
HETATM   11  C1  UNL     1       5.156  14.196  39.016  1.00  0.00     0.005 C 
ENDBRANCH   9  10
ENDBRANCH   8   9
ENDBRANCH   7   8
ENDBRANCH   1   7
BRANCH   6  12
HETATM   12  O6  UNL     1       6.220  14.940  34.773  1.00  0.00    -0.388 OA
ATOM     13  H6  UNL     1       6.100  15.729  35.288  1.00  0.00     0.210 HD
ENDBRANCH   6  12
BRANCH   3  14
HETATM   14  C7  UNL     1      11.280  13.351  35.150  1.00  0.00     0.198 C 
BRANCH  14  15
HETATM   15  O3  UNL     1      11.354  13.823  33.844  1.00  0.00    -0.398 OA
ATOM     16  H3  UNL     1      12.085  13.392  33.416  1.00  0.00     0.209 HD
ENDBRANCH  14  15
ENDBRANCH   3  14
BRANCH   5  17
HETATM   17  O5  UNL     1       7.989  13.781  33.202  1.00  0.00    -0.390 OA
ATOM     18  H5  UNL     1       7.576  14.636  33.192  1.00  0.00     0.210 HD
ENDBRANCH   5  17
BRANCH   4  19
HETATM   19  O4  UNL     1       8.642  11.533  35.893  1.00  0.00    -0.390 OA
ATOM     20  H4  UNL     1       9.302  10.852  35.853  1.00  0.00     0.210 HD
ENDBRANCH   4  19
TORSDOF 9
ENDMDL
