MODEL 8
REMARK VINA RESULT: -5.353674333      1.197      1.689
REMARK  9 active torsions:
REMARK  status: ('A' for Active; 'I' for Inactive)
REMARK    1  A    between atoms: C2_2  and  C3_3 
REMARK    2  A    between atoms: C3_3  and  C4_4 
REMARK    3  A    between atoms: C4_4  and  O1_5 
REMARK    4  A    between atoms: O1_5  and  C5_6 
REMARK    5  A    between atoms: C6_8  and  C7_9 
REMARK    6  A    between atoms: C7_9  and  O3_10 
REMARK    7  A    between atoms: C8_12  and  O4_13 
REMARK    8  A    between atoms: C9_15  and  O5_16 
REMARK    9  A    between atoms: C10_18  and  O6_19 
ROOT
HETATM    1  C5  UNL     1       9.332  15.295  36.981  1.00  0.00     0.291 C 
HETATM    2  O2  UNL     1       9.949  14.878  35.776  1.00  0.00    -0.348 OA
HETATM    3  C6  UNL     1       9.685  13.519  35.660  1.00  0.00     0.179 C 
HETATM    4  C8  UNL     1       8.238  13.354  35.229  1.00  0.00     0.180 C 
HETATM    5  C9  UNL     1       7.449  14.634  35.468  1.00  0.00     0.183 C 
HETATM    6  C10 UNL     1       7.829  15.248  36.807  1.00  0.00     0.204 C 
ENDROOT
BRANCH   1   7
HETATM    7  O1  UNL     1       9.693  14.441  37.992  1.00  0.00    -0.359 OA
BRANCH   7   8
HETATM    8  C4  UNL     1       9.317  14.865  39.227  1.00  0.00     0.171 C 
BRANCH   8   9
HETATM    9  C3  UNL     1       9.064  13.692  40.137  1.00  0.00     0.026 C 
BRANCH   9  10
HETATM   10  C2  UNL     1       9.458  14.167  41.543  1.00  0.00    -0.002 C 
HETATM   11  C1  UNL     1      10.318  15.387  41.375  1.00  0.00     0.005 C 
ENDBRANCH   9  10
ENDBRANCH   8   9
ENDBRANCH   7   8
ENDBRANCH   1   7
BRANCH   6  12
HETATM   12  O6  UNL     1       7.359  16.547  36.833  1.00  0.00    -0.388 OA
ATOM     13  H6  UNL     1       6.819  16.677  36.062  1.00  0.00     0.210 HD
ENDBRANCH   6  12
BRANCH   3  14
HETATM   14  C7  UNL     1      10.578  12.973  34.568  1.00  0.00     0.198 C 
BRANCH  14  15
HETATM   15  O3  UNL     1      11.644  13.850  34.405  1.00  0.00    -0.398 OA
ATOM     16  H3  UNL     1      12.449  13.345  34.437  1.00  0.00     0.209 HD
ENDBRANCH  14  15
ENDBRANCH   3  14
BRANCH   5  17
HETATM   17  O5  UNL     1       7.702  15.525  34.428  1.00  0.00    -0.390 OA
ATOM     18  H5  UNL     1       7.177  16.307  34.555  1.00  0.00     0.210 HD
ENDBRANCH   5  17
BRANCH   4  19
HETATM   19  O4  UNL     1       7.684  12.316  35.985  1.00  0.00    -0.390 OA
ATOM     20  H4  UNL     1       7.130  11.802  35.410  1.00  0.00     0.210 HD
ENDBRANCH   4  19
TORSDOF 9
ENDMDL
