MODEL 19
REMARK VINA RESULT: -4.369208232      2.141      5.080
REMARK  9 active torsions:
REMARK  status: ('A' for Active; 'I' for Inactive)
REMARK    1  A    between atoms: C2_2  and  C3_3 
REMARK    2  A    between atoms: C3_3  and  C4_4 
REMARK    3  A    between atoms: C4_4  and  O1_5 
REMARK    4  A    between atoms: O1_5  and  C5_6 
REMARK    5  A    between atoms: C6_8  and  C7_9 
REMARK    6  A    between atoms: C7_9  and  O3_10 
REMARK    7  A    between atoms: C8_12  and  O4_13 
REMARK    8  A    between atoms: C9_15  and  O5_16 
REMARK    9  A    between atoms: C10_18  and  O6_19 
ROOT
HETATM    1  C5  UNL     1       9.910  15.486  37.197  1.00  0.00     0.291 C 
HETATM    2  O2  UNL     1       8.506  15.674  37.155  1.00  0.00    -0.348 OA
HETATM    3  C6  UNL     1       7.951  14.572  37.794  1.00  0.00     0.179 C 
HETATM    4  C8  UNL     1       8.147  14.745  39.289  1.00  0.00     0.180 C 
HETATM    5  C9  UNL     1       9.211  15.794  39.582  1.00  0.00     0.183 C 
HETATM    6  C10 UNL     1      10.384  15.639  38.626  1.00  0.00     0.204 C 
ENDROOT
BRANCH   1   7
HETATM    7  O1  UNL     1      10.208  14.221  36.759  1.00  0.00    -0.359 OA
BRANCH   7   8
HETATM    8  C4  UNL     1      10.899  14.197  35.588  1.00  0.00     0.171 C 
BRANCH   8   9
HETATM    9  C3  UNL     1      10.726  12.870  34.897  1.00  0.00     0.026 C 
BRANCH   9  10
HETATM   10  C2  UNL     1       9.266  12.465  35.139  1.00  0.00    -0.002 C 
HETATM   11  C1  UNL     1       8.443  13.099  34.053  1.00  0.00     0.005 C 
ENDBRANCH   9  10
ENDBRANCH   8   9
ENDBRANCH   7   8
ENDBRANCH   1   7
BRANCH   6  12
HETATM   12  O6  UNL     1      11.151  16.786  38.697  1.00  0.00    -0.388 OA
ATOM     13  H6  UNL     1      11.721  16.803  37.938  1.00  0.00     0.210 HD
ENDBRANCH   6  12
BRANCH   3  14
HETATM   14  C7  UNL     1       6.467  14.573  37.498  1.00  0.00     0.198 C 
BRANCH  14  15
HETATM   15  O3  UNL     1       5.924  13.402  38.014  1.00  0.00    -0.398 OA
ATOM     16  H3  UNL     1       5.160  13.634  38.529  1.00  0.00     0.209 HD
ENDBRANCH  14  15
ENDBRANCH   3  14
BRANCH   5  17
HETATM   17  O5  UNL     1       8.646  17.060  39.466  1.00  0.00    -0.390 OA
ATOM     18  H5  UNL     1       8.860  17.420  38.613  1.00  0.00     0.210 HD
ENDBRANCH   5  17
BRANCH   4  19
HETATM   19  O4  UNL     1       8.549  13.512  39.812  1.00  0.00    -0.390 OA
ATOM     20  H4  UNL     1       9.458  13.593  40.078  1.00  0.00     0.210 HD
ENDBRANCH   4  19
TORSDOF 9
ENDMDL
