MODEL 20
REMARK VINA RESULT: -4.343478932      2.002      4.112
REMARK  9 active torsions:
REMARK  status: ('A' for Active; 'I' for Inactive)
REMARK    1  A    between atoms: C2_2  and  C3_3 
REMARK    2  A    between atoms: C3_3  and  C4_4 
REMARK    3  A    between atoms: C4_4  and  O1_5 
REMARK    4  A    between atoms: O1_5  and  C5_6 
REMARK    5  A    between atoms: C6_8  and  C7_9 
REMARK    6  A    between atoms: C7_9  and  O3_10 
REMARK    7  A    between atoms: C8_12  and  O4_13 
REMARK    8  A    between atoms: C9_15  and  O5_16 
REMARK    9  A    between atoms: C10_18  and  O6_19 
ROOT
HETATM    1  C5  UNL     1       7.400  13.924  37.631  1.00  0.00     0.291 C 
HETATM    2  O2  UNL     1       8.143  14.657  38.589  1.00  0.00    -0.348 OA
HETATM    3  C6  UNL     1       9.256  15.148  37.918  1.00  0.00     0.179 C 
HETATM    4  C8  UNL     1       8.810  16.314  37.053  1.00  0.00     0.180 C 
HETATM    5  C9  UNL     1       7.299  16.306  36.866  1.00  0.00     0.183 C 
HETATM    6  C10 UNL     1       6.802  14.888  36.629  1.00  0.00     0.204 C 
ENDROOT
BRANCH   1   7
HETATM    7  O1  UNL     1       8.238  13.059  36.976  1.00  0.00    -0.359 OA
BRANCH   7   8
HETATM    8  C4  UNL     1       7.889  12.832  35.682  1.00  0.00     0.171 C 
BRANCH   8   9
HETATM    9  C3  UNL     1       9.009  12.152  34.940  1.00  0.00     0.026 C 
BRANCH   9  10
HETATM   10  C2  UNL     1       9.955  13.278  34.499  1.00  0.00    -0.002 C 
HETATM   11  C1  UNL     1      11.256  13.075  35.221  1.00  0.00     0.005 C 
ENDBRANCH   9  10
ENDBRANCH   8   9
ENDBRANCH   7   8
ENDBRANCH   1   7
BRANCH   6  12
HETATM   12  O6  UNL     1       5.431  14.879  36.799  1.00  0.00    -0.388 OA
ATOM     13  H6  UNL     1       5.252  14.749  37.722  1.00  0.00     0.210 HD
ENDBRANCH   6  12
BRANCH   3  14
HETATM   14  C7  UNL     1      10.225  15.663  38.959  1.00  0.00     0.198 C 
BRANCH  14  15
HETATM   15  O3  UNL     1      11.197  16.414  38.309  1.00  0.00    -0.398 OA
ATOM     16  H3  UNL     1      11.383  17.180  38.841  1.00  0.00     0.209 HD
ENDBRANCH  14  15
ENDBRANCH   3  14
BRANCH   5  17
HETATM   17  O5  UNL     1       6.697  16.857  37.993  1.00  0.00    -0.390 OA
ATOM     18  H5  UNL     1       7.192  17.620  38.268  1.00  0.00     0.210 HD
ENDBRANCH   5  17
BRANCH   4  19
HETATM   19  O4  UNL     1       9.436  16.187  35.810  1.00  0.00    -0.390 OA
ATOM     20  H4  UNL     1       8.816  15.785  35.212  1.00  0.00     0.210 HD
ENDBRANCH   4  19
TORSDOF 9
ENDMDL
