MODEL 1
REMARK VINA RESULT: -5.934953618      0.000      0.000
REMARK  9 active torsions:
REMARK  status: ('A' for Active; 'I' for Inactive)
REMARK    1  A    between atoms: C2_2  and  C3_3 
REMARK    2  A    between atoms: C3_3  and  C4_4 
REMARK    3  A    between atoms: C4_4  and  O1_5 
REMARK    4  A    between atoms: O1_5  and  C5_6 
REMARK    5  A    between atoms: C6_8  and  C7_9 
REMARK    6  A    between atoms: C7_9  and  O3_10 
REMARK    7  A    between atoms: C8_12  and  O4_13 
REMARK    8  A    between atoms: C9_15  and  O5_16 
REMARK    9  A    between atoms: C10_18  and  O6_19 
ROOT
HETATM    1  C5  UNL     1       8.278  15.057  35.929  1.00  0.00     0.291 C 
HETATM    2  O2  UNL     1       9.467  14.772  35.213  1.00  0.00    -0.348 OA
HETATM    3  C6  UNL     1       9.875  13.512  35.632  1.00  0.00     0.179 C 
HETATM    4  C8  UNL     1       8.975  12.481  34.975  1.00  0.00     0.180 C 
HETATM    5  C9  UNL     1       7.705  13.129  34.438  1.00  0.00     0.183 C 
HETATM    6  C10 UNL     1       7.173  14.152  35.430  1.00  0.00     0.204 C 
ENDROOT
BRANCH   1   7
HETATM    7  O1  UNL     1       8.487  14.816  37.263  1.00  0.00    -0.359 OA
BRANCH   7   8
HETATM    8  C4  UNL     1       7.361  14.465  37.939  1.00  0.00     0.171 C 
BRANCH   8   9
HETATM    9  C3  UNL     1       7.697  13.576  39.107  1.00  0.00     0.026 C 
BRANCH   9  10
HETATM   10  C2  UNL     1       9.115  13.977  39.536  1.00  0.00    -0.002 C 
HETATM   11  C1  UNL     1       9.196  13.802  41.026  1.00  0.00     0.005 C 
ENDBRANCH   9  10
ENDBRANCH   8   9
ENDBRANCH   7   8
ENDBRANCH   1   7
BRANCH   6  12
HETATM   12  O6  UNL     1       6.243  14.938  34.778  1.00  0.00    -0.388 OA
ATOM     13  H6  UNL     1       5.497  14.391  34.564  1.00  0.00     0.210 HD
ENDBRANCH   6  12
BRANCH   3  14
HETATM   14  C7  UNL     1      11.289  13.303  35.137  1.00  0.00     0.198 C 
BRANCH  14  15
HETATM   15  O3  UNL     1      11.371  13.805  33.843  1.00  0.00    -0.398 OA
ATOM     16  H3  UNL     1      12.287  13.813  33.588  1.00  0.00     0.209 HD
ENDBRANCH  14  15
ENDBRANCH   3  14
BRANCH   5  17
HETATM   17  O5  UNL     1       7.984  13.729  33.213  1.00  0.00    -0.390 OA
ATOM     18  H5  UNL     1       7.825  14.663  33.282  1.00  0.00     0.210 HD
ENDBRANCH   5  17
BRANCH   4  19
HETATM   19  O4  UNL     1       8.640  11.528  35.942  1.00  0.00    -0.390 OA
ATOM     20  H4  UNL     1       8.640  10.676  35.522  1.00  0.00     0.210 HD
ENDBRANCH   4  19
TORSDOF 9
ENDMDL
