MODEL 6
REMARK VINA RESULT: -5.904321018      7.002      8.403
REMARK  6 active torsions:
REMARK  status: ('A' for Active; 'I' for Inactive)
REMARK    1  A    between atoms: O1_1  and  C1_3 
REMARK    2  A    between atoms: C1_3  and  C2_4 
REMARK    3  A    between atoms: N2_8  and  O2_10 
REMARK    4  A    between atoms: C4_12  and  O3_13 
REMARK    5  A    between atoms: C5_15  and  O4_16 
REMARK    6  A    between atoms: C6_18  and  O5_19 
ROOT
HETATM    1  C2  UNL     1     117.407  41.422  69.430  1.00  0.00     0.137 C 
HETATM    2  N1  UNL     1     118.210  41.823  70.570  1.00  0.00    -0.367 N 
ATOM      3  H1  UNL     1     118.892  41.178  70.969  1.00  0.00     0.161 HD
HETATM    4  C3  UNL     1     118.039  43.115  71.126  1.00  0.00     0.129 C 
HETATM    5  N2  UNL     1     118.849  43.677  71.949  1.00  0.00    -0.255 N 
ATOM      6  H2  UNL     1     118.603  44.613  72.272  1.00  0.00     0.195 HD
HETATM    7  C4  UNL     1     116.828  43.861  70.718  1.00  0.00     0.218 C 
HETATM    8  C5  UNL     1     116.740  43.850  69.220  1.00  0.00     0.185 C 
HETATM    9  C6  UNL     1     117.324  42.657  68.547  1.00  0.00     0.174 C 
ENDROOT
BRANCH   5  10
HETATM   10  O2  UNL     1     119.994  43.148  72.426  1.00  0.00    -0.288 OA
ATOM     11  H2  UNL     1     120.412  42.352  72.123  1.00  0.00     0.244 HD
ENDBRANCH   5  10
BRANCH   7  12
HETATM   12  O3  UNL     1     115.669  43.304  71.277  1.00  0.00    -0.385 OA
ATOM     13  H3  UNL     1     115.818  43.012  72.168  1.00  0.00     0.210 HD
ENDBRANCH   7  12
BRANCH   1  14
HETATM   14  C1  UNL     1     118.118  40.365  68.607  1.00  0.00     0.191 C 
BRANCH  14  15
HETATM   15  O1  UNL     1     117.479  40.300  67.371  1.00  0.00    -0.399 OA
ATOM     16  H1  UNL     1     116.552  40.170  67.536  1.00  0.00     0.209 HD
ENDBRANCH  14  15
ENDBRANCH   1  14
BRANCH   8  17
HETATM   17  O4  UNL     1     117.342  44.991  68.663  1.00  0.00    -0.390 OA
ATOM     18  H4  UNL     1     116.869  45.294  67.897  1.00  0.00     0.210 HD
ENDBRANCH   8  17
BRANCH   9  19
HETATM   19  O5  UNL     1     118.665  42.981  68.234  1.00  0.00    -0.391 OA
ATOM     20  H5  UNL     1     118.952  42.300  67.636  1.00  0.00     0.210 HD
ENDBRANCH   9  19
TORSDOF 6
ENDMDL
