MODEL 1
REMARK VINA RESULT: -6.328953829      0.000      0.000
REMARK  6 active torsions:
REMARK  status: ('A' for Active; 'I' for Inactive)
REMARK    1  A    between atoms: O1_1  and  C1_3 
REMARK    2  A    between atoms: C1_3  and  C2_4 
REMARK    3  A    between atoms: N2_8  and  O2_10 
REMARK    4  A    between atoms: C4_12  and  O3_13 
REMARK    5  A    between atoms: C5_15  and  O4_16 
REMARK    6  A    between atoms: C6_18  and  O5_19 
ROOT
HETATM    1  C2  UNL     1     120.951  39.505  63.477  1.00  0.00     0.137 C 
HETATM    2  N1  UNL     1     119.746  40.285  63.683  1.00  0.00    -0.367 N 
ATOM      3  H1  UNL     1     119.801  41.300  63.773  1.00  0.00     0.161 HD
HETATM    4  C3  UNL     1     118.492  39.629  63.758  1.00  0.00     0.129 C 
HETATM    5  N2  UNL     1     117.349  40.209  63.677  1.00  0.00    -0.255 N 
ATOM      6  H2  UNL     1     116.523  39.615  63.748  1.00  0.00     0.195 HD
HETATM    7  C4  UNL     1     118.519  38.161  63.948  1.00  0.00     0.218 C 
HETATM    8  C5  UNL     1     119.434  37.562  62.921  1.00  0.00     0.185 C 
HETATM    9  C6  UNL     1     120.562  38.426  62.477  1.00  0.00     0.174 C 
ENDROOT
BRANCH   5  10
HETATM   10  O2  UNL     1     117.138  41.529  63.506  1.00  0.00    -0.288 OA
ATOM     11  H2  UNL     1     116.327  41.994  63.677  1.00  0.00     0.244 HD
ENDBRANCH   5  10
BRANCH   7  12
HETATM   12  O3  UNL     1     118.945  37.818  65.239  1.00  0.00    -0.385 OA
ATOM     13  H3  UNL     1     119.473  38.506  65.626  1.00  0.00     0.210 HD
ENDBRANCH   7  12
BRANCH   1  14
HETATM   14  C1  UNL     1     122.029  40.332  62.803  1.00  0.00     0.191 C 
BRANCH  14  15
HETATM   15  O1  UNL     1     121.560  41.641  62.723  1.00  0.00    -0.399 OA
ATOM     16  H1  UNL     1     122.288  42.217  62.926  1.00  0.00     0.209 HD
ENDBRANCH  14  15
ENDBRANCH   1  14
BRANCH   8  17
HETATM   17  O4  UNL     1     118.727  37.163  61.774  1.00  0.00    -0.390 OA
ATOM     18  H4  UNL     1     117.860  36.844  61.995  1.00  0.00     0.210 HD
ENDBRANCH   8  17
BRANCH   9  19
HETATM   19  O5  UNL     1     120.115  39.126  61.332  1.00  0.00    -0.391 OA
ATOM     20  H5  UNL     1     119.289  38.720  61.099  1.00  0.00     0.210 HD
ENDBRANCH   9  19
TORSDOF 6
ENDMDL
