MODEL 12
REMARK VINA RESULT: -5.711951416      7.167      8.558
REMARK  6 active torsions:
REMARK  status: ('A' for Active; 'I' for Inactive)
REMARK    1  A    between atoms: O1_1  and  C1_3 
REMARK    2  A    between atoms: C1_3  and  C2_4 
REMARK    3  A    between atoms: N2_8  and  O2_10 
REMARK    4  A    between atoms: C4_12  and  O3_13 
REMARK    5  A    between atoms: C5_15  and  O4_16 
REMARK    6  A    between atoms: C6_18  and  O5_19 
ROOT
HETATM    1  C2  UNL     1     117.941  41.841  68.972  1.00  0.00     0.137 C 
HETATM    2  N1  UNL     1     116.810  41.742  69.874  1.00  0.00    -0.367 N 
ATOM      3  H1  UNL     1     116.074  41.057  69.701  1.00  0.00     0.161 HD
HETATM    4  C3  UNL     1     116.733  42.603  70.997  1.00  0.00     0.129 C 
HETATM    5  N2  UNL     1     115.939  42.446  71.995  1.00  0.00    -0.255 N 
ATOM      6  H2  UNL     1     115.988  43.144  72.737  1.00  0.00     0.195 HD
HETATM    7  C4  UNL     1     117.643  43.771  71.005  1.00  0.00     0.218 C 
HETATM    8  C5  UNL     1     119.037  43.292  70.725  1.00  0.00     0.185 C 
HETATM    9  C6  UNL     1     119.147  42.080  69.868  1.00  0.00     0.174 C 
ENDROOT
BRANCH   5  10
HETATM   10  O2  UNL     1     115.049  41.448  72.154  1.00  0.00    -0.288 OA
ATOM     11  H2  UNL     1     114.451  41.340  72.883  1.00  0.00     0.244 HD
ENDBRANCH   5  10
BRANCH   7  12
HETATM   12  O3  UNL     1     117.258  44.728  70.055  1.00  0.00    -0.385 OA
ATOM     13  H3  UNL     1     117.729  45.545  70.173  1.00  0.00     0.210 HD
ENDBRANCH   7  12
BRANCH   1  14
HETATM   14  C1  UNL     1     118.196  40.521  68.270  1.00  0.00     0.191 C 
BRANCH  14  15
HETATM   15  O1  UNL     1     117.130  40.298  67.402  1.00  0.00    -0.399 OA
ATOM     16  H1  UNL     1     117.411  39.649  66.767  1.00  0.00     0.209 HD
ENDBRANCH  14  15
ENDBRANCH   1  14
BRANCH   8  17
HETATM   17  O4  UNL     1     119.740  43.036  71.916  1.00  0.00    -0.390 OA
ATOM     18  H4  UNL     1     120.628  42.750  71.740  1.00  0.00     0.210 HD
ENDBRANCH   8  17
BRANCH   9  19
HETATM   19  O5  UNL     1     119.188  40.966  70.739  1.00  0.00    -0.391 OA
ATOM     20  H5  UNL     1     119.998  41.061  71.225  1.00  0.00     0.210 HD
ENDBRANCH   9  19
TORSDOF 6
ENDMDL
