MODEL 10
REMARK VINA RESULT: -5.799836264      6.964      8.417
REMARK  6 active torsions:
REMARK  status: ('A' for Active; 'I' for Inactive)
REMARK    1  A    between atoms: O1_1  and  C1_3 
REMARK    2  A    between atoms: C1_3  and  C2_4 
REMARK    3  A    between atoms: N2_8  and  O2_10 
REMARK    4  A    between atoms: C4_12  and  O3_13 
REMARK    5  A    between atoms: C5_15  and  O4_16 
REMARK    6  A    between atoms: C6_18  and  O5_19 
ROOT
HETATM    1  C2  UNL     1     118.300  43.465  70.487  1.00  0.00     0.137 C 
HETATM    2  N1  UNL     1     118.750  42.101  70.286  1.00  0.00    -0.367 N 
ATOM      3  H1  UNL     1     119.574  41.755  70.778  1.00  0.00     0.161 HD
HETATM    4  C3  UNL     1     118.037  41.252  69.403  1.00  0.00     0.129 C 
HETATM    5  N2  UNL     1     118.170  39.977  69.337  1.00  0.00    -0.255 N 
ATOM      6  H2  UNL     1     117.594  39.487  68.652  1.00  0.00     0.195 HD
HETATM    7  C4  UNL     1     117.071  41.903  68.489  1.00  0.00     0.218 C 
HETATM    8  C5  UNL     1     116.175  42.795  69.297  1.00  0.00     0.185 C 
HETATM    9  C6  UNL     1     116.782  43.384  70.522  1.00  0.00     0.174 C 
ENDROOT
BRANCH   5  10
HETATM   10  O2  UNL     1     118.998  39.223  70.087  1.00  0.00    -0.288 OA
ATOM     11  H2  UNL     1     119.908  39.414  70.282  1.00  0.00     0.244 HD
ENDBRANCH   5  10
BRANCH   7  12
HETATM   12  O3  UNL     1     117.723  42.642  67.492  1.00  0.00    -0.385 OA
ATOM     13  H3  UNL     1     118.554  42.984  67.800  1.00  0.00     0.210 HD
ENDBRANCH   7  12
BRANCH   1  14
HETATM   14  C1  UNL     1     118.724  43.985  71.847  1.00  0.00     0.191 C 
BRANCH  14  15
HETATM   15  O1  UNL     1     119.854  43.269  72.233  1.00  0.00    -0.399 OA
ATOM     16  H1  UNL     1     120.532  43.901  72.447  1.00  0.00     0.209 HD
ENDBRANCH  14  15
ENDBRANCH   1  14
BRANCH   8  17
HETATM   17  O4  UNL     1     115.000  42.127  69.683  1.00  0.00    -0.390 OA
ATOM     18  H4  UNL     1     114.739  42.367  70.564  1.00  0.00     0.210 HD
ENDBRANCH   8  17
BRANCH   9  19
HETATM   19  O5  UNL     1     116.482  42.506  71.590  1.00  0.00    -0.391 OA
ATOM     20  H5  UNL     1     115.620  42.767  71.891  1.00  0.00     0.210 HD
ENDBRANCH   9  19
TORSDOF 6
ENDMDL
