MODEL 12
REMARK VINA RESULT: -5.776069395      5.371      8.321
REMARK  7 active torsions:
REMARK  status: ('A' for Active; 'I' for Inactive)
REMARK    1  A    between atoms: O1_1  and  N1_3 
REMARK    2  A    between atoms: N1_3  and  C1_5 
REMARK    3  A    between atoms: C2_9  and  C3_10 
REMARK    4  A    between atoms: C3_10  and  O2_11 
REMARK    5  A    between atoms: C4_13  and  O3_14 
REMARK    6  A    between atoms: C5_16  and  O4_17 
REMARK    7  A    between atoms: C6_19  and  O5_20 
ROOT
HETATM    1  C1  UNL     1      79.186  16.881  93.720  1.00  0.00     0.336 C 
HETATM    2  N2  UNL     1      78.662  17.623  92.613  1.00  0.00    -0.041 N 
ATOM      3  H21 UNL     1      77.877  17.144  92.172  1.00  0.00     0.280 HD
ATOM      4  H22 UNL     1      79.302  17.625  91.819  1.00  0.00     0.280 HD
HETATM    5  C2  UNL     1      78.316  18.949  93.025  1.00  0.00     0.243 C 
HETATM    6  C4  UNL     1      79.596  19.663  93.408  1.00  0.00     0.182 C 
HETATM    7  C5  UNL     1      80.037  18.982  94.712  1.00  0.00     0.181 C 
HETATM    8  C6  UNL     1      80.395  17.562  94.287  1.00  0.00     0.201 C 
ENDROOT
BRANCH   1   9
HETATM    9  N1  UNL     1      78.192  16.612  94.713  1.00  0.00    -0.272 N 
ATOM     10  H1  UNL     1      77.425  17.261  94.893  1.00  0.00     0.190 HD
BRANCH   9  11
HETATM   11  O1  UNL     1      78.304  15.584  95.324  1.00  0.00    -0.292 OA
ATOM     12  H1  UNL     1      77.730  15.467  96.073  1.00  0.00     0.244 HD
ENDBRANCH   9  11
ENDBRANCH   1   9
BRANCH   8  13
HETATM   13  O5  UNL     1      81.003  16.866  95.297  1.00  0.00    -0.389 OA
ATOM     14  H5  UNL     1      81.041  17.335  96.122  1.00  0.00     0.210 HD
ENDBRANCH   8  13
BRANCH   5  15
HETATM   15  C3  UNL     1      77.562  19.727  91.979  1.00  0.00     0.199 C 
BRANCH  15  16
HETATM   16  O2  UNL     1      76.669  20.585  92.595  1.00  0.00    -0.399 OA
ATOM     17  H2  UNL     1      76.122  21.000  91.938  1.00  0.00     0.209 HD
ENDBRANCH  15  16
ENDBRANCH   5  15
BRANCH   7  18
HETATM   18  O4  UNL     1      81.082  19.633  95.307  1.00  0.00    -0.390 OA
ATOM     19  H4  UNL     1      80.942  20.571  95.352  1.00  0.00     0.210 HD
ENDBRANCH   7  18
BRANCH   6  20
HETATM   20  O3  UNL     1      79.451  21.016  93.548  1.00  0.00    -0.391 OA
ATOM     21  H3  UNL     1      80.194  21.440  93.960  1.00  0.00     0.210 HD
ENDBRANCH   6  20
TORSDOF 7
ENDMDL
