MODEL 5
REMARK VINA RESULT: -6.280274741      5.220      6.350
REMARK  7 active torsions:
REMARK  status: ('A' for Active; 'I' for Inactive)
REMARK    1  A    between atoms: O1_1  and  N1_3 
REMARK    2  A    between atoms: N1_3  and  C1_5 
REMARK    3  A    between atoms: C2_9  and  C3_10 
REMARK    4  A    between atoms: C3_10  and  O2_11 
REMARK    5  A    between atoms: C4_13  and  O3_14 
REMARK    6  A    between atoms: C5_16  and  O4_17 
REMARK    7  A    between atoms: C6_19  and  O5_20 
ROOT
HETATM    1  C1  UNL     1      77.326  19.600  94.229  1.00  0.00     0.336 C 
HETATM    2  N2  UNL     1      78.161  18.579  94.787  1.00  0.00    -0.041 N 
ATOM      3  H21 UNL     1      77.811  18.252  95.688  1.00  0.00     0.280 HD
ATOM      4  H22 UNL     1      79.058  18.950  95.101  1.00  0.00     0.280 HD
HETATM    5  C2  UNL     1      78.322  17.506  93.855  1.00  0.00     0.243 C 
HETATM    6  C4  UNL     1      79.093  18.039  92.664  1.00  0.00     0.182 C 
HETATM    7  C5  UNL     1      78.107  18.984  91.963  1.00  0.00     0.181 C 
HETATM    8  C6  UNL     1      77.917  20.126  92.956  1.00  0.00     0.201 C 
ENDROOT
BRANCH   1   9
HETATM    9  N1  UNL     1      75.972  19.168  94.068  1.00  0.00    -0.272 N 
ATOM     10  H1  UNL     1      75.456  19.334  93.204  1.00  0.00     0.190 HD
BRANCH   9  11
HETATM   11  O1  UNL     1      75.473  18.598  95.000  1.00  0.00    -0.292 OA
ATOM     12  H1  UNL     1      74.590  18.270  94.877  1.00  0.00     0.244 HD
ENDBRANCH   9  11
ENDBRANCH   1   9
BRANCH   8  13
HETATM   13  O5  UNL     1      77.217  21.167  92.406  1.00  0.00    -0.389 OA
ATOM     14  H5  UNL     1      77.391  22.007  92.814  1.00  0.00     0.210 HD
ENDBRANCH   8  13
BRANCH   5  15
HETATM   15  C3  UNL     1      79.007  16.298  94.438  1.00  0.00     0.199 C 
BRANCH  15  16
HETATM   16  O2  UNL     1      78.136  15.634  95.282  1.00  0.00    -0.399 OA
ATOM     17  H2  UNL     1      77.842  14.831  94.868  1.00  0.00     0.209 HD
ENDBRANCH  15  16
ENDBRANCH   5  15
BRANCH   7  18
HETATM   18  O4  UNL     1      78.574  19.412  90.752  1.00  0.00    -0.390 OA
ATOM     19  H4  UNL     1      78.018  20.080  90.367  1.00  0.00     0.210 HD
ENDBRANCH   7  18
BRANCH   6  20
HETATM   20  O3  UNL     1      79.564  17.062  91.831  1.00  0.00    -0.391 OA
ATOM     21  H3  UNL     1      80.505  16.942  91.877  1.00  0.00     0.210 HD
ENDBRANCH   6  20
TORSDOF 7
ENDMDL
