MODEL 17
REMARK VINA RESULT: -5.654620125      1.410      3.201
REMARK  7 active torsions:
REMARK  status: ('A' for Active; 'I' for Inactive)
REMARK    1  A    between atoms: O1_1  and  N1_3 
REMARK    2  A    between atoms: N1_3  and  C1_5 
REMARK    3  A    between atoms: C2_9  and  C3_10 
REMARK    4  A    between atoms: C3_10  and  O2_11 
REMARK    5  A    between atoms: C4_13  and  O3_14 
REMARK    6  A    between atoms: C5_16  and  O4_17 
REMARK    7  A    between atoms: C6_19  and  O5_20 
ROOT
HETATM    1  C1  UNL     1      75.037  21.573  89.684  1.00  0.00     0.336 C 
HETATM    2  N2  UNL     1      75.917  20.845  88.819  1.00  0.00    -0.041 N 
ATOM      3  H21 UNL     1      76.535  20.224  89.341  1.00  0.00     0.280 HD
ATOM      4  H22 UNL     1      76.626  21.448  88.402  1.00  0.00     0.280 HD
HETATM    5  C2  UNL     1      75.165  20.140  87.827  1.00  0.00     0.243 C 
HETATM    6  C4  UNL     1      74.497  21.168  86.936  1.00  0.00     0.182 C 
HETATM    7  C5  UNL     1      73.418  21.801  87.826  1.00  0.00     0.181 C 
HETATM    8  C6  UNL     1      74.209  22.544  88.898  1.00  0.00     0.201 C 
ENDROOT
BRANCH   1   9
HETATM    9  N1  UNL     1      74.241  20.710  90.501  1.00  0.00    -0.272 N 
ATOM     10  H1  UNL     1      73.234  20.623  90.366  1.00  0.00     0.190 HD
BRANCH   9  11
HETATM   11  O1  UNL     1      74.818  20.091  91.354  1.00  0.00    -0.292 OA
ATOM     12  H1  UNL     1      75.127  20.585  92.105  1.00  0.00     0.244 HD
ENDBRANCH   9  11
ENDBRANCH   1   9
BRANCH   8  13
HETATM   13  O5  UNL     1      73.403  23.339  89.668  1.00  0.00    -0.389 OA
ATOM     14  H5  UNL     1      72.664  23.708  89.199  1.00  0.00     0.210 HD
ENDBRANCH   8  13
BRANCH   5  15
HETATM   15  C3  UNL     1      75.991  19.182  87.011  1.00  0.00     0.199 C 
BRANCH  15  16
HETATM   16  O2  UNL     1      75.159  18.297  86.351  1.00  0.00    -0.399 OA
ATOM     17  H2  UNL     1      74.465  18.778  85.914  1.00  0.00     0.209 HD
ENDBRANCH  15  16
ENDBRANCH   5  15
BRANCH   7  18
HETATM   18  O4  UNL     1      72.584  22.624  87.122  1.00  0.00    -0.390 OA
ATOM     19  H4  UNL     1      71.670  22.391  87.233  1.00  0.00     0.210 HD
ENDBRANCH   7  18
BRANCH   6  20
HETATM   20  O3  UNL     1      73.981  20.644  85.782  1.00  0.00    -0.391 OA
ATOM     21  H3  UNL     1      74.325  21.046  84.993  1.00  0.00     0.210 HD
ENDBRANCH   6  20
TORSDOF 7
ENDMDL
