MODEL 15
REMARK VINA RESULT: -5.720293226      6.848      7.958
REMARK  7 active torsions:
REMARK  status: ('A' for Active; 'I' for Inactive)
REMARK    1  A    between atoms: O1_1  and  N1_3 
REMARK    2  A    between atoms: N1_3  and  C1_5 
REMARK    3  A    between atoms: C2_9  and  C3_10 
REMARK    4  A    between atoms: C3_10  and  O2_11 
REMARK    5  A    between atoms: C4_13  and  O3_14 
REMARK    6  A    between atoms: C5_16  and  O4_17 
REMARK    7  A    between atoms: C6_19  and  O5_20 
ROOT
HETATM    1  C1  UNL     1      77.537  18.043  93.705  1.00  0.00     0.336 C 
HETATM    2  N2  UNL     1      78.149  19.070  92.916  1.00  0.00    -0.041 N 
ATOM      3  H21 UNL     1      77.459  19.708  92.520  1.00  0.00     0.280 HD
ATOM      4  H22 UNL     1      78.532  18.702  92.045  1.00  0.00     0.280 HD
HETATM    5  C2  UNL     1      79.137  19.762  93.685  1.00  0.00     0.243 C 
HETATM    6  C4  UNL     1      80.252  18.783  93.994  1.00  0.00     0.182 C 
HETATM    7  C5  UNL     1      79.631  17.803  94.999  1.00  0.00     0.181 C 
HETATM    8  C6  UNL     1      78.565  17.069  94.194  1.00  0.00     0.201 C 
ENDROOT
BRANCH   1   9
HETATM    9  N1  UNL     1      76.738  18.577  94.765  1.00  0.00    -0.272 N 
ATOM     10  H1  UNL     1      77.042  19.384  95.310  1.00  0.00     0.190 HD
BRANCH   9  11
HETATM   11  O1  UNL     1      75.693  18.027  94.983  1.00  0.00    -0.292 OA
ATOM     12  H1  UNL     1      75.398  18.011  95.887  1.00  0.00     0.244 HD
ENDBRANCH   9  11
ENDBRANCH   1   9
BRANCH   8  13
HETATM   13  O5  UNL     1      78.043  16.008  94.885  1.00  0.00    -0.389 OA
ATOM     14  H5  UNL     1      78.382  15.164  94.612  1.00  0.00     0.210 HD
ENDBRANCH   8  13
BRANCH   5  15
HETATM   15  C3  UNL     1      79.679  20.990  93.004  1.00  0.00     0.199 C 
BRANCH  15  16
HETATM   16  O2  UNL     1      80.183  21.861  93.953  1.00  0.00    -0.399 OA
ATOM     17  H2  UNL     1      80.371  22.700  93.548  1.00  0.00     0.209 HD
ENDBRANCH  15  16
ENDBRANCH   5  15
BRANCH   7  18
HETATM   18  O4  UNL     1      80.560  16.956  95.537  1.00  0.00    -0.390 OA
ATOM     19  H4  UNL     1      80.200  16.424  96.237  1.00  0.00     0.210 HD
ENDBRANCH   7  18
BRANCH   6  20
HETATM   20  O3  UNL     1      81.388  19.375  94.474  1.00  0.00    -0.391 OA
ATOM     21  H3  UNL     1      81.623  20.175  94.019  1.00  0.00     0.210 HD
ENDBRANCH   6  20
TORSDOF 7
ENDMDL
