MODEL 1
REMARK VINA RESULT: -5.904852794      0.000      0.000
REMARK  4 active torsions:
REMARK  status: ('A' for Active; 'I' for Inactive)
REMARK    1  A    between atoms: C3_6  and  C4_7 
REMARK    2  A    between atoms: C4_7  and  O2_8 
REMARK    3  A    between atoms: C5_10  and  O3_11 
REMARK    4  A    between atoms: C6_13  and  O4_14 
ROOT
HETATM    1  O1  UNL     1       1.097  12.433  10.044  1.00  0.00    -0.271 OA
HETATM    2  C1  UNL     1       0.406  11.432   9.742  1.00  0.00     0.249 C 
HETATM    3  N1  UNL     1       0.714  10.199  10.395  1.00  0.00    -0.358 N 
ATOM      4  H1  UNL     1       1.568  10.082  10.942  1.00  0.00     0.162 HD
HETATM    5  C2  UNL     1      -0.246   9.126  10.243  1.00  0.00     0.132 C 
HETATM    6  C3  UNL     1      -1.641   9.662  10.040  1.00  0.00     0.059 C 
HETATM    7  C5  UNL     1      -1.754  10.564   8.857  1.00  0.00     0.163 C 
HETATM    8  C6  UNL     1      -0.668  11.584   8.748  1.00  0.00     0.239 C 
ENDROOT
BRANCH   6   9
HETATM    9  C4  UNL     1      -2.550   8.464   9.858  1.00  0.00     0.173 C 
BRANCH   9  10
HETATM   10  O2  UNL     1      -3.104   8.422   8.587  1.00  0.00    -0.400 OA
ATOM     11  H2  UNL     1      -3.823   9.035   8.493  1.00  0.00     0.209 HD
ENDBRANCH   9  10
ENDBRANCH   6   9
BRANCH   7  12
HETATM   12  O3  UNL     1      -2.977  11.260   8.983  1.00  0.00    -0.392 OA
ATOM     13  H3  UNL     1      -2.920  12.027   8.425  1.00  0.00     0.210 HD
ENDBRANCH   7  12
BRANCH   8  14
HETATM   14  O4  UNL     1      -0.113  11.506   7.450  1.00  0.00    -0.384 OA
ATOM     15  H4  UNL     1       0.294  10.656   7.335  1.00  0.00     0.210 HD
ENDBRANCH   8  14
TORSDOF 4
ENDMDL
