MODEL 8
REMARK VINA RESULT: -5.468323309      7.673      8.972
REMARK  4 active torsions:
REMARK  status: ('A' for Active; 'I' for Inactive)
REMARK    1  A    between atoms: C3_6  and  C4_7 
REMARK    2  A    between atoms: C4_7  and  O2_8 
REMARK    3  A    between atoms: C5_10  and  O3_11 
REMARK    4  A    between atoms: C6_13  and  O4_14 
ROOT
HETATM    1  O1  UNL     1      -4.930   7.110  16.832  1.00  0.00    -0.271 OA
HETATM    2  C1  UNL     1      -3.819   6.700  16.421  1.00  0.00     0.249 C 
HETATM    3  N1  UNL     1      -3.576   6.764  15.014  1.00  0.00    -0.358 N 
ATOM      4  H1  UNL     1      -4.325   6.956  14.349  1.00  0.00     0.162 HD
HETATM    5  C2  UNL     1      -2.213   6.541  14.580  1.00  0.00     0.132 C 
HETATM    6  C3  UNL     1      -1.223   6.960  15.640  1.00  0.00     0.059 C 
HETATM    7  C5  UNL     1      -1.425   6.253  16.939  1.00  0.00     0.163 C 
HETATM    8  C6  UNL     1      -2.845   6.186  17.396  1.00  0.00     0.239 C 
ENDROOT
BRANCH   6   9
HETATM    9  C4  UNL     1       0.157   6.653  15.099  1.00  0.00     0.173 C 
BRANCH   9  10
HETATM   10  O2  UNL     1       0.905   5.894  15.987  1.00  0.00    -0.400 OA
ATOM     11  H2  UNL     1       0.376   5.567  16.705  1.00  0.00     0.209 HD
ENDBRANCH   9  10
ENDBRANCH   6   9
BRANCH   7  12
HETATM   12  O3  UNL     1      -0.697   6.969  17.916  1.00  0.00    -0.392 OA
ATOM     13  H3  UNL     1      -1.257   7.042  18.680  1.00  0.00     0.210 HD
ENDBRANCH   7  12
BRANCH   8  14
HETATM   14  O4  UNL     1      -3.154   4.840  17.696  1.00  0.00    -0.384 OA
ATOM     15  H4  UNL     1      -4.098   4.730  17.699  1.00  0.00     0.210 HD
ENDBRANCH   8  14
TORSDOF 4
ENDMDL
