MODEL 10
REMARK VINA RESULT: -5.376858897      6.928      8.184
REMARK  4 active torsions:
REMARK  status: ('A' for Active; 'I' for Inactive)
REMARK    1  A    between atoms: C3_6  and  C4_7 
REMARK    2  A    between atoms: C4_7  and  O2_8 
REMARK    3  A    between atoms: C5_10  and  O3_11 
REMARK    4  A    between atoms: C6_13  and  O4_14 
ROOT
HETATM    1  O1  UNL     1      -4.182   5.556  17.705  1.00  0.00    -0.271 OA
HETATM    2  C1  UNL     1      -3.289   6.223  17.131  1.00  0.00     0.249 C 
HETATM    3  N1  UNL     1      -1.943   6.030  17.570  1.00  0.00    -0.358 N 
ATOM      4  H1  UNL     1      -1.726   5.520  18.427  1.00  0.00     0.162 HD
HETATM    5  C2  UNL     1      -0.901   6.594  16.737  1.00  0.00     0.132 C 
HETATM    6  C3  UNL     1      -1.330   6.661  15.292  1.00  0.00     0.059 C 
HETATM    7  C5  UNL     1      -2.577   7.456  15.089  1.00  0.00     0.163 C 
HETATM    8  C6  UNL     1      -3.673   7.150  16.056  1.00  0.00     0.239 C 
ENDROOT
BRANCH   6   9
HETATM    9  C4  UNL     1      -0.189   7.294  14.523  1.00  0.00     0.173 C 
BRANCH   9  10
HETATM   10  O2  UNL     1      -0.544   8.523  13.988  1.00  0.00    -0.400 OA
ATOM     11  H2  UNL     1       0.065   9.208  14.238  1.00  0.00     0.209 HD
ENDBRANCH   9  10
ENDBRANCH   6   9
BRANCH   7  12
HETATM   12  O3  UNL     1      -3.055   7.151  13.795  1.00  0.00    -0.392 OA
ATOM     13  H3  UNL     1      -3.959   6.876  13.890  1.00  0.00     0.210 HD
ENDBRANCH   7  12
BRANCH   8  14
HETATM   14  O4  UNL     1      -4.117   8.364  16.626  1.00  0.00    -0.384 OA
ATOM     15  H4  UNL     1      -5.054   8.314  16.776  1.00  0.00     0.210 HD
ENDBRANCH   8  14
TORSDOF 4
ENDMDL
