MODEL 7
REMARK VINA RESULT: -5.473816467      6.301      7.413
REMARK  4 active torsions:
REMARK  status: ('A' for Active; 'I' for Inactive)
REMARK    1  A    between atoms: C3_6  and  C4_7 
REMARK    2  A    between atoms: C4_7  and  O2_8 
REMARK    3  A    between atoms: C5_10  and  O3_11 
REMARK    4  A    between atoms: C6_13  and  O4_14 
ROOT
HETATM    1  O1  UNL     1      -4.781   7.194  16.769  1.00  0.00    -0.271 OA
HETATM    2  C1  UNL     1      -3.763   7.044  16.054  1.00  0.00     0.249 C 
HETATM    3  N1  UNL     1      -3.752   5.934  15.154  1.00  0.00    -0.358 N 
ATOM      4  H1  UNL     1      -4.447   5.190  15.212  1.00  0.00     0.162 HD
HETATM    5  C2  UNL     1      -2.704   5.919  14.154  1.00  0.00     0.132 C 
HETATM    6  C3  UNL     1      -2.268   7.318  13.795  1.00  0.00     0.059 C 
HETATM    7  C5  UNL     1      -1.785   8.100  14.971  1.00  0.00     0.163 C 
HETATM    8  C6  UNL     1      -2.656   8.005  16.180  1.00  0.00     0.239 C 
ENDROOT
BRANCH   6   9
HETATM    9  C4  UNL     1      -1.154   7.184  12.777  1.00  0.00     0.173 C 
BRANCH   9  10
HETATM   10  O2  UNL     1      -0.043   7.939  13.122  1.00  0.00    -0.400 OA
ATOM     11  H2  UNL     1       0.019   8.734  12.606  1.00  0.00     0.209 HD
ENDBRANCH   9  10
ENDBRANCH   6   9
BRANCH   7  12
HETATM   12  O3  UNL     1      -1.750   9.457  14.578  1.00  0.00    -0.392 OA
ATOM     13  H3  UNL     1      -1.489   9.960  15.341  1.00  0.00     0.210 HD
ENDBRANCH   7  12
BRANCH   8  14
HETATM   14  O4  UNL     1      -1.850   7.643  17.282  1.00  0.00    -0.384 OA
ATOM     15  H4  UNL     1      -2.184   6.838  17.662  1.00  0.00     0.210 HD
ENDBRANCH   8  14
TORSDOF 4
ENDMDL
