MODEL 3
REMARK VINA RESULT: -6.068791243      1.505      1.647
REMARK  4 active torsions:
REMARK  status: ('A' for Active; 'I' for Inactive)
REMARK    1  A    between atoms: C3_6  and  C4_7 
REMARK    2  A    between atoms: C4_7  and  O2_8 
REMARK    3  A    between atoms: C5_10  and  O3_11 
REMARK    4  A    between atoms: C6_13  and  O4_14 
ROOT
HETATM    1  O1  UNL     1      71.777  12.624  31.675  1.00  0.00    -0.271 OA
HETATM    2  C1  UNL     1      72.983  12.553  32.009  1.00  0.00     0.249 C 
HETATM    3  N1  UNL     1      73.829  13.648  31.654  1.00  0.00    -0.358 N 
ATOM      4  H1  UNL     1      73.524  14.370  31.000  1.00  0.00     0.162 HD
HETATM    5  C2  UNL     1      75.140  13.682  32.267  1.00  0.00     0.132 C 
HETATM    6  C3  UNL     1      75.133  13.009  33.617  1.00  0.00     0.059 C 
HETATM    7  C5  UNL     1      74.677  11.589  33.560  1.00  0.00     0.163 C 
HETATM    8  C6  UNL     1      73.450  11.364  32.739  1.00  0.00     0.239 C 
ENDROOT
BRANCH   6   9
HETATM    9  C4  UNL     1      76.550  13.071  34.148  1.00  0.00     0.173 C 
BRANCH   9  10
HETATM   10  O2  UNL     1      76.980  11.840  34.620  1.00  0.00    -0.400 OA
ATOM     11  H2  UNL     1      77.617  11.931  35.319  1.00  0.00     0.209 HD
ENDBRANCH   9  10
ENDBRANCH   6   9
BRANCH   7  12
HETATM   12  O3  UNL     1      74.379  11.198  34.884  1.00  0.00    -0.392 OA
ATOM     13  H3  UNL     1      74.559  10.266  34.946  1.00  0.00     0.210 HD
ENDBRANCH   7  12
BRANCH   8  14
HETATM   14  O4  UNL     1      73.716  10.327  31.816  1.00  0.00    -0.384 OA
ATOM     15  H4  UNL     1      74.345  10.635  31.174  1.00  0.00     0.210 HD
ENDBRANCH   8  14
TORSDOF 4
ENDMDL
