MODEL 1
REMARK VINA RESULT: -6.554198188      0.000      0.000
REMARK  4 active torsions:
REMARK  status: ('A' for Active; 'I' for Inactive)
REMARK    1  A    between atoms: C3_6  and  C4_7 
REMARK    2  A    between atoms: C4_7  and  O2_8 
REMARK    3  A    between atoms: C5_10  and  O3_11 
REMARK    4  A    between atoms: C6_13  and  O4_14 
ROOT
HETATM    1  O1  UNL     1      72.396  13.410  31.073  1.00  0.00    -0.271 OA
HETATM    2  C1  UNL     1      73.324  12.899  31.743  1.00  0.00     0.249 C 
HETATM    3  N1  UNL     1      74.391  12.282  31.020  1.00  0.00    -0.358 N 
ATOM      4  H1  UNL     1      74.323  12.096  30.019  1.00  0.00     0.162 HD
HETATM    5  C2  UNL     1      75.574  11.935  31.779  1.00  0.00     0.132 C 
HETATM    6  C3  UNL     1      75.760  12.856  32.959  1.00  0.00     0.059 C 
HETATM    7  C5  UNL     1      74.590  12.860  33.886  1.00  0.00     0.163 C 
HETATM    8  C6  UNL     1      73.262  12.965  33.211  1.00  0.00     0.239 C 
ENDROOT
BRANCH   6   9
HETATM    9  C4  UNL     1      76.996  12.384  33.696  1.00  0.00     0.173 C 
BRANCH   9  10
HETATM   10  O2  UNL     1      76.678  11.560  34.765  1.00  0.00    -0.400 OA
ATOM     11  H2  UNL     1      77.108  10.715  34.701  1.00  0.00     0.209 HD
ENDBRANCH   9  10
ENDBRANCH   6   9
BRANCH   7  12
HETATM   12  O3  UNL     1      74.731  13.991  34.723  1.00  0.00    -0.392 OA
ATOM     13  H3  UNL     1      74.252  13.805  35.523  1.00  0.00     0.210 HD
ENDBRANCH   7  12
BRANCH   8  14
HETATM   14  O4  UNL     1      72.437  11.922  33.688  1.00  0.00    -0.384 OA
ATOM     15  H4  UNL     1      72.921  11.405  34.322  1.00  0.00     0.210 HD
ENDBRANCH   8  14
TORSDOF 4
ENDMDL
