MODEL 19
REMARK VINA RESULT: -5.353023553      4.090      5.028
REMARK  4 active torsions:
REMARK  status: ('A' for Active; 'I' for Inactive)
REMARK    1  A    between atoms: C3_6  and  C4_7 
REMARK    2  A    between atoms: C4_7  and  O2_8 
REMARK    3  A    between atoms: C5_10  and  O3_11 
REMARK    4  A    between atoms: C6_13  and  O4_14 
ROOT
HETATM    1  O1  UNL     1      73.691  10.821  32.329  1.00  0.00    -0.271 OA
HETATM    2  C1  UNL     1      74.677  10.049  32.272  1.00  0.00     0.249 C 
HETATM    3  N1  UNL     1      74.594   8.824  33.002  1.00  0.00    -0.358 N 
ATOM      4  H1  UNL     1      73.855   8.657  33.686  1.00  0.00     0.162 HD
HETATM    5  C2  UNL     1      75.610   7.831  32.722  1.00  0.00     0.132 C 
HETATM    6  C3  UNL     1      76.123   7.953  31.308  1.00  0.00     0.059 C 
HETATM    7  C5  UNL     1      76.686   9.301  31.006  1.00  0.00     0.163 C 
HETATM    8  C6  UNL     1      75.845  10.444  31.470  1.00  0.00     0.239 C 
ENDROOT
BRANCH   6   9
HETATM    9  C4  UNL     1      77.196   6.899  31.137  1.00  0.00     0.173 C 
BRANCH   9  10
HETATM   10  O2  UNL     1      77.685   6.863  29.840  1.00  0.00    -0.400 OA
ATOM     11  H2  UNL     1      77.038   7.158  29.210  1.00  0.00     0.209 HD
ENDBRANCH   9  10
ENDBRANCH   6   9
BRANCH   7  12
HETATM   12  O3  UNL     1      76.795   9.397  29.600  1.00  0.00    -0.392 OA
ATOM     13  H3  UNL     1      75.914   9.341  29.249  1.00  0.00     0.210 HD
ENDBRANCH   7  12
BRANCH   8  14
HETATM   14  O4  UNL     1      76.658  11.316  32.229  1.00  0.00    -0.384 OA
ATOM     15  H4  UNL     1      77.268  11.758  31.650  1.00  0.00     0.210 HD
ENDBRANCH   8  14
TORSDOF 4
ENDMDL
