MODEL 14
REMARK VINA RESULT: -5.451656695      3.604      4.360
REMARK  4 active torsions:
REMARK  status: ('A' for Active; 'I' for Inactive)
REMARK    1  A    between atoms: C3_6  and  C4_7 
REMARK    2  A    between atoms: C4_7  and  O2_8 
REMARK    3  A    between atoms: C5_10  and  O3_11 
REMARK    4  A    between atoms: C6_13  and  O4_14 
ROOT
HETATM    1  O1  UNL     1      72.604  11.053  33.805  1.00  0.00    -0.271 OA
HETATM    2  C1  UNL     1      73.527  10.262  33.502  1.00  0.00     0.249 C 
HETATM    3  N1  UNL     1      73.259   8.863  33.623  1.00  0.00    -0.358 N 
ATOM      4  H1  UNL     1      72.430   8.516  34.105  1.00  0.00     0.162 HD
HETATM    5  C2  UNL     1      74.224   7.963  33.026  1.00  0.00     0.132 C 
HETATM    6  C3  UNL     1      74.919   8.604  31.850  1.00  0.00     0.059 C 
HETATM    7  C5  UNL     1      75.617   9.875  32.205  1.00  0.00     0.163 C 
HETATM    8  C6  UNL     1      74.813  10.811  33.046  1.00  0.00     0.239 C 
ENDROOT
BRANCH   6   9
HETATM    9  C4  UNL     1      75.922   7.597  31.329  1.00  0.00     0.173 C 
BRANCH   9  10
HETATM   10  O2  UNL     1      75.969   7.582  29.943  1.00  0.00    -0.400 OA
ATOM     11  H2  UNL     1      76.823   7.318  29.620  1.00  0.00     0.209 HD
ENDBRANCH   9  10
ENDBRANCH   6   9
BRANCH   7  12
HETATM   12  O3  UNL     1      75.909  10.538  30.992  1.00  0.00    -0.392 OA
ATOM     13  H3  UNL     1      76.600  10.045  30.565  1.00  0.00     0.210 HD
ENDBRANCH   7  12
BRANCH   8  14
HETATM   14  O4  UNL     1      75.588  11.175  34.171  1.00  0.00    -0.384 OA
ATOM     15  H4  UNL     1      75.040  11.156  34.947  1.00  0.00     0.210 HD
ENDBRANCH   8  14
TORSDOF 4
ENDMDL
