MODEL 5
REMARK VINA RESULT: -6.476542357      1.928      5.725
REMARK  16 active torsions:
REMARK  status: ('A' for Active; 'I' for Inactive)
REMARK    1  A    between atoms: O1_2  and  C2_3 
REMARK    2  A    between atoms: C3_5  and  C4_6 
REMARK    3  A    between atoms: C4_6  and  O3_7 
REMARK    4  A    between atoms: C5_9  and  O4_10 
REMARK    5  A    between atoms: O4_10  and  C6_11 
REMARK    6  A    between atoms: C7_13  and  C8_14 
REMARK    7  A    between atoms: C8_14  and  O6_15 
REMARK    8  A    between atoms: C9_17  and  O7_18 
REMARK    9  A    between atoms: C10_20  and  O8_21 
REMARK   10  A    between atoms: C11_23  and  O9_24 
REMARK   11  A    between atoms: C12_26  and  O10_27 
REMARK   12  A    between atoms: O10_27  and  C13_28 
REMARK   13  A    between atoms: C16_32  and  O12_33 
REMARK   14  A    between atoms: C17_35  and  O13_36 
REMARK   15  A    between atoms: C18_38  and  O14_39 
REMARK   16  A    between atoms: C19_41  and  N1_42 
REMARK       I    between atoms: N1_42  and  C20_44 
ROOT
HETATM    1  C2  UNL     1      -2.340  19.930  19.896  1.00  0.00     0.284 C 
HETATM    2  O2  UNL     1      -1.253  20.069  20.731  1.00  0.00    -0.349 OA
HETATM    3  C3  UNL     1      -0.103  20.552  20.203  1.00  0.00     0.180 C 
HETATM    4  C5  UNL     1       0.121  20.399  18.739  1.00  0.00     0.187 C 
HETATM    5  C12 UNL     1      -1.111  20.394  17.876  1.00  0.00     0.183 C 
HETATM    6  C19 UNL     1      -2.273  20.879  18.709  1.00  0.00     0.171 C 
ENDROOT
BRANCH   4   7
HETATM    7  O4  UNL     1       0.933  19.304  18.464  1.00  0.00    -0.348 OA
BRANCH   7   8
HETATM    8  C6  UNL     1       1.927  19.553  17.517  1.00  0.00     0.292 C 
HETATM    9  O5  UNL     1       2.610  18.387  17.353  1.00  0.00    -0.348 OA
HETATM   10  C7  UNL     1       3.944  18.382  17.618  1.00  0.00     0.179 C 
HETATM   11  C9  UNL     1       4.120  18.978  19.023  1.00  0.00     0.180 C 
HETATM   12  C10 UNL     1       3.861  20.456  18.853  1.00  0.00     0.183 C 
HETATM   13  C11 UNL     1       2.764  20.744  17.871  1.00  0.00     0.204 C 
BRANCH  10  14
HETATM   14  C8  UNL     1       4.377  16.913  17.739  1.00  0.00     0.198 C 
BRANCH  14  15
HETATM   15  O6  UNL     1       4.880  16.639  19.007  1.00  0.00    -0.398 OA
ATOM     16  H6  UNL     1       4.442  15.892  19.397  1.00  0.00     0.209 HD
ENDBRANCH  14  15
ENDBRANCH  10  14
BRANCH  11  17
HETATM   17  O7  UNL     1       3.118  18.424  19.833  1.00  0.00    -0.390 OA
ATOM     18  H7  UNL     1       3.431  18.464  20.729  1.00  0.00     0.210 HD
ENDBRANCH  11  17
BRANCH  12  19
HETATM   19  O8  UNL     1       3.566  20.960  20.123  1.00  0.00    -0.390 OA
ATOM     20  H8  UNL     1       3.026  21.731  19.993  1.00  0.00     0.210 HD
ENDBRANCH  12  19
BRANCH  13  21
HETATM   21  O9  UNL     1       3.359  21.254  16.717  1.00  0.00    -0.388 OA
ATOM     22  H9  UNL     1       3.359  22.204  16.754  1.00  0.00     0.210 HD
ENDBRANCH  13  21
ENDBRANCH   7   8
ENDBRANCH   4   7
BRANCH   3  23
HETATM   23  C4  UNL     1       0.230  21.963  20.710  1.00  0.00     0.198 C 
BRANCH  23  24
HETATM   24  O3  UNL     1       1.301  21.914  21.601  1.00  0.00    -0.398 OA
ATOM     25  H3  UNL     1       1.668  22.782  21.721  1.00  0.00     0.209 HD
ENDBRANCH  23  24
ENDBRANCH   3  23
BRANCH   5  26
HETATM   26  O10 UNL     1      -0.920  21.160  16.740  1.00  0.00    -0.348 OA
BRANCH  26  27
HETATM   27  C13 UNL     1      -1.411  20.595  15.570  1.00  0.00     0.292 C 
HETATM   28  O11 UNL     1      -0.762  19.466  15.184  1.00  0.00    -0.351 OA
HETATM   29  C14 UNL     1       0.499  19.672  14.645  1.00  0.00     0.152 C 
HETATM   30  C15 UNL     1       1.096  18.333  14.297  1.00  0.00     0.042 C 
HETATM   31  C16 UNL     1       0.403  20.483  13.367  1.00  0.00     0.178 C 
HETATM   32  C17 UNL     1      -1.008  20.996  13.176  1.00  0.00     0.183 C 
HETATM   33  C18 UNL     1      -1.581  21.550  14.456  1.00  0.00     0.204 C 
BRANCH  31  34
HETATM   34  O12 UNL     1       0.823  19.775  12.251  1.00  0.00    -0.390 OA
ATOM     35  H12 UNL     1       0.721  18.836  12.354  1.00  0.00     0.210 HD
ENDBRANCH  31  34
BRANCH  32  36
HETATM   36  O13 UNL     1      -1.789  19.904  12.800  1.00  0.00    -0.390 OA
ATOM     37  H13 UNL     1      -2.025  20.033  11.889  1.00  0.00     0.210 HD
ENDBRANCH  32  36
BRANCH  33  38
HETATM   38  O14 UNL     1      -0.860  22.755  14.665  1.00  0.00    -0.388 OA
ATOM     39  H14 UNL     1      -0.671  22.907  15.583  1.00  0.00     0.210 HD
ENDBRANCH  33  38
ENDBRANCH  26  27
ENDBRANCH   5  26
BRANCH   6  40
HETATM   40  N1  UNL     1      -3.538  20.743  18.009  1.00  0.00    -0.349 N 
HETATM   41  C20 UNL     1      -4.318  21.852  17.580  1.00  0.00     0.214 C 
HETATM   42  C21 UNL     1      -5.612  21.656  16.865  1.00  0.00     0.117 C 
HETATM   43  O15 UNL     1      -3.914  23.020  17.805  1.00  0.00    -0.274 OA
ATOM     44  H1  UNL     1      -3.885  19.804  17.815  1.00  0.00     0.163 HD
ENDBRANCH   6  40
BRANCH   1  45
HETATM   45  O1  UNL     1      -3.550  20.011  20.572  1.00  0.00    -0.364 OA
HETATM   46  C1  UNL     1      -3.467  20.984  21.543  1.00  0.00     0.204 C 
ENDBRANCH   1  45
TORSDOF 16
ENDMDL
