MODEL 1
REMARK VINA RESULT: -6.668311816      0.000      0.000
REMARK  16 active torsions:
REMARK  status: ('A' for Active; 'I' for Inactive)
REMARK    1  A    between atoms: O1_2  and  C2_3 
REMARK    2  A    between atoms: C3_5  and  C4_6 
REMARK    3  A    between atoms: C4_6  and  O3_7 
REMARK    4  A    between atoms: C5_9  and  O4_10 
REMARK    5  A    between atoms: O4_10  and  C6_11 
REMARK    6  A    between atoms: C7_13  and  C8_14 
REMARK    7  A    between atoms: C8_14  and  O6_15 
REMARK    8  A    between atoms: C9_17  and  O7_18 
REMARK    9  A    between atoms: C10_20  and  O8_21 
REMARK   10  A    between atoms: C11_23  and  O9_24 
REMARK   11  A    between atoms: C12_26  and  O10_27 
REMARK   12  A    between atoms: O10_27  and  C13_28 
REMARK   13  A    between atoms: C16_32  and  O12_33 
REMARK   14  A    between atoms: C17_35  and  O13_36 
REMARK   15  A    between atoms: C18_38  and  O14_39 
REMARK   16  A    between atoms: C19_41  and  N1_42 
REMARK       I    between atoms: N1_42  and  C20_44 
ROOT
HETATM    1  C2  UNL     1      -2.927  20.256  20.108  1.00  0.00     0.284 C 
HETATM    2  O2  UNL     1      -3.565  19.836  18.962  1.00  0.00    -0.349 OA
HETATM    3  C3  UNL     1      -2.841  19.768  17.819  1.00  0.00     0.180 C 
HETATM    4  C5  UNL     1      -1.624  20.617  17.702  1.00  0.00     0.187 C 
HETATM    5  C12 UNL     1      -0.901  20.920  18.987  1.00  0.00     0.183 C 
HETATM    6  C19 UNL     1      -1.428  19.994  20.056  1.00  0.00     0.171 C 
ENDROOT
BRANCH   4   7
HETATM    7  O4  UNL     1      -1.886  21.781  16.986  1.00  0.00    -0.348 OA
BRANCH   7   8
HETATM    8  C6  UNL     1      -2.846  21.633  15.986  1.00  0.00     0.292 C 
HETATM    9  O5  UNL     1      -2.277  20.874  15.009  1.00  0.00    -0.348 OA
HETATM   10  C7  UNL     1      -2.176  21.404  13.761  1.00  0.00     0.179 C 
HETATM   11  C9  UNL     1      -1.499  22.774  13.913  1.00  0.00     0.180 C 
HETATM   12  C10 UNL     1      -2.556  23.664  14.525  1.00  0.00     0.183 C 
HETATM   13  C11 UNL     1      -3.405  22.948  15.534  1.00  0.00     0.204 C 
BRANCH  10  14
HETATM   14  C8  UNL     1      -1.177  20.537  12.981  1.00  0.00     0.198 C 
BRANCH  14  15
HETATM   15  O6  UNL     1      -0.528  19.636  13.819  1.00  0.00    -0.398 OA
ATOM     16  H6  UNL     1      -1.150  19.118  14.315  1.00  0.00     0.209 HD
ENDBRANCH  14  15
ENDBRANCH  10  14
BRANCH  11  17
HETATM   17  O7  UNL     1      -0.447  22.613  14.827  1.00  0.00    -0.390 OA
ATOM     18  H7  UNL     1      -0.588  23.241  15.527  1.00  0.00     0.210 HD
ENDBRANCH  11  17
BRANCH  12  19
HETATM   19  O8  UNL     1      -1.886  24.753  15.089  1.00  0.00    -0.390 OA
ATOM     20  H8  UNL     1      -2.553  25.378  15.350  1.00  0.00     0.210 HD
ENDBRANCH  12  19
BRANCH  13  21
HETATM   21  O9  UNL     1      -4.659  22.748  14.958  1.00  0.00    -0.388 OA
ATOM     22  H9  UNL     1      -4.641  23.034  14.053  1.00  0.00     0.210 HD
ENDBRANCH  13  21
ENDBRANCH   7   8
ENDBRANCH   4   7
BRANCH   3  23
HETATM   23  C4  UNL     1      -2.602  18.323  17.359  1.00  0.00     0.198 C 
BRANCH  23  24
HETATM   24  O3  UNL     1      -1.869  18.310  16.173  1.00  0.00    -0.398 OA
ATOM     25  H3  UNL     1      -1.246  19.027  16.164  1.00  0.00     0.209 HD
ENDBRANCH  23  24
ENDBRANCH   3  23
BRANCH   5  26
HETATM   26  O10 UNL     1       0.468  20.806  18.819  1.00  0.00    -0.348 OA
BRANCH  26  27
HETATM   27  C13 UNL     1       0.869  19.741  18.023  1.00  0.00     0.292 C 
HETATM   28  O11 UNL     1       1.834  18.965  18.579  1.00  0.00    -0.351 OA
HETATM   29  C14 UNL     1       3.101  19.529  18.593  1.00  0.00     0.152 C 
HETATM   30  C15 UNL     1       4.046  18.565  19.264  1.00  0.00     0.042 C 
HETATM   31  C16 UNL     1       3.597  19.755  17.178  1.00  0.00     0.178 C 
HETATM   32  C17 UNL     1       2.486  19.492  16.185  1.00  0.00     0.183 C 
HETATM   33  C18 UNL     1       1.183  20.108  16.627  1.00  0.00     0.204 C 
BRANCH  31  34
HETATM   34  O12 UNL     1       4.716  18.995  16.875  1.00  0.00    -0.390 OA
ATOM     35  H12 UNL     1       5.505  19.519  16.800  1.00  0.00     0.210 HD
ENDBRANCH  31  34
BRANCH  32  36
HETATM   36  O13 UNL     1       2.306  18.111  16.134  1.00  0.00    -0.390 OA
ATOM     37  H13 UNL     1       2.255  17.805  17.032  1.00  0.00     0.210 HD
ENDBRANCH  32  36
BRANCH  33  38
HETATM   38  O14 UNL     1       1.388  21.505  16.470  1.00  0.00    -0.388 OA
ATOM     39  H14 UNL     1       1.707  21.726  15.603  1.00  0.00     0.210 HD
ENDBRANCH  33  38
ENDBRANCH  26  27
ENDBRANCH   5  26
BRANCH   6  40
HETATM   40  N1  UNL     1      -0.912  20.331  21.370  1.00  0.00    -0.349 N 
HETATM   41  C20 UNL     1       0.106  19.584  22.025  1.00  0.00     0.214 C 
HETATM   42  C21 UNL     1       0.601  19.973  23.377  1.00  0.00     0.117 C 
HETATM   43  O15 UNL     1       0.600  18.578  21.458  1.00  0.00    -0.274 OA
ATOM     44  H1  UNL     1      -1.299  21.144  21.848  1.00  0.00     0.163 HD
ENDBRANCH   6  40
BRANCH   1  45
HETATM   45  O1  UNL     1      -3.512  19.754  21.263  1.00  0.00    -0.364 OA
HETATM   46  C1  UNL     1      -4.659  20.463  21.541  1.00  0.00     0.204 C 
ENDBRANCH   1  45
TORSDOF 16
ENDMDL
