MODEL 4
REMARK VINA RESULT: -6.548359422      2.081      6.001
REMARK  16 active torsions:
REMARK  status: ('A' for Active; 'I' for Inactive)
REMARK    1  A    between atoms: O1_2  and  C2_3 
REMARK    2  A    between atoms: C3_5  and  C4_6 
REMARK    3  A    between atoms: C4_6  and  O3_7 
REMARK    4  A    between atoms: C5_9  and  O4_10 
REMARK    5  A    between atoms: O4_10  and  C6_11 
REMARK    6  A    between atoms: C7_13  and  C8_14 
REMARK    7  A    between atoms: C8_14  and  O6_15 
REMARK    8  A    between atoms: C9_17  and  O7_18 
REMARK    9  A    between atoms: C10_20  and  O8_21 
REMARK   10  A    between atoms: C11_23  and  O9_24 
REMARK   11  A    between atoms: C12_26  and  O10_27 
REMARK   12  A    between atoms: O10_27  and  C13_28 
REMARK   13  A    between atoms: C16_32  and  O12_33 
REMARK   14  A    between atoms: C17_35  and  O13_36 
REMARK   15  A    between atoms: C18_38  and  O14_39 
REMARK   16  A    between atoms: C19_41  and  N1_42 
REMARK       I    between atoms: N1_42  and  C20_44 
ROOT
HETATM    1  C2  UNL     1      -0.497  20.780  22.693  1.00  0.00     0.284 C 
HETATM    2  O2  UNL     1       0.716  21.432  22.706  1.00  0.00    -0.349 OA
HETATM    3  C3  UNL     1       1.254  21.798  21.517  1.00  0.00     0.180 C 
HETATM    4  C5  UNL     1       0.845  21.052  20.297  1.00  0.00     0.187 C 
HETATM    5  C12 UNL     1      -0.549  20.483  20.303  1.00  0.00     0.183 C 
HETATM    6  C19 UNL     1      -1.308  21.108  21.448  1.00  0.00     0.171 C 
ENDROOT
BRANCH   4   7
HETATM    7  O4  UNL     1       1.783  20.081  19.959  1.00  0.00    -0.348 OA
BRANCH   7   8
HETATM    8  C6  UNL     1       2.892  20.573  19.273  1.00  0.00     0.292 C 
HETATM    9  O5  UNL     1       2.780  20.137  17.988  1.00  0.00    -0.348 OA
HETATM   10  C7  UNL     1       3.777  19.363  17.483  1.00  0.00     0.179 C 
HETATM   11  C9  UNL     1       3.997  18.214  18.479  1.00  0.00     0.180 C 
HETATM   12  C10 UNL     1       4.690  18.851  19.660  1.00  0.00     0.183 C 
HETATM   13  C11 UNL     1       4.181  20.232  19.956  1.00  0.00     0.204 C 
BRANCH  10  14
HETATM   14  C8  UNL     1       3.236  18.701  16.207  1.00  0.00     0.198 C 
BRANCH  14  15
HETATM   15  O6  UNL     1       1.888  18.382  16.337  1.00  0.00    -0.398 OA
ATOM     16  H6  UNL     1       1.707  17.511  16.006  1.00  0.00     0.209 HD
ENDBRANCH  14  15
ENDBRANCH  10  14
BRANCH  11  17
HETATM   17  O7  UNL     1       2.728  17.767  18.875  1.00  0.00    -0.390 OA
ATOM     18  H7  UNL     1       2.643  17.956  19.802  1.00  0.00     0.210 HD
ENDBRANCH  11  17
BRANCH  12  19
HETATM   19  O8  UNL     1       4.509  17.988  20.745  1.00  0.00    -0.390 OA
ATOM     20  H8  UNL     1       4.112  18.501  21.439  1.00  0.00     0.210 HD
ENDBRANCH  12  19
BRANCH  13  21
HETATM   21  O9  UNL     1       5.170  21.134  19.564  1.00  0.00    -0.388 OA
ATOM     22  H9  UNL     1       5.191  21.865  20.170  1.00  0.00     0.210 HD
ENDBRANCH  13  21
ENDBRANCH   7   8
ENDBRANCH   4   7
BRANCH   3  23
HETATM   23  C4  UNL     1       1.247  23.320  21.312  1.00  0.00     0.198 C 
BRANCH  23  24
HETATM   24  O3  UNL     1       1.097  23.623  19.958  1.00  0.00    -0.398 OA
ATOM     25  H3  UNL     1       1.678  24.334  19.715  1.00  0.00     0.209 HD
ENDBRANCH  23  24
ENDBRANCH   3  23
BRANCH   5  26
HETATM   26  O10 UNL     1      -1.169  20.689  19.083  1.00  0.00    -0.348 OA
BRANCH  26  27
HETATM   27  C13 UNL     1      -0.921  19.707  18.133  1.00  0.00     0.292 C 
HETATM   28  O11 UNL     1      -0.191  20.135  17.071  1.00  0.00    -0.351 OA
HETATM   29  C14 UNL     1      -0.882  20.936  16.173  1.00  0.00     0.152 C 
HETATM   30  C15 UNL     1       0.065  21.351  15.076  1.00  0.00     0.042 C 
HETATM   31  C16 UNL     1      -2.018  20.161  15.535  1.00  0.00     0.178 C 
HETATM   32  C17 UNL     1      -2.186  18.820  16.218  1.00  0.00     0.183 C 
HETATM   33  C18 UNL     1      -2.115  18.943  17.719  1.00  0.00     0.204 C 
BRANCH  31  34
HETATM   34  O12 UNL     1      -1.855  19.999  14.168  1.00  0.00    -0.390 OA
ATOM     35  H12 UNL     1      -2.489  20.494  13.663  1.00  0.00     0.210 HD
ENDBRANCH  31  34
BRANCH  32  36
HETATM   36  O13 UNL     1      -1.120  18.021  15.808  1.00  0.00    -0.390 OA
ATOM     37  H13 UNL     1      -1.398  17.573  15.017  1.00  0.00     0.210 HD
ENDBRANCH  32  36
BRANCH  33  38
HETATM   38  O14 UNL     1      -3.324  19.600  18.070  1.00  0.00    -0.388 OA
ATOM     39  H14 UNL     1      -4.011  19.456  17.431  1.00  0.00     0.210 HD
ENDBRANCH  33  38
ENDBRANCH  26  27
ENDBRANCH   5  26
BRANCH   6  40
HETATM   40  N1  UNL     1      -2.609  20.490  21.638  1.00  0.00    -0.349 N 
HETATM   41  C20 UNL     1      -3.829  21.100  21.236  1.00  0.00     0.214 C 
HETATM   42  C21 UNL     1      -5.140  20.422  21.455  1.00  0.00     0.117 C 
HETATM   43  O15 UNL     1      -3.808  22.228  20.685  1.00  0.00    -0.274 OA
ATOM     44  H1  UNL     1      -2.649  19.574  22.083  1.00  0.00     0.163 HD
ENDBRANCH   6  40
BRANCH   1  45
HETATM   45  O1  UNL     1      -1.221  20.971  23.862  1.00  0.00    -0.364 OA
HETATM   46  C1  UNL     1      -0.735  22.075  24.527  1.00  0.00     0.204 C 
ENDBRANCH   1  45
TORSDOF 16
ENDMDL
