MODEL 4
REMARK VINA RESULT: -6.254577758      3.276      5.164
REMARK  7 active torsions:
REMARK  status: ('A' for Active; 'I' for Inactive)
REMARK    1  A    between atoms: O1_1  and  C1_3 
REMARK    2  A    between atoms: C2_4  and  O2_5 
REMARK    3  A    between atoms: C4_9  and  O4_10 
REMARK    4  A    between atoms: O4_10  and  C5_11 
REMARK    5  A    between atoms: C8_17  and  O5_18 
REMARK    6  A    between atoms: C9_20  and  O6_21 
REMARK    7  A    between atoms: C10_23  and  O7_24 
ROOT
HETATM    1  O4  UNL     1       7.900  19.031  15.025  1.00  0.00    -0.349 OA
ENDROOT
BRANCH   1   2
HETATM    2  C4  UNL     1       8.204  17.724  14.909  1.00  0.00     0.291 C 
HETATM    3  O3  UNL     1       7.453  16.940  15.815  1.00  0.00    -0.356 OA
HETATM    4  C3  UNL     1       7.654  15.588  15.493  1.00  0.00     0.205 C 
HETATM    5  C2  UNL     1       9.112  15.200  15.589  1.00  0.00     0.173 C 
HETATM    6  C1  UNL     1       9.845  16.382  16.212  1.00  0.00     0.182 C 
HETATM    7  C10 UNL     1       9.674  17.542  15.236  1.00  0.00     0.204 C 
BRANCH   5   8
HETATM    8  O2  UNL     1       9.676  15.040  14.309  1.00  0.00    -0.391 OA
ATOM      9  H2  UNL     1       9.907  14.120  14.246  1.00  0.00     0.210 HD
ENDBRANCH   5   8
BRANCH   6  10
HETATM   10  O1  UNL     1       9.158  16.688  17.394  1.00  0.00    -0.390 OA
ATOM     11  H1  UNL     1       9.670  17.357  17.833  1.00  0.00     0.210 HD
ENDBRANCH   6  10
BRANCH   7  12
HETATM   12  O7  UNL     1      10.436  17.281  14.122  1.00  0.00    -0.388 OA
ATOM     13  H7  UNL     1      10.036  17.719  13.380  1.00  0.00     0.210 HD
ENDBRANCH   7  12
ENDBRANCH   1   2
BRANCH   1  14
HETATM   14  C5  UNL     1       7.258  19.652  14.004  1.00  0.00     0.181 C 
HETATM   15  C6  UNL     1       7.544  21.088  13.794  1.00  0.00     0.266 C 
HETATM   16  N1  UNL     1       6.507  21.978  14.250  1.00  0.00    -0.070 N 
HETATM   17  C7  UNL     1       5.913  21.587  15.500  1.00  0.00     0.266 C 
ATOM     18  H12 UNL     1       6.853  22.937  14.301  1.00  0.00     0.277 HD
ATOM     19  H11 UNL     1       5.791  22.093  13.533  1.00  0.00     0.277 HD
HETATM   20  C8  UNL     1       5.318  20.206  15.467  1.00  0.00     0.175 C 
HETATM   21  C9  UNL     1       5.754  19.468  14.251  1.00  0.00     0.179 C 
BRANCH  20  22
HETATM   22  O5  UNL     1       5.670  19.500  16.607  1.00  0.00    -0.391 OA
ATOM     23  H5  UNL     1       4.941  18.972  16.908  1.00  0.00     0.210 HD
ENDBRANCH  20  22
BRANCH  21  24
HETATM   24  O6  UNL     1       5.098  19.800  13.096  1.00  0.00    -0.390 OA
ATOM     25  H6  UNL     1       5.430  20.642  12.807  1.00  0.00     0.210 HD
ENDBRANCH  21  24
ENDBRANCH   1  14
TORSDOF 7
ENDMDL
