MODEL 3
REMARK VINA RESULT: -6.336846173      3.165      5.353
REMARK  7 active torsions:
REMARK  status: ('A' for Active; 'I' for Inactive)
REMARK    1  A    between atoms: O1_1  and  C1_3 
REMARK    2  A    between atoms: C2_4  and  O2_5 
REMARK    3  A    between atoms: C4_9  and  O4_10 
REMARK    4  A    between atoms: O4_10  and  C5_11 
REMARK    5  A    between atoms: C8_17  and  O5_18 
REMARK    6  A    between atoms: C9_20  and  O6_21 
REMARK    7  A    between atoms: C10_23  and  O7_24 
ROOT
HETATM    1  O4  UNL     1       7.217  18.130  14.649  1.00  0.00    -0.349 OA
ENDROOT
BRANCH   1   2
HETATM    2  C4  UNL     1       8.106  17.674  15.553  1.00  0.00     0.291 C 
HETATM    3  O3  UNL     1       9.433  17.946  15.150  1.00  0.00    -0.356 OA
HETATM    4  C3  UNL     1      10.285  17.647  16.225  1.00  0.00     0.205 C 
HETATM    5  C2  UNL     1      10.178  16.196  16.637  1.00  0.00     0.173 C 
HETATM    6  C1  UNL     1       9.317  15.500  15.590  1.00  0.00     0.182 C 
HETATM    7  C10 UNL     1       7.947  16.169  15.664  1.00  0.00     0.204 C 
BRANCH   5   8
HETATM    8  O2  UNL     1       9.475  16.068  17.849  1.00  0.00    -0.391 OA
ATOM      9  H2  UNL     1       9.906  15.364  18.321  1.00  0.00     0.210 HD
ENDBRANCH   5   8
BRANCH   6  10
HETATM   10  O1  UNL     1       9.893  15.799  14.348  1.00  0.00    -0.390 OA
ATOM     11  H1  UNL     1       9.509  15.193  13.725  1.00  0.00     0.210 HD
ENDBRANCH   6  10
BRANCH   7  12
HETATM   12  O7  UNL     1       7.345  15.785  16.839  1.00  0.00    -0.388 OA
ATOM     13  H7  UNL     1       6.405  15.873  16.733  1.00  0.00     0.210 HD
ENDBRANCH   7  12
ENDBRANCH   1   2
BRANCH   1  14
HETATM   14  C5  UNL     1       6.166  18.874  15.075  1.00  0.00     0.181 C 
HETATM   15  C6  UNL     1       4.969  18.918  14.208  1.00  0.00     0.266 C 
HETATM   16  N1  UNL     1       4.814  20.140  13.461  1.00  0.00    -0.070 N 
HETATM   17  C7  UNL     1       6.047  20.657  12.931  1.00  0.00     0.266 C 
ATOM     18  H12 UNL     1       4.124  20.023  12.718  1.00  0.00     0.277 HD
ATOM     19  H11 UNL     1       4.341  20.848  14.023  1.00  0.00     0.277 HD
HETATM   20  C8  UNL     1       7.083  20.921  13.989  1.00  0.00     0.175 C 
HETATM   21  C9  UNL     1       6.691  20.302  15.283  1.00  0.00     0.179 C 
BRANCH  20  22
HETATM   22  O5  UNL     1       8.320  20.443  13.584  1.00  0.00    -0.391 OA
ATOM     23  H5  UNL     1       8.832  21.140  13.192  1.00  0.00     0.210 HD
ENDBRANCH  20  22
BRANCH  21  24
HETATM   24  O6  UNL     1       5.751  20.990  16.003  1.00  0.00    -0.390 OA
ATOM     25  H6  UNL     1       5.182  21.433  15.385  1.00  0.00     0.210 HD
ENDBRANCH  21  24
ENDBRANCH   1  14
TORSDOF 7
ENDMDL
