MODEL 5
REMARK VINA RESULT: -6.195937008      3.198      5.172
REMARK  7 active torsions:
REMARK  status: ('A' for Active; 'I' for Inactive)
REMARK    1  A    between atoms: O1_1  and  C1_3 
REMARK    2  A    between atoms: C2_4  and  O2_5 
REMARK    3  A    between atoms: C4_9  and  O4_10 
REMARK    4  A    between atoms: O4_10  and  C5_11 
REMARK    5  A    between atoms: C8_17  and  O5_18 
REMARK    6  A    between atoms: C9_20  and  O6_21 
REMARK    7  A    between atoms: C10_23  and  O7_24 
ROOT
HETATM    1  O4  UNL     1       7.709  18.893  15.562  1.00  0.00    -0.349 OA
ENDROOT
BRANCH   1   2
HETATM    2  C4  UNL     1       8.145  17.631  15.383  1.00  0.00     0.291 C 
HETATM    3  O3  UNL     1       7.590  16.755  16.343  1.00  0.00    -0.356 OA
HETATM    4  C3  UNL     1       7.905  15.439  15.968  1.00  0.00     0.205 C 
HETATM    5  C2  UNL     1       9.400  15.220  15.900  1.00  0.00     0.173 C 
HETATM    6  C1  UNL     1      10.058  16.471  16.471  1.00  0.00     0.182 C 
HETATM    7  C10 UNL     1       9.652  17.616  15.548  1.00  0.00     0.204 C 
BRANCH   5   8
HETATM    8  O2  UNL     1       9.837  15.142  14.564  1.00  0.00    -0.391 OA
ATOM      9  H2  UNL     1       9.285  14.486  14.154  1.00  0.00     0.210 HD
ENDBRANCH   5   8
BRANCH   6  10
HETATM   10  O1  UNL     1       9.473  16.681  17.727  1.00  0.00    -0.390 OA
ATOM     11  H1  UNL     1       9.066  17.539  17.689  1.00  0.00     0.210 HD
ENDBRANCH   6  10
BRANCH   7  12
HETATM   12  O7  UNL     1      10.314  17.458  14.353  1.00  0.00    -0.388 OA
ATOM     13  H7  UNL     1      11.052  18.056  14.341  1.00  0.00     0.210 HD
ENDBRANCH   7  12
ENDBRANCH   1   2
BRANCH   1  14
HETATM   14  C5  UNL     1       6.376  19.125  15.648  1.00  0.00     0.181 C 
HETATM   15  C6  UNL     1       5.499  18.406  14.698  1.00  0.00     0.266 C 
HETATM   16  N1  UNL     1       5.004  19.212  13.611  1.00  0.00    -0.070 N 
HETATM   17  C7  UNL     1       5.980  20.118  13.070  1.00  0.00     0.266 C 
ATOM     18  H12 UNL     1       4.614  18.622  12.876  1.00  0.00     0.277 HD
ATOM     19  H11 UNL     1       4.162  19.716  13.891  1.00  0.00     0.277 HD
HETATM   20  C8  UNL     1       6.542  21.066  14.094  1.00  0.00     0.175 C 
HETATM   21  C9  UNL     1       6.178  20.637  15.471  1.00  0.00     0.179 C 
BRANCH  20  22
HETATM   22  O5  UNL     1       7.919  21.153  13.968  1.00  0.00    -0.391 OA
ATOM     23  H5  UNL     1       8.317  21.342  14.809  1.00  0.00     0.210 HD
ENDBRANCH  20  22
BRANCH  21  24
HETATM   24  O6  UNL     1       4.901  20.939  15.862  1.00  0.00    -0.390 OA
ATOM     25  H6  UNL     1       4.860  21.875  16.017  1.00  0.00     0.210 HD
ENDBRANCH  21  24
ENDBRANCH   1  14
TORSDOF 7
ENDMDL
