MODEL 3
REMARK VINA RESULT: -6.267429399      1.530      2.135
REMARK  6 active torsions:
REMARK  status: ('A' for Active; 'I' for Inactive)
REMARK    1  A    between atoms: O1_1  and  C1_3 
REMARK    2  A    between atoms: C2_4  and  O2_5 
REMARK    3  A    between atoms: C4_9  and  O4_10 
REMARK    4  A    between atoms: O4_10  and  C5_11 
REMARK    5  A    between atoms: C9_18  and  O5_19 
REMARK    6  A    between atoms: C10_21  and  O6_22 
ROOT
HETATM    1  C1  UNL     1       9.333  15.603  14.511  1.00  0.00     0.182 C 
HETATM    2  C2  UNL     1       9.098  16.980  13.920  1.00  0.00     0.173 C 
HETATM    3  C3  UNL     1       8.184  17.708  14.914  1.00  0.00     0.205 C 
HETATM    4  O3  UNL     1       6.956  17.071  14.847  1.00  0.00    -0.356 OA
HETATM    5  C4  UNL     1       6.983  15.787  15.382  1.00  0.00     0.291 C 
HETATM    6  C10 UNL     1       8.039  14.913  14.764  1.00  0.00     0.204 C 
ENDROOT
BRANCH   5   7
HETATM    7  O4  UNL     1       5.747  15.204  15.073  1.00  0.00    -0.351 OA
BRANCH   7   8
HETATM    8  C5  UNL     1       5.053  14.843  16.249  1.00  0.00     0.156 C 
HETATM    9  C6  UNL     1       5.003  13.358  16.285  1.00  0.00     0.062 C 
HETATM   10  C7  UNL     1       3.733  12.778  16.798  1.00  0.00     0.235 C 
HETATM   11  N1  UNL     1       3.152  13.756  17.729  1.00  0.00    -0.073 N 
HETATM   12  C8  UNL     1       2.626  14.816  16.898  1.00  0.00     0.266 C 
ATOM     13  H12 UNL     1       2.465  13.357  18.368  1.00  0.00     0.277 HD
ATOM     14  H11 UNL     1       3.804  14.081  18.443  1.00  0.00     0.277 HD
HETATM   15  C9  UNL     1       3.733  15.525  16.206  1.00  0.00     0.172 C 
BRANCH  15  16
HETATM   16  O5  UNL     1       3.865  16.795  16.815  1.00  0.00    -0.391 OA
ATOM     17  H5  UNL     1       3.123  17.330  16.559  1.00  0.00     0.210 HD
ENDBRANCH  15  16
ENDBRANCH   7   8
ENDBRANCH   5   7
BRANCH   6  18
HETATM   18  O6  UNL     1       8.249  13.823  15.606  1.00  0.00    -0.388 OA
ATOM     19  H6  UNL     1       7.413  13.494  15.915  1.00  0.00     0.210 HD
ENDBRANCH   6  18
BRANCH   1  20
HETATM   20  O1  UNL     1      10.049  14.871  13.547  1.00  0.00    -0.390 OA
ATOM     21  H1  UNL     1      10.295  15.487  12.867  1.00  0.00     0.210 HD
ENDBRANCH   1  20
BRANCH   2  22
HETATM   22  O2  UNL     1      10.278  17.653  13.712  1.00  0.00    -0.391 OA
ATOM     23  H2  UNL     1      10.273  18.127  12.888  1.00  0.00     0.210 HD
ENDBRANCH   2  22
TORSDOF 6
ENDMDL
