MODEL 4
REMARK VINA RESULT: -6.216037307      2.463      5.510
REMARK  6 active torsions:
REMARK  status: ('A' for Active; 'I' for Inactive)
REMARK    1  A    between atoms: O1_1  and  C1_3 
REMARK    2  A    between atoms: C2_4  and  O2_5 
REMARK    3  A    between atoms: C4_9  and  O4_10 
REMARK    4  A    between atoms: O4_10  and  C5_11 
REMARK    5  A    between atoms: C9_18  and  O5_19 
REMARK    6  A    between atoms: C10_21  and  O6_22 
ROOT
HETATM    1  C1  UNL     1       5.278  12.912  15.800  1.00  0.00     0.182 C 
HETATM    2  C2  UNL     1       4.661  14.045  16.598  1.00  0.00     0.173 C 
HETATM    3  C3  UNL     1       5.295  15.330  16.052  1.00  0.00     0.205 C 
HETATM    4  O3  UNL     1       6.625  15.298  16.439  1.00  0.00    -0.356 OA
HETATM    5  C4  UNL     1       7.358  14.321  15.772  1.00  0.00     0.291 C 
HETATM    6  C10 UNL     1       6.763  12.947  15.901  1.00  0.00     0.204 C 
ENDROOT
BRANCH   5   7
HETATM    7  O4  UNL     1       8.613  14.275  16.394  1.00  0.00    -0.351 OA
BRANCH   7   8
HETATM    8  C5  UNL     1       9.532  15.119  15.733  1.00  0.00     0.156 C 
HETATM    9  C6  UNL     1       9.835  16.241  16.659  1.00  0.00     0.062 C 
HETATM   10  C7  UNL     1       9.993  17.572  16.013  1.00  0.00     0.235 C 
HETATM   11  N1  UNL     1      10.466  17.338  14.641  1.00  0.00    -0.073 N 
HETATM   12  C8  UNL     1       9.319  16.841  13.915  1.00  0.00     0.266 C 
ATOM     13  H12 UNL     1      10.900  18.155  14.212  1.00  0.00     0.277 HD
ATOM     14  H11 UNL     1      11.281  16.727  14.587  1.00  0.00     0.277 HD
HETATM   15  C9  UNL     1       8.917  15.510  14.437  1.00  0.00     0.172 C 
BRANCH  15  16
HETATM   16  O5  UNL     1       9.277  14.550  13.462  1.00  0.00    -0.391 OA
ATOM     17  H5  UNL     1       9.906  14.945  12.869  1.00  0.00     0.210 HD
ENDBRANCH  15  16
ENDBRANCH   7   8
ENDBRANCH   5   7
BRANCH   6  18
HETATM   18  O6  UNL     1       7.316  12.138  14.910  1.00  0.00    -0.388 OA
ATOM     19  H6  UNL     1       7.316  12.604  14.082  1.00  0.00     0.210 HD
ENDBRANCH   6  18
BRANCH   1  20
HETATM   20  O1  UNL     1       4.819  11.716  16.381  1.00  0.00    -0.390 OA
ATOM     21  H1  UNL     1       5.286  11.009  15.950  1.00  0.00     0.210 HD
ENDBRANCH   1  20
BRANCH   2  22
HETATM   22  O2  UNL     1       3.291  14.056  16.490  1.00  0.00    -0.391 OA
ATOM     23  H2  UNL     1       2.935  14.930  16.610  1.00  0.00     0.210 HD
ENDBRANCH   2  22
TORSDOF 6
ENDMDL
