MODEL 2
REMARK VINA RESULT: -6.479080971      4.085      5.360
REMARK  6 active torsions:
REMARK  status: ('A' for Active; 'I' for Inactive)
REMARK    1  A    between atoms: O1_1  and  C1_3 
REMARK    2  A    between atoms: C2_4  and  O2_5 
REMARK    3  A    between atoms: C4_9  and  O4_10 
REMARK    4  A    between atoms: O4_10  and  C5_11 
REMARK    5  A    between atoms: C9_18  and  O5_19 
REMARK    6  A    between atoms: C10_21  and  O6_22 
ROOT
HETATM    1  C1  UNL     1       9.552  15.780  15.361  1.00  0.00     0.182 C 
HETATM    2  C2  UNL     1       8.295  15.315  16.071  1.00  0.00     0.173 C 
HETATM    3  C3  UNL     1       7.135  15.655  15.127  1.00  0.00     0.205 C 
HETATM    4  O3  UNL     1       7.048  17.038  15.106  1.00  0.00    -0.356 OA
HETATM    5  C4  UNL     1       8.122  17.637  14.455  1.00  0.00     0.291 C 
HETATM    6  C10 UNL     1       9.454  17.224  15.015  1.00  0.00     0.204 C 
ENDROOT
BRANCH   5   7
HETATM    7  O4  UNL     1       8.001  19.014  14.679  1.00  0.00    -0.351 OA
BRANCH   7   8
HETATM    8  C5  UNL     1       6.888  19.540  13.986  1.00  0.00     0.156 C 
HETATM    9  C6  UNL     1       7.415  20.241  12.786  1.00  0.00     0.062 C 
HETATM   10  C7  UNL     1       6.711  21.502  12.428  1.00  0.00     0.235 C 
HETATM   11  N1  UNL     1       5.327  21.380  12.907  1.00  0.00    -0.073 N 
HETATM   12  C8  UNL     1       5.400  21.534  14.343  1.00  0.00     0.266 C 
ATOM     13  H12 UNL     1       4.679  22.028  12.458  1.00  0.00     0.277 HD
ATOM     14  H11 UNL     1       4.863  20.522  12.610  1.00  0.00     0.277 HD
HETATM   15  C9  UNL     1       6.137  20.394  14.945  1.00  0.00     0.172 C 
BRANCH  15  16
HETATM   16  O5  UNL     1       5.189  19.586  15.617  1.00  0.00    -0.391 OA
ATOM     17  H5  UNL     1       4.425  20.117  15.808  1.00  0.00     0.210 HD
ENDBRANCH  15  16
ENDBRANCH   7   8
ENDBRANCH   5   7
BRANCH   6  18
HETATM   18  O6  UNL     1      10.438  17.546  14.080  1.00  0.00    -0.388 OA
ATOM     19  H6  UNL     1      10.592  18.483  14.092  1.00  0.00     0.210 HD
ENDBRANCH   6  18
BRANCH   1  20
HETATM   20  O1  UNL     1      10.612  15.610  16.270  1.00  0.00    -0.390 OA
ATOM     21  H1  UNL     1      11.405  15.547  15.752  1.00  0.00     0.210 HD
ENDBRANCH   1  20
BRANCH   2  22
HETATM   22  O2  UNL     1       8.345  13.974  16.370  1.00  0.00    -0.391 OA
ATOM     23  H2  UNL     1       8.002  13.442  15.660  1.00  0.00     0.210 HD
ENDBRANCH   2  22
TORSDOF 6
ENDMDL
