MODEL 1
REMARK VINA RESULT: -6.612574404      0.000      0.000
REMARK  6 active torsions:
REMARK  status: ('A' for Active; 'I' for Inactive)
REMARK    1  A    between atoms: O1_1  and  C1_3 
REMARK    2  A    between atoms: C2_4  and  O2_5 
REMARK    3  A    between atoms: C4_9  and  O4_10 
REMARK    4  A    between atoms: O4_10  and  C5_11 
REMARK    5  A    between atoms: C9_18  and  O5_19 
REMARK    6  A    between atoms: C10_21  and  O6_22 
ROOT
HETATM    1  C1  UNL     1      10.280  16.572  14.699  1.00  0.00     0.182 C 
HETATM    2  C2  UNL     1       9.898  17.180  16.035  1.00  0.00     0.173 C 
HETATM    3  C3  UNL     1       9.631  15.994  16.970  1.00  0.00     0.205 C 
HETATM    4  O3  UNL     1       8.475  15.388  16.504  1.00  0.00    -0.356 OA
HETATM    5  C4  UNL     1       8.656  14.745  15.283  1.00  0.00     0.291 C 
HETATM    6  C10 UNL     1       9.216  15.648  14.219  1.00  0.00     0.204 C 
ENDROOT
BRANCH   5   7
HETATM    7  O4  UNL     1       7.383  14.355  14.849  1.00  0.00    -0.351 OA
BRANCH   7   8
HETATM    8  C5  UNL     1       6.549  14.052  15.948  1.00  0.00     0.156 C 
HETATM    9  C6  UNL     1       6.143  12.629  15.806  1.00  0.00     0.062 C 
HETATM   10  C7  UNL     1       4.741  12.327  16.199  1.00  0.00     0.235 C 
HETATM   11  N1  UNL     1       4.351  13.313  17.218  1.00  0.00    -0.073 N 
HETATM   12  C8  UNL     1       4.148  14.550  16.499  1.00  0.00     0.266 C 
ATOM     13  H12 UNL     1       3.549  13.028  17.778  1.00  0.00     0.277 HD
ATOM     14  H11 UNL     1       5.014  13.391  17.988  1.00  0.00     0.277 HD
HETATM   15  C9  UNL     1       5.434  15.037  15.937  1.00  0.00     0.172 C 
BRANCH  15  16
HETATM   16  O5  UNL     1       5.826  16.165  16.697  1.00  0.00    -0.391 OA
ATOM     17  H5  UNL     1       6.770  16.143  16.801  1.00  0.00     0.210 HD
ENDBRANCH  15  16
ENDBRANCH   7   8
ENDBRANCH   5   7
BRANCH   6  18
HETATM   18  O6  UNL     1       9.720  14.851  13.192  1.00  0.00    -0.388 OA
ATOM     19  H6  UNL     1       9.012  14.591  12.615  1.00  0.00     0.210 HD
ENDBRANCH   6  18
BRANCH   1  20
HETATM   20  O1  UNL     1      10.388  17.639  13.789  1.00  0.00    -0.390 OA
ATOM     21  H1  UNL     1       9.854  17.409  13.038  1.00  0.00     0.210 HD
ENDBRANCH   1  20
BRANCH   2  22
HETATM   22  O2  UNL     1      10.881  18.010  16.518  1.00  0.00    -0.391 OA
ATOM     23  H2  UNL     1      10.782  18.169  17.449  1.00  0.00     0.210 HD
ENDBRANCH   2  22
TORSDOF 6
ENDMDL
