MODEL 2
REMARK VINA RESULT: -10.669190643      3.487      7.568
REMARK  1 active torsions:
REMARK  status: ('A' for Active; 'I' for Inactive)
REMARK    1  A    between atoms: C5_8  and  S1_9 
ROOT
HETATM    1  O1  UNL     1      22.262   8.324  32.357  1.00  0.00    -0.267 OA
HETATM    2  C1  UNL     1      23.059   7.621  33.011  1.00  0.00     0.259 A 
HETATM    3  N1  UNL     1      24.453   7.764  33.139  1.00  0.00    -0.322 N 
ATOM      4  H1  UNL     1      25.016   8.489  32.694  1.00  0.00     0.169 HD
HETATM    5  C2  UNL     1      24.952   6.740  33.982  1.00  0.00     0.046 A 
HETATM    6  C3  UNL     1      26.260   6.539  34.349  1.00  0.00     0.032 A 
HETATM    7  C4  UNL     1      26.552   5.488  35.178  1.00  0.00     0.028 A 
HETATM    8  C5  UNL     1      25.546   4.669  35.620  1.00  0.00     0.081 A 
HETATM    9  C6  UNL     1      24.218   4.870  35.249  1.00  0.00     0.041 A 
HETATM   10  C7  UNL     1      23.915   5.915  34.422  1.00  0.00     0.010 A 
HETATM   11  C8  UNL     1      22.702   6.439  33.831  1.00  0.00     0.075 A 
HETATM   12  C9  UNL     1      21.468   5.962  33.979  1.00  0.00     0.101 A 
HETATM   13  N2  UNL     1      20.331   6.563  33.343  1.00  0.00    -0.351 N 
ATOM     14  H2  UNL     1      20.336   7.382  32.735  1.00  0.00     0.166 HD
HETATM   15  C10 UNL     1      19.194   5.793  33.725  1.00  0.00     0.047 A 
HETATM   16  C11 UNL     1      17.864   5.992  33.355  1.00  0.00     0.030 A 
HETATM   17  C12 UNL     1      16.935   5.110  33.856  1.00  0.00     0.002 A 
HETATM   18  C13 UNL     1      17.279   4.070  34.686  1.00  0.00     0.001 A 
HETATM   19  C14 UNL     1      18.597   3.901  35.031  1.00  0.00     0.018 A 
HETATM   20  C15 UNL     1      19.563   4.769  34.548  1.00  0.00     0.043 A 
HETATM   21  C16 UNL     1      21.036   4.825  34.751  1.00  0.00     0.212 A 
HETATM   22  O5  UNL     1      21.623   4.009  35.455  1.00  0.00    -0.285 OA
ENDROOT
BRANCH   8  23
HETATM   23  S1  UNL     1      25.959   3.321  36.690  1.00  0.00     0.137 S 
HETATM   24  O2  UNL     1      24.966   2.221  36.455  1.00  0.00    -0.591 OA
HETATM   25  O3  UNL     1      25.816   3.820  38.091  1.00  0.00    -0.591 OA
HETATM   26  O4  UNL     1      27.476   2.720  36.358  1.00  0.00    -0.591 OA
ENDBRANCH   8  23
TORSDOF 1
ENDMDL
