MODEL 1
REMARK VINA RESULT: -11.572651951      0.000      0.000
REMARK  1 active torsions:
REMARK  status: ('A' for Active; 'I' for Inactive)
REMARK    1  A    between atoms: C5_8  and  S1_9 
ROOT
HETATM    1  O1  UNL     1      20.939   1.743  38.704  1.00  0.00    -0.267 OA
HETATM    2  C1  UNL     1      20.415   2.457  37.827  1.00  0.00     0.259 A 
HETATM    3  N1  UNL     1      19.048   2.627  37.535  1.00  0.00    -0.322 N 
ATOM      4  H1  UNL     1      18.279   2.169  38.023  1.00  0.00     0.169 HD
HETATM    5  C2  UNL     1      18.910   3.535  36.455  1.00  0.00     0.046 A 
HETATM    6  C3  UNL     1      17.738   3.957  35.878  1.00  0.00     0.032 A 
HETATM    7  C4  UNL     1      17.805   4.844  34.837  1.00  0.00     0.028 A 
HETATM    8  C5  UNL     1      19.025   5.288  34.397  1.00  0.00     0.081 A 
HETATM    9  C6  UNL     1      20.216   4.861  34.981  1.00  0.00     0.041 A 
HETATM   10  C7  UNL     1      20.161   3.976  36.019  1.00  0.00     0.010 A 
HETATM   11  C8  UNL     1      21.139   3.318  36.861  1.00  0.00     0.075 A 
HETATM   12  C9  UNL     1      22.463   3.445  36.801  1.00  0.00     0.101 A 
HETATM   13  N2  UNL     1      23.342   2.741  37.690  1.00  0.00    -0.351 N 
ATOM     14  H2  UNL     1      23.070   2.096  38.431  1.00  0.00     0.166 HD
HETATM   15  C10 UNL     1      24.670   3.118  37.334  1.00  0.00     0.047 A 
HETATM   16  C11 UNL     1      25.864   2.693  37.916  1.00  0.00     0.030 A 
HETATM   17  C12 UNL     1      27.032   3.202  37.397  1.00  0.00     0.002 A 
HETATM   18  C13 UNL     1      27.046   4.091  36.349  1.00  0.00     0.001 A 
HETATM   19  C14 UNL     1      25.853   4.491  35.798  1.00  0.00     0.018 A 
HETATM   20  C15 UNL     1      24.655   4.001  36.294  1.00  0.00     0.043 A 
HETATM   21  C16 UNL     1      23.243   4.254  35.900  1.00  0.00     0.212 A 
HETATM   22  O5  UNL     1      22.954   5.016  34.983  1.00  0.00    -0.285 OA
ENDROOT
BRANCH   8  23
HETATM   23  S1  UNL     1      19.074   6.435  33.049  1.00  0.00     0.137 S 
HETATM   24  O2  UNL     1      17.690   6.543  32.482  1.00  0.00    -0.591 OA
HETATM   25  O3  UNL     1      19.984   5.852  32.017  1.00  0.00    -0.591 OA
HETATM   26  O4  UNL     1      19.540   7.951  33.554  1.00  0.00    -0.591 OA
ENDBRANCH   8  23
TORSDOF 1
ENDMDL
