MODEL 8
REMARK VINA RESULT: -9.751980714      3.686      5.856
REMARK  1 active torsions:
REMARK  status: ('A' for Active; 'I' for Inactive)
REMARK    1  A    between atoms: C5_8  and  S1_9 
ROOT
HETATM    1  O1  UNL     1      17.698   6.697  32.599  1.00  0.00    -0.267 OA
HETATM    2  C1  UNL     1      18.078   5.948  33.521  1.00  0.00     0.259 A 
HETATM    3  N1  UNL     1      17.304   5.115  34.351  1.00  0.00    -0.322 N 
ATOM      4  H1  UNL     1      16.290   5.013  34.304  1.00  0.00     0.169 HD
HETATM    5  C2  UNL     1      18.155   4.443  35.263  1.00  0.00     0.046 A 
HETATM    6  C3  UNL     1      17.780   3.546  36.233  1.00  0.00     0.032 A 
HETATM    7  C4  UNL     1      18.752   2.995  37.025  1.00  0.00     0.028 A 
HETATM    8  C5  UNL     1      20.064   3.345  36.836  1.00  0.00     0.081 A 
HETATM    9  C6  UNL     1      20.448   4.255  35.853  1.00  0.00     0.041 A 
HETATM   10  C7  UNL     1      19.486   4.812  35.058  1.00  0.00     0.010 A 
HETATM   11  C8  UNL     1      19.480   5.761  33.965  1.00  0.00     0.075 A 
HETATM   12  C9  UNL     1      20.534   6.376  33.431  1.00  0.00     0.101 A 
HETATM   13  N2  UNL     1      20.411   7.304  32.345  1.00  0.00    -0.351 N 
ATOM     14  H2  UNL     1      19.549   7.587  31.879  1.00  0.00     0.166 HD
HETATM   15  C10 UNL     1      21.730   7.755  32.042  1.00  0.00     0.047 A 
HETATM   16  C11 UNL     1      22.116   8.665  31.059  1.00  0.00     0.030 A 
HETATM   17  C12 UNL     1      23.460   8.945  30.956  1.00  0.00     0.002 A 
HETATM   18  C13 UNL     1      24.398   8.365  31.776  1.00  0.00     0.001 A 
HETATM   19  C14 UNL     1      23.984   7.472  32.734  1.00  0.00     0.018 A 
HETATM   20  C15 UNL     1      22.640   7.164  32.869  1.00  0.00     0.043 A 
HETATM   21  C16 UNL     1      21.921   6.253  33.799  1.00  0.00     0.212 A 
HETATM   22  O5  UNL     1      22.515   5.597  34.650  1.00  0.00    -0.285 OA
ENDROOT
BRANCH   8  23
HETATM   23  S1  UNL     1      21.295   2.614  37.877  1.00  0.00     0.137 S 
HETATM   24  O2  UNL     1      21.238   1.127  37.688  1.00  0.00    -0.591 OA
HETATM   25  O3  UNL     1      20.924   2.945  39.286  1.00  0.00    -0.591 OA
HETATM   26  O4  UNL     1      22.825   3.123  37.464  1.00  0.00    -0.591 OA
ENDBRANCH   8  23
TORSDOF 1
ENDMDL
