MODEL 4
REMARK VINA RESULT: -10.336837163      1.308      1.780
REMARK  1 active torsions:
REMARK  status: ('A' for Active; 'I' for Inactive)
REMARK    1  A    between atoms: C5_8  and  S1_9 
ROOT
HETATM    1  O1  UNL     1      20.586   2.577  37.824  1.00  0.00    -0.267 OA
HETATM    2  C1  UNL     1      20.374   3.445  36.953  1.00  0.00     0.259 A 
HETATM    3  N1  UNL     1      19.141   3.938  36.487  1.00  0.00    -0.322 N 
ATOM      4  H1  UNL     1      18.223   3.637  36.815  1.00  0.00     0.169 HD
HETATM    5  C2  UNL     1      19.376   4.919  35.491  1.00  0.00     0.046 A 
HETATM    6  C3  UNL     1      18.430   5.631  34.796  1.00  0.00     0.032 A 
HETATM    7  C4  UNL     1      18.851   6.543  33.865  1.00  0.00     0.028 A 
HETATM    8  C5  UNL     1      20.193   6.725  33.648  1.00  0.00     0.081 A 
HETATM    9  C6  UNL     1      21.155   6.003  34.352  1.00  0.00     0.041 A 
HETATM   10  C7  UNL     1      20.746   5.091  35.283  1.00  0.00     0.010 A 
HETATM   11  C8  UNL     1      21.411   4.178  36.188  1.00  0.00     0.075 A 
HETATM   12  C9  UNL     1      22.724   4.004  36.329  1.00  0.00     0.101 A 
HETATM   13  N2  UNL     1      23.277   3.065  37.262  1.00  0.00    -0.351 N 
ATOM     14  H2  UNL     1      22.758   2.454  37.892  1.00  0.00     0.166 HD
HETATM   15  C10 UNL     1      24.695   3.153  37.138  1.00  0.00     0.047 A 
HETATM   16  C11 UNL     1      25.660   2.432  37.840  1.00  0.00     0.030 A 
HETATM   17  C12 UNL     1      26.978   2.694  37.544  1.00  0.00     0.002 A 
HETATM   18  C13 UNL     1      27.351   3.620  36.599  1.00  0.00     0.001 A 
HETATM   19  C14 UNL     1      26.376   4.314  35.925  1.00  0.00     0.018 A 
HETATM   20  C15 UNL     1      25.037   4.079  36.195  1.00  0.00     0.043 A 
HETATM   21  C16 UNL     1      23.794   4.669  35.631  1.00  0.00     0.212 A 
HETATM   22  O5  UNL     1      23.826   5.532  34.759  1.00  0.00    -0.285 OA
ENDROOT
BRANCH   8  23
HETATM   23  S1  UNL     1      20.703   7.911  32.438  1.00  0.00     0.137 S 
HETATM   24  O2  UNL     1      21.492   8.977  33.138  1.00  0.00    -0.591 OA
HETATM   25  O3  UNL     1      19.459   8.514  31.871  1.00  0.00    -0.591 OA
HETATM   26  O4  UNL     1      21.684   7.223  31.283  1.00  0.00    -0.591 OA
ENDBRANCH   8  23
TORSDOF 1
ENDMDL
