MODEL 7
REMARK VINA RESULT: -10.195438331      1.127      1.494
REMARK  1 active torsions:
REMARK  status: ('A' for Active; 'I' for Inactive)
REMARK    1  A    between atoms: C5_8  and  S1_9 
ROOT
HETATM    1  O1  UNL     1      20.841   2.375  38.143  1.00  0.00    -0.267 OA
HETATM    2  C1  UNL     1      20.577   3.200  37.245  1.00  0.00     0.259 A 
HETATM    3  N1  UNL     1      19.316   3.629  36.791  1.00  0.00    -0.322 N 
ATOM      4  H1  UNL     1      18.418   3.308  37.152  1.00  0.00     0.169 HD
HETATM    5  C2  UNL     1      19.491   4.578  35.753  1.00  0.00     0.046 A 
HETATM    6  C3  UNL     1      18.503   5.227  35.055  1.00  0.00     0.032 A 
HETATM    7  C4  UNL     1      18.869   6.117  34.080  1.00  0.00     0.028 A 
HETATM    8  C5  UNL     1      20.197   6.339  33.823  1.00  0.00     0.081 A 
HETATM    9  C6  UNL     1      21.202   5.681  34.530  1.00  0.00     0.041 A 
HETATM   10  C7  UNL     1      20.849   4.791  35.505  1.00  0.00     0.010 A 
HETATM   11  C8  UNL     1      21.568   3.939  36.427  1.00  0.00     0.075 A 
HETATM   12  C9  UNL     1      22.889   3.819  36.543  1.00  0.00     0.101 A 
HETATM   13  N2  UNL     1      23.499   2.938  37.498  1.00  0.00    -0.351 N 
ATOM     14  H2  UNL     1      23.017   2.333  38.163  1.00  0.00     0.166 HD
HETATM   15  C10 UNL     1      24.909   3.072  37.335  1.00  0.00     0.047 A 
HETATM   16  C11 UNL     1      25.917   2.415  38.041  1.00  0.00     0.030 A 
HETATM   17  C12 UNL     1      27.217   2.713  37.702  1.00  0.00     0.002 A 
HETATM   18  C13 UNL     1      27.532   3.615  36.715  1.00  0.00     0.001 A 
HETATM   19  C14 UNL     1      26.517   4.245  36.038  1.00  0.00     0.018 A 
HETATM   20  C15 UNL     1      25.194   3.972  36.350  1.00  0.00     0.043 A 
HETATM   21  C16 UNL     1      23.917   4.495  35.794  1.00  0.00     0.212 A 
HETATM   22  O5  UNL     1      23.897   5.324  34.890  1.00  0.00    -0.285 OA
ENDROOT
BRANCH   8  23
HETATM   23  S1  UNL     1      20.634   7.495  32.557  1.00  0.00     0.137 S 
HETATM   24  O2  UNL     1      21.296   6.736  31.445  1.00  0.00    -0.591 OA
HETATM   25  O3  UNL     1      21.619   8.445  33.158  1.00  0.00    -0.591 OA
HETATM   26  O4  UNL     1      19.290   8.252  31.931  1.00  0.00    -0.591 OA
ENDBRANCH   8  23
TORSDOF 1
ENDMDL
