MODEL 11
REMARK VINA RESULT: -9.535430259      2.406      6.349
REMARK  1 active torsions:
REMARK  status: ('A' for Active; 'I' for Inactive)
REMARK    1  A    between atoms: C5_8  and  S1_9 
ROOT
HETATM    1  O1  UNL     1      21.173   2.286  37.896  1.00  0.00    -0.267 OA
HETATM    2  C1  UNL     1      22.176   2.875  37.445  1.00  0.00     0.259 A 
HETATM    3  N1  UNL     1      23.522   2.743  37.839  1.00  0.00    -0.322 N 
ATOM      4  H1  UNL     1      23.864   2.125  38.573  1.00  0.00     0.169 HD
HETATM    5  C2  UNL     1      24.325   3.606  37.052  1.00  0.00     0.046 A 
HETATM    6  C3  UNL     1      25.686   3.766  37.133  1.00  0.00     0.032 A 
HETATM    7  C4  UNL     1      26.292   4.654  36.283  1.00  0.00     0.028 A 
HETATM    8  C5  UNL     1      25.536   5.356  35.379  1.00  0.00     0.081 A 
HETATM    9  C6  UNL     1      24.155   5.195  35.296  1.00  0.00     0.041 A 
HETATM   10  C7  UNL     1      23.540   4.313  36.139  1.00  0.00     0.010 A 
HETATM   11  C8  UNL     1      22.176   3.879  36.355  1.00  0.00     0.075 A 
HETATM   12  C9  UNL     1      21.091   4.293  35.704  1.00  0.00     0.101 A 
HETATM   13  N2  UNL     1      19.780   3.793  36.002  1.00  0.00    -0.351 N 
ATOM     14  H2  UNL     1      19.539   3.099  36.710  1.00  0.00     0.166 HD
HETATM   15  C10 UNL     1      18.879   4.454  35.117  1.00  0.00     0.047 A 
HETATM   16  C11 UNL     1      17.496   4.296  35.031  1.00  0.00     0.030 A 
HETATM   17  C12 UNL     1      16.835   5.050  34.088  1.00  0.00     0.002 A 
HETATM   18  C13 UNL     1      17.489   5.928  33.258  1.00  0.00     0.001 A 
HETATM   19  C14 UNL     1      18.852   6.060  33.367  1.00  0.00     0.018 A 
HETATM   20  C15 UNL     1      19.553   5.318  34.304  1.00  0.00     0.043 A 
HETATM   21  C16 UNL     1      21.001   5.259  34.639  1.00  0.00     0.212 A 
HETATM   22  O5  UNL     1      21.830   5.945  34.049  1.00  0.00    -0.285 OA
ENDROOT
BRANCH   8  23
HETATM   23  S1  UNL     1      26.351   6.494  34.296  1.00  0.00     0.137 S 
HETATM   24  O2  UNL     1      26.628   5.785  33.003  1.00  0.00    -0.591 OA
HETATM   25  O3  UNL     1      27.647   6.858  34.945  1.00  0.00    -0.591 OA
HETATM   26  O4  UNL     1      25.391   7.812  33.961  1.00  0.00    -0.591 OA
ENDBRANCH   8  23
TORSDOF 1
ENDMDL
