MODEL 12
REMARK VINA RESULT: -5.108353093      1.877      2.337
REMARK  4 active torsions:
REMARK  status: ('A' for Active; 'I' for Inactive)
REMARK    1  A    between atoms: C1_2  and  C2_4 
REMARK    2  A    between atoms: C2_4  and  O3_5 
REMARK    3  A    between atoms: C5_10  and  O4_11 
REMARK    4  A    between atoms: C6_13  and  O5_14 
ROOT
HETATM    1  C2  UNL     1      28.398  52.505  59.305  1.00  0.00     0.168 C 
HETATM    2  C3  UNL     1      29.179  51.332  59.720  1.00  0.00     0.062 C 
HETATM    3  C4  UNL     1      29.264  50.218  59.027  1.00  0.00     0.124 C 
HETATM    4  F1  UNL     1      30.027  49.149  59.490  1.00  0.00    -0.208 F 
HETATM    5  C5  UNL     1      28.564  50.034  57.729  1.00  0.00     0.208 C 
HETATM    6  C6  UNL     1      28.116  51.315  57.104  1.00  0.00     0.157 C 
HETATM    7  C7  UNL     1      27.519  52.218  58.134  1.00  0.00     0.088 C 
ENDROOT
BRANCH   1   8
HETATM    8  C1  UNL     1      29.240  53.669  58.953  1.00  0.00     0.213 C 
HETATM    9  O1  UNL     1      28.677  54.652  58.420  1.00  0.00    -0.645 OA
HETATM   10  O2  UNL     1      30.590  53.753  59.166  1.00  0.00    -0.645 OA
ENDBRANCH   1   8
BRANCH   1  11
HETATM   11  O3  UNL     1      27.540  52.881  60.370  1.00  0.00    -0.375 OA
ATOM     12  H3  UNL     1      27.293  53.790  60.249  1.00  0.00     0.211 HD
ENDBRANCH   1  11
BRANCH   6  13
HETATM   13  O5  UNL     1      29.146  51.876  56.373  1.00  0.00    -0.392 OA
ATOM     14  H5  UNL     1      28.902  52.746  56.077  1.00  0.00     0.210 HD
ENDBRANCH   6  13
BRANCH   5  15
HETATM   15  O4  UNL     1      27.446  49.200  57.931  1.00  0.00    -0.386 OA
ATOM     16  H4  UNL     1      26.695  49.586  57.495  1.00  0.00     0.210 HD
ENDBRANCH   5  15
TORSDOF 4
ENDMDL
