MODEL 2
REMARK VINA RESULT: -7.222303792      0.955      1.258
REMARK  4 active torsions:
REMARK  status: ('A' for Active; 'I' for Inactive)
REMARK    1  A    between atoms: C1_2  and  C2_4 
REMARK    2  A    between atoms: C2_4  and  O3_5 
REMARK    3  A    between atoms: C5_10  and  O4_11 
REMARK    4  A    between atoms: C6_13  and  O5_14 
ROOT
HETATM    1  C2  UNL     1      28.294  52.665  58.596  1.00  0.00     0.168 C 
HETATM    2  C3  UNL     1      27.894  52.155  59.915  1.00  0.00     0.062 C 
HETATM    3  C4  UNL     1      28.113  50.928  60.330  1.00  0.00     0.124 C 
HETATM    4  F1  UNL     1      27.703  50.521  61.598  1.00  0.00    -0.208 F 
HETATM    5  C5  UNL     1      28.802  49.915  59.489  1.00  0.00     0.208 C 
HETATM    6  C6  UNL     1      29.561  50.504  58.344  1.00  0.00     0.157 C 
HETATM    7  C7  UNL     1      28.761  51.579  57.685  1.00  0.00     0.088 C 
ENDROOT
BRANCH   1   8
HETATM    8  C1  UNL     1      29.367  53.679  58.666  1.00  0.00     0.213 C 
HETATM    9  O1  UNL     1      29.219  54.625  59.473  1.00  0.00    -0.645 OA
HETATM   10  O2  UNL     1      30.511  53.664  57.916  1.00  0.00    -0.645 OA
ENDBRANCH   1   8
BRANCH   1  11
HETATM   11  O3  UNL     1      27.162  53.253  57.974  1.00  0.00    -0.375 OA
ATOM     12  H3  UNL     1      26.727  53.810  58.609  1.00  0.00     0.211 HD
ENDBRANCH   1  11
BRANCH   6  13
HETATM   13  O5  UNL     1      30.821  50.895  58.758  1.00  0.00    -0.392 OA
ATOM     14  H5  UNL     1      31.455  50.742  58.067  1.00  0.00     0.210 HD
ENDBRANCH   6  13
BRANCH   5  15
HETATM   15  O4  UNL     1      27.843  49.010  58.992  1.00  0.00    -0.386 OA
ATOM     16  H4  UNL     1      28.287  48.218  58.710  1.00  0.00     0.210 HD
ENDBRANCH   5  15
TORSDOF 4
ENDMDL
