MODEL 1
REMARK VINA RESULT: -7.441682319      0.000      0.000
REMARK  4 active torsions:
REMARK  status: ('A' for Active; 'I' for Inactive)
REMARK    1  A    between atoms: C1_2  and  C2_4 
REMARK    2  A    between atoms: C2_4  and  O3_5 
REMARK    3  A    between atoms: C5_10  and  O4_11 
REMARK    4  A    between atoms: C6_13  and  O5_14 
ROOT
HETATM    1  C2  UNL     1      28.420  52.409  58.589  1.00  0.00     0.168 C 
HETATM    2  C3  UNL     1      28.240  52.424  60.047  1.00  0.00     0.062 C 
HETATM    3  C4  UNL     1      28.195  51.346  60.797  1.00  0.00     0.124 C 
HETATM    4  F1  UNL     1      28.021  51.444  62.176  1.00  0.00    -0.208 F 
HETATM    5  C5  UNL     1      28.326  49.977  60.232  1.00  0.00     0.208 C 
HETATM    6  C6  UNL     1      28.906  49.953  58.854  1.00  0.00     0.157 C 
HETATM    7  C7  UNL     1      28.309  51.036  58.016  1.00  0.00     0.088 C 
ENDROOT
BRANCH   1   8
HETATM    8  C1  UNL     1      29.721  52.965  58.159  1.00  0.00     0.213 C 
HETATM    9  O1  UNL     1      30.170  52.599  57.048  1.00  0.00    -0.645 OA
HETATM   10  O2  UNL     1      30.473  53.851  58.882  1.00  0.00    -0.645 OA
ENDBRANCH   1   8
BRANCH   1  11
HETATM   11  O3  UNL     1      27.387  53.178  57.994  1.00  0.00    -0.375 OA
ATOM     12  H3  UNL     1      27.667  53.432  57.123  1.00  0.00     0.211 HD
ENDBRANCH   1  11
BRANCH   6  13
HETATM   13  O5  UNL     1      30.287  49.969  58.917  1.00  0.00    -0.392 OA
ATOM     14  H5  UNL     1      30.655  49.570  58.137  1.00  0.00     0.210 HD
ENDBRANCH   6  13
BRANCH   5  15
HETATM   15  O4  UNL     1      27.054  49.371  60.210  1.00  0.00    -0.386 OA
ATOM     16  H4  UNL     1      27.100  48.584  59.680  1.00  0.00     0.210 HD
ENDBRANCH   5  15
TORSDOF 4
ENDMDL
