MODEL 15
REMARK VINA RESULT: -4.432138265      1.759      2.387
REMARK  4 active torsions:
REMARK  status: ('A' for Active; 'I' for Inactive)
REMARK    1  A    between atoms: C1_2  and  C2_4 
REMARK    2  A    between atoms: C2_4  and  O3_5 
REMARK    3  A    between atoms: C5_10  and  O4_11 
REMARK    4  A    between atoms: C6_13  and  O5_14 
ROOT
HETATM    1  C2  UNL     1      28.051  52.831  59.798  1.00  0.00     0.168 C 
HETATM    2  C3  UNL     1      28.450  51.518  60.325  1.00  0.00     0.062 C 
HETATM    3  C4  UNL     1      28.835  50.509  59.577  1.00  0.00     0.124 C 
HETATM    4  F1  UNL     1      29.200  49.294  60.153  1.00  0.00    -0.208 F 
HETATM    5  C5  UNL     1      28.905  50.598  58.095  1.00  0.00     0.208 C 
HETATM    6  C6  UNL     1      28.902  52.001  57.579  1.00  0.00     0.157 C 
HETATM    7  C7  UNL     1      27.897  52.825  58.314  1.00  0.00     0.088 C 
ENDROOT
BRANCH   1   8
HETATM    8  C1  UNL     1      29.001  53.909  60.143  1.00  0.00     0.213 C 
HETATM    9  O1  UNL     1      29.507  54.560  59.200  1.00  0.00    -0.645 OA
HETATM   10  O2  UNL     1      29.372  54.251  61.415  1.00  0.00    -0.645 OA
ENDBRANCH   1   8
BRANCH   1  11
HETATM   11  O3  UNL     1      26.780  53.168  60.333  1.00  0.00    -0.375 OA
ATOM     12  H3  UNL     1      26.447  53.921  59.859  1.00  0.00     0.211 HD
ENDBRANCH   1  11
BRANCH   6  13
HETATM   13  O5  UNL     1      30.185  52.515  57.587  1.00  0.00    -0.392 OA
ATOM     14  H5  UNL     1      30.173  53.432  57.338  1.00  0.00     0.210 HD
ENDBRANCH   6  13
BRANCH   5  15
HETATM   15  O4  UNL     1      27.811  49.900  57.546  1.00  0.00    -0.386 OA
ATOM     16  H4  UNL     1      27.463  49.309  58.204  1.00  0.00     0.210 HD
ENDBRANCH   5  15
TORSDOF 4
ENDMDL
