MODEL 5
REMARK VINA RESULT: -5.019263529      1.056      1.914
REMARK  1 active torsions:
REMARK  status: ('A' for Active; 'I' for Inactive)
REMARK    1  A    between atoms: C1_2  and  C2_6 
ROOT
HETATM    1  C2  UNL     1      -2.493   9.258  19.602  1.00  0.00     0.004 A 
HETATM    2  C3  UNL     1      -1.402   8.440  19.535  1.00  0.00     0.015 A 
HETATM    3  C4  UNL     1      -1.490   7.045  19.639  1.00  0.00     0.001 A 
HETATM    4  C5  UNL     1      -2.725   6.500  19.815  1.00  0.00     0.000 A 
HETATM    5  C6  UNL     1      -3.871   7.262  19.893  1.00  0.00     0.001 A 
HETATM    6  C7  UNL     1      -3.735   8.627  19.786  1.00  0.00     0.015 A 
ENDROOT
BRANCH   1   7
HETATM    7  C1  UNL     1      -2.402  10.690  19.494  1.00  0.00     0.120 C 
HETATM    8  N1  UNL     1      -1.149  11.312  19.758  1.00  0.00    -0.082 NA
HETATM    9  N2  UNL     1      -3.392  11.402  19.175  1.00  0.00    -0.387 N 
ATOM     10  H22 UNL     1      -3.327  12.417  19.099  1.00  0.00     0.157 HD
ATOM     11  H21 UNL     1      -4.290  10.956  18.987  1.00  0.00     0.157 HD
ENDBRANCH   1   7
TORSDOF 1
ENDMDL
