MODEL 10
REMARK VINA RESULT: -4.543881839      1.146      1.716
REMARK  1 active torsions:
REMARK  status: ('A' for Active; 'I' for Inactive)
REMARK    1  A    between atoms: C1_2  and  C2_6 
ROOT
HETATM    1  C2  UNL     1      -2.265   9.082  19.671  1.00  0.00     0.004 A 
HETATM    2  C3  UNL     1      -3.526   8.566  19.758  1.00  0.00     0.015 A 
HETATM    3  C4  UNL     1      -3.783   7.190  19.826  1.00  0.00     0.001 A 
HETATM    4  C5  UNL     1      -2.716   6.345  19.803  1.00  0.00     0.000 A 
HETATM    5  C6  UNL     1      -1.414   6.792  19.717  1.00  0.00     0.001 A 
HETATM    6  C7  UNL     1      -1.212   8.151  19.652  1.00  0.00     0.015 A 
ENDROOT
BRANCH   1   7
HETATM    7  C1  UNL     1      -2.002  10.495  19.602  1.00  0.00     0.120 C 
HETATM    8  N1  UNL     1      -3.096  11.379  19.386  1.00  0.00    -0.082 NA
HETATM    9  N2  UNL     1      -0.841  10.966  19.727  1.00  0.00    -0.387 N 
ATOM     10  H22 UNL     1      -0.655  11.969  19.678  1.00  0.00     0.157 HD
ATOM     11  H21 UNL     1      -0.056  10.333  19.881  1.00  0.00     0.157 HD
ENDBRANCH   1   7
TORSDOF 1
ENDMDL
