MODEL 2
REMARK VINA RESULT: -5.471799659      0.029      1.586
REMARK  1 active torsions:
REMARK  status: ('A' for Active; 'I' for Inactive)
REMARK    1  A    between atoms: C1_2  and  C2_6 
ROOT
HETATM    1  C2  UNL     1      -2.984   9.009  19.866  1.00  0.00     0.004 A 
HETATM    2  C3  UNL     1      -1.696   8.759  19.488  1.00  0.00     0.015 A 
HETATM    3  C4  UNL     1      -1.040   7.554  19.771  1.00  0.00     0.001 A 
HETATM    4  C5  UNL     1      -1.731   6.602  20.455  1.00  0.00     0.000 A 
HETATM    5  C6  UNL     1      -3.034   6.781  20.870  1.00  0.00     0.001 A 
HETATM    6  C7  UNL     1      -3.637   7.981  20.568  1.00  0.00     0.015 A 
ENDROOT
BRANCH   1   7
HETATM    7  C1  UNL     1      -3.658  10.246  19.574  1.00  0.00     0.120 C 
HETATM    8  N1  UNL     1      -2.875  11.424  19.418  1.00  0.00    -0.082 NA
HETATM    9  N2  UNL     1      -4.910  10.314  19.453  1.00  0.00    -0.387 N 
ATOM     10  H22 UNL     1      -5.387  11.192  19.246  1.00  0.00     0.157 HD
ATOM     11  H21 UNL     1      -5.471   9.470  19.565  1.00  0.00     0.157 HD
ENDBRANCH   1   7
TORSDOF 1
ENDMDL
