MODEL 14
REMARK VINA RESULT: -4.292587948      3.304      4.539
REMARK  1 active torsions:
REMARK  status: ('A' for Active; 'I' for Inactive)
REMARK    1  A    between atoms: C1_2  and  C2_6 
ROOT
HETATM    1  C2  UNL     1      -1.855   5.827  21.764  1.00  0.00     0.004 A 
HETATM    2  C3  UNL     1      -0.906   4.935  22.173  1.00  0.00     0.015 A 
HETATM    3  C4  UNL     1      -0.944   4.305  23.425  1.00  0.00     0.001 A 
HETATM    4  C5  UNL     1      -1.978   4.609  24.255  1.00  0.00     0.000 A 
HETATM    5  C6  UNL     1      -2.973   5.500  23.911  1.00  0.00     0.001 A 
HETATM    6  C7  UNL     1      -2.893   6.093  22.672  1.00  0.00     0.015 A 
ENDROOT
BRANCH   1   7
HETATM    7  C1  UNL     1      -1.816   6.473  20.478  1.00  0.00     0.120 C 
HETATM    8  N1  UNL     1      -2.955   6.369  19.632  1.00  0.00    -0.082 NA
HETATM    9  N2  UNL     1      -0.810   7.122  20.086  1.00  0.00    -0.387 N 
ATOM     10  H22 UNL     1      -0.783   7.580  19.174  1.00  0.00     0.157 HD
ATOM     11  H21 UNL     1       0.007   7.197  20.692  1.00  0.00     0.157 HD
ENDBRANCH   1   7
TORSDOF 1
ENDMDL
