MODEL 1
REMARK VINA RESULT: -5.494717201      0.000      0.000
REMARK  1 active torsions:
REMARK  status: ('A' for Active; 'I' for Inactive)
REMARK    1  A    between atoms: C1_2  and  C2_6 
ROOT
HETATM    1  C2  UNL     1      -3.020   8.994  19.883  1.00  0.00     0.004 A 
HETATM    2  C3  UNL     1      -3.634   7.980  20.561  1.00  0.00     0.015 A 
HETATM    3  C4  UNL     1      -2.996   6.767  20.856  1.00  0.00     0.001 A 
HETATM    4  C5  UNL     1      -1.709   6.612  20.442  1.00  0.00     0.000 A 
HETATM    5  C6  UNL     1      -1.024   7.591  19.753  1.00  0.00     0.001 A 
HETATM    6  C7  UNL     1      -1.692   8.764  19.486  1.00  0.00     0.015 A 
ENDROOT
BRANCH   1   7
HETATM    7  C1  UNL     1      -3.676  10.239  19.581  1.00  0.00     0.120 C 
HETATM    8  N1  UNL     1      -2.877  11.405  19.419  1.00  0.00    -0.082 NA
HETATM    9  N2  UNL     1      -4.927  10.324  19.455  1.00  0.00    -0.387 N 
ATOM     10  H22 UNL     1      -5.391  11.207  19.241  1.00  0.00     0.157 HD
ATOM     11  H21 UNL     1      -5.500   9.488  19.572  1.00  0.00     0.157 HD
ENDBRANCH   1   7
TORSDOF 1
ENDMDL
