MODEL 18
REMARK VINA RESULT: -4.075056682      4.089      5.263
REMARK  1 active torsions:
REMARK  status: ('A' for Active; 'I' for Inactive)
REMARK    1  A    between atoms: C1_2  and  C2_6 
ROOT
HETATM    1  C2  UNL     1      -1.686   5.387  22.341  1.00  0.00     0.004 A 
HETATM    2  C3  UNL     1      -0.846   4.688  23.161  1.00  0.00     0.015 A 
HETATM    3  C4  UNL     1      -1.120   4.463  24.517  1.00  0.00     0.001 A 
HETATM    4  C5  UNL     1      -2.278   4.970  25.021  1.00  0.00     0.000 A 
HETATM    5  C6  UNL     1      -3.174   5.686  24.255  1.00  0.00     0.001 A 
HETATM    6  C7  UNL     1      -2.862   5.882  22.930  1.00  0.00     0.015 A 
ENDROOT
BRANCH   1   7
HETATM    7  C1  UNL     1      -1.404   5.617  20.949  1.00  0.00     0.120 C 
HETATM    8  N1  UNL     1      -1.530   4.528  20.041  1.00  0.00    -0.082 NA
HETATM    9  N2  UNL     1      -1.053   6.747  20.515  1.00  0.00    -0.387 N 
ATOM     10  H22 UNL     1      -0.853   6.910  19.527  1.00  0.00     0.157 HD
ATOM     11  H21 UNL     1      -0.962   7.528  21.165  1.00  0.00     0.157 HD
ENDBRANCH   1   7
TORSDOF 1
ENDMDL
