MODEL 12
REMARK VINA RESULT: -4.405068172      1.336      1.723
REMARK  1 active torsions:
REMARK  status: ('A' for Active; 'I' for Inactive)
REMARK    1  A    between atoms: C1_2  and  C2_6 
ROOT
HETATM    1  C2  UNL     1      -2.787   7.737  20.332  1.00  0.00     0.004 A 
HETATM    2  C3  UNL     1      -3.673   7.341  21.293  1.00  0.00     0.015 A 
HETATM    3  C4  UNL     1      -3.420   6.277  22.169  1.00  0.00     0.001 A 
HETATM    4  C5  UNL     1      -2.234   5.622  22.043  1.00  0.00     0.000 A 
HETATM    5  C6  UNL     1      -1.291   5.964  21.097  1.00  0.00     0.001 A 
HETATM    6  C7  UNL     1      -1.584   7.015  20.259  1.00  0.00     0.015 A 
ENDROOT
BRANCH   1   7
HETATM    7  C1  UNL     1      -3.048   8.830  19.433  1.00  0.00     0.120 C 
HETATM    8  N1  UNL     1      -1.988   9.293  18.602  1.00  0.00    -0.082 NA
HETATM    9  N2  UNL     1      -4.178   9.383  19.360  1.00  0.00    -0.387 N 
ATOM     10  H22 UNL     1      -4.362  10.158  18.723  1.00  0.00     0.157 HD
ATOM     11  H21 UNL     1      -4.937   9.051  19.956  1.00  0.00     0.157 HD
ENDBRANCH   1   7
TORSDOF 1
ENDMDL
