MODEL 3
REMARK VINA RESULT: -10.396612465      0.619      1.313
REMARK  4 active torsions:
REMARK  status: ('A' for Active; 'I' for Inactive)
REMARK    1  A    between atoms: C1_2  and  C2_3 
REMARK       I    between atoms: C1_2  and  N3_16 
REMARK    2  A    between atoms: N1_6  and  C5_7 
REMARK    3  A    between atoms: N4_19  and  S1_20 
REMARK    4  A    between atoms: S1_20  and  C14_23 
ROOT
HETATM    1  O1  UNL     1      51.459  71.591 -32.639  1.00  0.00    -0.273 OA
HETATM    2  C1  UNL     1      52.102  72.615 -32.235  1.00  0.00     0.224 C 
HETATM    3  N3  UNL     1      51.340  73.764 -31.901  1.00  0.00    -0.345 N 
HETATM    4  C12 UNL     1      49.898  73.777 -32.035  1.00  0.00     0.147 C 
HETATM    5  C13 UNL     1      49.309  74.004 -30.676  1.00  0.00     0.160 C 
HETATM    6  N4  UNL     1      49.965  74.987 -29.905  1.00  0.00    -0.283 N 
HETATM    7  C24 UNL     1      51.076  75.642 -30.416  1.00  0.00     0.096 C 
HETATM    8  C25 UNL     1      51.940  74.979 -31.404  1.00  0.00     0.171 C 
ENDROOT
BRANCH   2   9
HETATM    9  C2  UNL     1      53.564  72.518 -32.154  1.00  0.00     0.081 C 
HETATM   10  C3  UNL     1      54.189  71.665 -33.232  1.00  0.00     0.034 C 
HETATM   11  C4  UNL     1      53.496  70.331 -33.187  1.00  0.00     0.123 C 
HETATM   12  N1  UNL     1      53.416  69.781 -31.861  1.00  0.00    -0.381 N 
HETATM   13  C10 UNL     1      53.745  70.501 -30.654  1.00  0.00     0.123 C 
HETATM   14  C11 UNL     1      54.013  71.952 -30.833  1.00  0.00     0.034 C 
BRANCH  12  15
HETATM   15  C5  UNL     1      52.986  68.436 -31.713  1.00  0.00     0.032 A 
HETATM   16  C6  UNL     1      52.057  67.891 -32.575  1.00  0.00     0.046 A 
HETATM   17  C7  UNL     1      51.628  66.578 -32.441  1.00  0.00     0.089 A 
HETATM   18  N2  UNL     1      52.103  65.797 -31.468  1.00  0.00    -0.375 N 
HETATM   19  C8  UNL     1      53.008  66.306 -30.616  1.00  0.00     0.089 A 
ATOM     20  H2  UNL     1      51.784  64.833 -31.374  1.00  0.00     0.164 HD
HETATM   21  C9  UNL     1      53.460  67.607 -30.716  1.00  0.00     0.046 A 
ENDBRANCH  12  15
ENDBRANCH   2   9
BRANCH   6  22
HETATM   22  S1  UNL     1      49.679  75.017 -28.252  1.00  0.00     0.264 S 
HETATM   23  O2  UNL     1      50.654  74.146 -27.472  1.00  0.00    -0.200 OA
HETATM   24  O3  UNL     1      49.862  76.417 -27.741  1.00  0.00    -0.200 OA
BRANCH  22  25
HETATM   25  C14 UNL     1      48.023  74.532 -27.860  1.00  0.00     0.080 A 
HETATM   26  C15 UNL     1      47.618  73.235 -28.072  1.00  0.00     0.026 A 
HETATM   27  C16 UNL     1      46.334  72.852 -27.768  1.00  0.00     0.014 A 
HETATM   28  C17 UNL     1      45.430  73.771 -27.244  1.00  0.00    -0.024 A 
HETATM   29  C18 UNL     1      44.131  73.394 -26.934  1.00  0.00     0.036 A 
HETATM   30  C22 UNL     1      45.822  75.074 -27.027  1.00  0.00    -0.024 A 
HETATM   31  C19 UNL     1      43.221  74.304 -26.410  1.00  0.00     0.034 A 
HETATM   32 CL1  UNL     1      41.586  73.764 -26.037  1.00  0.00    -0.084 Cl
HETATM   33  C20 UNL     1      43.624  75.603 -26.197  1.00  0.00     0.024 A 
HETATM   34  C21 UNL     1      44.922  75.974 -26.509  1.00  0.00     0.014 A 
HETATM   35  C23 UNL     1      47.135  75.428 -27.347  1.00  0.00     0.037 A 
ENDBRANCH  22  25
ENDBRANCH   6  22
TORSDOF 4
ENDMDL
