MODEL 1
REMARK VINA RESULT: -11.236312172      0.000      0.000
REMARK  4 active torsions:
REMARK  status: ('A' for Active; 'I' for Inactive)
REMARK    1  A    between atoms: C1_2  and  C2_3 
REMARK       I    between atoms: C1_2  and  N3_16 
REMARK    2  A    between atoms: N1_6  and  C5_7 
REMARK    3  A    between atoms: N4_19  and  S1_20 
REMARK    4  A    between atoms: S1_20  and  C14_23 
ROOT
HETATM    1  O1  UNL     1      51.154  71.092 -32.586  1.00  0.00    -0.273 OA
HETATM    2  C1  UNL     1      51.785  72.153 -32.271  1.00  0.00     0.224 C 
HETATM    3  N3  UNL     1      51.006  73.289 -31.931  1.00  0.00    -0.345 N 
HETATM    4  C12 UNL     1      49.559  73.247 -31.963  1.00  0.00     0.147 C 
HETATM    5  C13 UNL     1      49.057  73.512 -30.575  1.00  0.00     0.160 C 
HETATM    6  N4  UNL     1      49.728  74.548 -29.893  1.00  0.00    -0.283 N 
HETATM    7  C24 UNL     1      50.777  75.219 -30.507  1.00  0.00     0.096 C 
HETATM    8  C25 UNL     1      51.594  74.543 -31.526  1.00  0.00     0.171 C 
ENDROOT
BRANCH   2   9
HETATM    9  C2  UNL     1      53.252  72.109 -32.289  1.00  0.00     0.081 C 
HETATM   10  C3  UNL     1      53.832  71.226 -33.368  1.00  0.00     0.034 C 
HETATM   11  C4  UNL     1      53.193  69.873 -33.213  1.00  0.00     0.123 C 
HETATM   12  N1  UNL     1      53.226  69.387 -31.861  1.00  0.00    -0.381 N 
HETATM   13  C10 UNL     1      53.611  70.175 -30.714  1.00  0.00     0.123 C 
HETATM   14  C11 UNL     1      53.812  71.624 -30.979  1.00  0.00     0.034 C 
BRANCH  12  15
HETATM   15  C5  UNL     1      52.857  68.036 -31.621  1.00  0.00     0.032 A 
HETATM   16  C6  UNL     1      51.935  67.400 -32.427  1.00  0.00     0.046 A 
HETATM   17  C7  UNL     1      51.567  66.081 -32.203  1.00  0.00     0.089 A 
HETATM   18  N2  UNL     1      52.093  65.383 -31.195  1.00  0.00    -0.375 N 
HETATM   19  C8  UNL     1      52.992  65.981 -30.395  1.00  0.00     0.089 A 
ATOM     20  H2  UNL     1      51.818  64.414 -31.035  1.00  0.00     0.164 HD
HETATM   21  C9  UNL     1      53.385  67.292 -30.586  1.00  0.00     0.046 A 
ENDBRANCH  12  15
ENDBRANCH   2   9
BRANCH   6  22
HETATM   22  S1  UNL     1      49.557  74.639 -28.226  1.00  0.00     0.264 S 
HETATM   23  O2  UNL     1      50.274  73.511 -27.500  1.00  0.00    -0.200 OA
HETATM   24  O3  UNL     1      50.171  75.917 -27.732  1.00  0.00    -0.200 OA
BRANCH  22  25
HETATM   25  C14 UNL     1      47.856  74.657 -27.739  1.00  0.00     0.080 A 
HETATM   26  C15 UNL     1      47.263  75.837 -27.355  1.00  0.00     0.026 A 
HETATM   27  C16 UNL     1      45.943  75.858 -26.977  1.00  0.00     0.014 A 
HETATM   28  C17 UNL     1      45.191  74.687 -26.978  1.00  0.00    -0.024 A 
HETATM   29  C18 UNL     1      43.856  74.697 -26.597  1.00  0.00     0.036 A 
HETATM   30  C22 UNL     1      45.772  73.497 -27.359  1.00  0.00    -0.024 A 
HETATM   31  C19 UNL     1      43.097  73.533 -26.594  1.00  0.00     0.034 A 
HETATM   32 CL1  UNL     1      41.408  73.611 -26.102  1.00  0.00    -0.084 Cl
HETATM   33  C20 UNL     1      43.689  72.350 -26.978  1.00  0.00     0.024 A 
HETATM   34  C21 UNL     1      45.021  72.346 -27.356  1.00  0.00     0.014 A 
HETATM   35  C23 UNL     1      47.117  73.513 -27.737  1.00  0.00     0.037 A 
ENDBRANCH  22  25
ENDBRANCH   6  22
TORSDOF 4
ENDMDL
