MODEL 2
REMARK VINA RESULT: -10.795943071      1.293      1.799
REMARK  4 active torsions:
REMARK  status: ('A' for Active; 'I' for Inactive)
REMARK    1  A    between atoms: C1_2  and  C2_3 
REMARK       I    between atoms: C1_2  and  N3_16 
REMARK    2  A    between atoms: N1_6  and  C5_7 
REMARK    3  A    between atoms: N4_19  and  S1_20 
REMARK    4  A    between atoms: S1_20  and  C14_23 
ROOT
HETATM    1  O1  UNL     1      51.959  73.619 -33.504  1.00  0.00    -0.273 OA
HETATM    2  C1  UNL     1      52.400  74.133 -32.425  1.00  0.00     0.224 C 
HETATM    3  N3  UNL     1      51.460  74.800 -31.597  1.00  0.00    -0.345 N 
HETATM    4  C12 UNL     1      50.066  74.908 -31.976  1.00  0.00     0.147 C 
HETATM    5  C13 UNL     1      49.248  74.206 -30.935  1.00  0.00     0.160 C 
HETATM    6  N4  UNL     1      49.649  74.451 -29.604  1.00  0.00    -0.283 N 
HETATM    7  C24 UNL     1      50.738  75.273 -29.348  1.00  0.00     0.096 C 
HETATM    8  C25 UNL     1      51.821  75.399 -30.335  1.00  0.00     0.171 C 
ENDROOT
BRANCH   2   9
HETATM    9  C2  UNL     1      53.832  73.995 -32.135  1.00  0.00     0.081 C 
HETATM   10  C3  UNL     1      54.604  73.223 -33.178  1.00  0.00     0.034 C 
HETATM   11  C4  UNL     1      53.897  71.907 -33.356  1.00  0.00     0.123 C 
HETATM   12  N1  UNL     1      53.613  71.248 -32.111  1.00  0.00    -0.381 N 
HETATM   13  C10 UNL     1      53.763  71.853 -30.809  1.00  0.00     0.123 C 
HETATM   14  C11 UNL     1      54.070  73.308 -30.817  1.00  0.00     0.034 C 
BRANCH  12  15
HETATM   15  C5  UNL     1      53.151  69.905 -32.148  1.00  0.00     0.032 A 
HETATM   16  C6  UNL     1      53.671  68.954 -31.295  1.00  0.00     0.046 A 
HETATM   17  C7  UNL     1      53.229  67.639 -31.321  1.00  0.00     0.089 A 
HETATM   18  N2  UNL     1      52.282  67.250 -32.177  1.00  0.00    -0.375 N 
HETATM   19  C8  UNL     1      51.760  68.159 -33.019  1.00  0.00     0.089 A 
ATOM     20  H2  UNL     1      51.961  66.282 -32.192  1.00  0.00     0.164 HD
HETATM   21  C9  UNL     1      52.174  69.477 -33.023  1.00  0.00     0.046 A 
ENDBRANCH  12  15
ENDBRANCH   2   9
BRANCH   6  22
HETATM   22  S1  UNL     1      49.106  73.407 -28.409  1.00  0.00     0.264 S 
HETATM   23  O2  UNL     1      49.099  71.954 -28.858  1.00  0.00    -0.200 OA
HETATM   24  O3  UNL     1      50.031  73.480 -27.228  1.00  0.00    -0.200 OA
BRANCH  22  25
HETATM   25  C14 UNL     1      47.492  73.847 -27.832  1.00  0.00     0.080 A 
HETATM   26  C15 UNL     1      47.207  75.155 -27.517  1.00  0.00     0.026 A 
HETATM   27  C16 UNL     1      45.956  75.504 -27.072  1.00  0.00     0.014 A 
HETATM   28  C17 UNL     1      44.963  74.538 -26.933  1.00  0.00    -0.024 A 
HETATM   29  C18 UNL     1      43.695  74.880 -26.482  1.00  0.00     0.036 A 
HETATM   30  C22 UNL     1      45.234  73.224 -27.244  1.00  0.00    -0.024 A 
HETATM   31  C19 UNL     1      42.698  73.924 -26.340  1.00  0.00     0.034 A 
HETATM   32 CL1  UNL     1      41.109  74.420 -25.765  1.00  0.00    -0.084 Cl
HETATM   33  C20 UNL     1      42.980  72.613 -26.655  1.00  0.00     0.024 A 
HETATM   34  C21 UNL     1      44.247  72.278 -27.103  1.00  0.00     0.014 A 
HETATM   35  C23 UNL     1      46.518  72.906 -27.695  1.00  0.00     0.037 A 
ENDBRANCH  22  25
ENDBRANCH   6  22
TORSDOF 4
ENDMDL
