MODEL 1
REMARK VINA RESULT: -5.482107213      0.000      0.000
REMARK  1 active torsions:
REMARK  status: ('A' for Active; 'I' for Inactive)
REMARK    1  A    between atoms: C1_2  and  C2_6 
ROOT
HETATM    1  C2  UNL     1      53.242  67.482 -29.021  1.00  0.00     0.004 A 
HETATM    2  C3  UNL     1      53.792  68.731 -28.963  1.00  0.00     0.015 A 
HETATM    3  C4  UNL     1      53.591  69.698 -29.958  1.00  0.00     0.001 A 
HETATM    4  C5  UNL     1      52.811  69.359 -31.021  1.00  0.00     0.000 A 
HETATM    5  C6  UNL     1      52.223  68.119 -31.149  1.00  0.00     0.001 A 
HETATM    6  C7  UNL     1      52.449  67.203 -30.147  1.00  0.00     0.015 A 
ENDROOT
BRANCH   1   7
HETATM    7  C1  UNL     1      53.448  66.491 -27.999  1.00  0.00     0.120 C 
HETATM    8  N1  UNL     1      52.727  65.267 -28.086  1.00  0.00    -0.082 NA
HETATM    9  N2  UNL     1      54.243  66.674 -27.039  1.00  0.00    -0.387 N 
ATOM     10  H22 UNL     1      54.388  65.971 -26.314  1.00  0.00     0.157 HD
ATOM     11  H21 UNL     1      54.759  67.552 -26.977  1.00  0.00     0.157 HD
ENDBRANCH   1   7
TORSDOF 1
ENDMDL
