MODEL 2
REMARK VINA RESULT: -5.465283142      0.078      1.587
REMARK  1 active torsions:
REMARK  status: ('A' for Active; 'I' for Inactive)
REMARK    1  A    between atoms: C1_2  and  C2_6 
ROOT
HETATM    1  C2  UNL     1      53.235  67.455 -29.021  1.00  0.00     0.004 A 
HETATM    2  C3  UNL     1      52.503  67.222 -30.150  1.00  0.00     0.015 A 
HETATM    3  C4  UNL     1      52.318  68.188 -31.150  1.00  0.00     0.001 A 
HETATM    4  C5  UNL     1      52.900  69.404 -30.970  1.00  0.00     0.000 A 
HETATM    5  C6  UNL     1      53.654  69.713 -29.857  1.00  0.00     0.001 A 
HETATM    6  C7  UNL     1      53.807  68.733 -28.903  1.00  0.00     0.015 A 
ENDROOT
BRANCH   1   7
HETATM    7  C1  UNL     1      53.425  66.464 -27.996  1.00  0.00     0.120 C 
HETATM    8  N1  UNL     1      52.713  65.236 -28.099  1.00  0.00    -0.082 NA
HETATM    9  N2  UNL     1      54.198  66.651 -27.019  1.00  0.00    -0.387 N 
ATOM     10  H22 UNL     1      54.332  65.948 -26.291  1.00  0.00     0.157 HD
ATOM     11  H21 UNL     1      54.708  67.531 -26.944  1.00  0.00     0.157 HD
ENDBRANCH   1   7
TORSDOF 1
ENDMDL
