MODEL 9
REMARK VINA RESULT: -4.921475206      7.413      7.905
REMARK  1 active torsions:
REMARK  status: ('A' for Active; 'I' for Inactive)
REMARK    1  A    between atoms: C1_2  and  C2_6 
ROOT
HETATM    1  C2  UNL     1      48.837  72.867 -27.145  1.00  0.00     0.004 A 
HETATM    2  C3  UNL     1      48.753  72.913 -25.783  1.00  0.00     0.015 A 
HETATM    3  C4  UNL     1      47.532  72.898 -25.095  1.00  0.00     0.001 A 
HETATM    4  C5  UNL     1      46.390  72.834 -25.833  1.00  0.00     0.000 A 
HETATM    5  C6  UNL     1      46.396  72.785 -27.211  1.00  0.00     0.001 A 
HETATM    6  C7  UNL     1      47.618  72.803 -27.842  1.00  0.00     0.015 A 
ENDROOT
BRANCH   1   7
HETATM    7  C1  UNL     1      50.091  72.882 -27.851  1.00  0.00     0.120 C 
HETATM    8  N1  UNL     1      50.626  74.137 -28.257  1.00  0.00    -0.082 NA
HETATM    9  N2  UNL     1      50.723  71.825 -28.116  1.00  0.00    -0.387 N 
ATOM     10  H22 UNL     1      51.612  71.837 -28.616  1.00  0.00     0.157 HD
ATOM     11  H21 UNL     1      50.339  70.926 -27.825  1.00  0.00     0.157 HD
ENDBRANCH   1   7
TORSDOF 1
ENDMDL
