MODEL 12
REMARK VINA RESULT: -4.777592817      7.967      8.476
REMARK  1 active torsions:
REMARK  status: ('A' for Active; 'I' for Inactive)
REMARK    1  A    between atoms: C1_2  and  C2_6 
ROOT
HETATM    1  C2  UNL     1      48.702  73.415 -25.810  1.00  0.00     0.004 A 
HETATM    2  C3  UNL     1      47.563  73.054 -25.149  1.00  0.00     0.015 A 
HETATM    3  C4  UNL     1      46.390  72.665 -25.812  1.00  0.00     0.001 A 
HETATM    4  C5  UNL     1      46.406  72.654 -27.172  1.00  0.00     0.000 A 
HETATM    5  C6  UNL     1      47.518  73.006 -27.908  1.00  0.00     0.001 A 
HETATM    6  C7  UNL     1      48.646  73.380 -27.214  1.00  0.00     0.015 A 
ENDROOT
BRANCH   1   7
HETATM    7  C1  UNL     1      49.906  73.813 -25.129  1.00  0.00     0.120 C 
HETATM    8  N1  UNL     1      50.371  75.147 -25.298  1.00  0.00    -0.082 NA
HETATM    9  N2  UNL     1      50.553  73.020 -24.394  1.00  0.00    -0.387 N 
ATOM     10  H22 UNL     1      51.406  73.303 -23.912  1.00  0.00     0.157 HD
ATOM     11  H21 UNL     1      50.219  72.064 -24.273  1.00  0.00     0.157 HD
ENDBRANCH   1   7
TORSDOF 1
ENDMDL
