MODEL 10
REMARK VINA RESULT: -4.894241787      7.376      7.982
REMARK  1 active torsions:
REMARK  status: ('A' for Active; 'I' for Inactive)
REMARK    1  A    between atoms: C1_2  and  C2_6 
ROOT
HETATM    1  C2  UNL     1      48.822  72.823 -27.212  1.00  0.00     0.004 A 
HETATM    2  C3  UNL     1      47.626  72.810 -27.872  1.00  0.00     0.015 A 
HETATM    3  C4  UNL     1      46.391  72.841 -27.209  1.00  0.00     0.001 A 
HETATM    4  C5  UNL     1      46.404  72.887 -25.849  1.00  0.00     0.000 A 
HETATM    5  C6  UNL     1      47.571  72.903 -25.115  1.00  0.00     0.001 A 
HETATM    6  C7  UNL     1      48.758  72.871 -25.809  1.00  0.00     0.015 A 
ENDROOT
BRANCH   1   7
HETATM    7  C1  UNL     1      50.089  72.792 -27.893  1.00  0.00     0.120 C 
HETATM    8  N1  UNL     1      50.687  74.026 -28.272  1.00  0.00    -0.082 NA
HETATM    9  N2  UNL     1      50.678  71.711 -28.160  1.00  0.00    -0.387 N 
ATOM     10  H22 UNL     1      51.577  71.688 -28.643  1.00  0.00     0.157 HD
ATOM     11  H21 UNL     1      50.250  70.826 -27.889  1.00  0.00     0.157 HD
ENDBRANCH   1   7
TORSDOF 1
ENDMDL
