MODEL 7
REMARK VINA RESULT: -8.648688465      5.284      7.877
REMARK  4 active torsions:
REMARK  status: ('A' for Active; 'I' for Inactive)
REMARK    1  A    between atoms: C1_2  and  C2_6 
REMARK    2  A    between atoms: C5_9  and  C6_10 
REMARK    3  A    between atoms: C13_17  and  C14_18 
REMARK    4  A    between atoms: C17_21  and  C18_22 
ROOT
HETATM    1  C6  UNL     1      44.185  22.753  50.639  1.00  0.00     0.023 C 
HETATM    2  C7  UNL     1      43.279  23.603  50.894  1.00  0.00     0.003 C 
HETATM    3  C8  UNL     1      42.487  23.508  52.221  1.00  0.00     0.122 C 
HETATM    4  C9  UNL     1      41.987  24.826  52.398  1.00  0.00    -0.178 C 
HETATM    5  C10 UNL     1      41.541  26.135  52.486  1.00  0.00     0.085 C 
HETATM    6  C11 UNL     1      41.860  26.810  51.152  1.00  0.00     0.054 C 
HETATM    7  C12 UNL     1      42.666  26.071  50.189  1.00  0.00    -0.006 C 
HETATM    8  C13 UNL     1      43.201  26.903  49.279  1.00  0.00     0.022 C 
HETATM    9  C21 UNL     1      43.035  24.681  49.888  1.00  0.00     0.185 C 
HETATM   10  O1  UNL     1      43.168  24.310  48.698  1.00  0.00    -0.287 OA
ENDROOT
BRANCH   1  11
HETATM   11  C5  UNL     1      44.568  21.664  51.487  1.00  0.00    -0.035 A 
HETATM   12  C4  UNL     1      44.013  20.403  51.256  1.00  0.00     0.012 A 
HETATM   13  C3  UNL     1      44.299  19.309  52.039  1.00  0.00     0.015 A 
HETATM   14  C2  UNL     1      45.163  19.400  53.112  1.00  0.00     0.004 A 
HETATM   15  C23 UNL     1      45.726  20.662  53.355  1.00  0.00     0.015 A 
HETATM   16  C22 UNL     1      45.421  21.743  52.553  1.00  0.00     0.012 A 
BRANCH  14  17
HETATM   17  C1  UNL     1      45.515  18.300  53.978  1.00  0.00     0.120 C 
HETATM   18  N1  UNL     1      44.764  17.096  53.930  1.00  0.00    -0.082 NA
HETATM   19  N2  UNL     1      46.486  18.365  54.796  1.00  0.00    -0.387 N 
ATOM     20  H22 UNL     1      46.735  17.589  55.407  1.00  0.00     0.157 HD
ATOM     21  H21 UNL     1      47.025  19.230  54.830  1.00  0.00     0.157 HD
ENDBRANCH  14  17
ENDBRANCH   1  11
BRANCH   8  22
HETATM   22  C14 UNL     1      44.061  26.502  48.186  1.00  0.00    -0.036 A 
HETATM   23  C15 UNL     1      43.602  26.482  46.889  1.00  0.00     0.012 A 
HETATM   24  C16 UNL     1      44.433  26.095  45.832  1.00  0.00     0.015 A 
HETATM   25  C17 UNL     1      45.728  25.726  46.046  1.00  0.00     0.004 A 
HETATM   26  C19 UNL     1      46.208  25.742  47.358  1.00  0.00     0.015 A 
HETATM   27  C20 UNL     1      45.383  26.119  48.366  1.00  0.00     0.012 A 
BRANCH  25  28
HETATM   28  C18 UNL     1      46.671  25.304  45.014  1.00  0.00     0.120 C 
HETATM   29  N3  UNL     1      47.381  26.256  44.227  1.00  0.00    -0.082 NA
HETATM   30  N4  UNL     1      46.879  24.063  44.791  1.00  0.00    -0.387 N 
ATOM     31  H42 UNL     1      46.371  23.382  45.355  1.00  0.00     0.157 HD
ATOM     32  H41 UNL     1      47.538  23.769  44.070  1.00  0.00     0.157 HD
ENDBRANCH  25  28
ENDBRANCH   8  22
TORSDOF 4
ENDMDL
