MODEL 8
REMARK VINA RESULT: -8.530298485      1.803      2.524
REMARK  4 active torsions:
REMARK  status: ('A' for Active; 'I' for Inactive)
REMARK    1  A    between atoms: C1_2  and  C2_6 
REMARK    2  A    between atoms: C5_9  and  C6_10 
REMARK    3  A    between atoms: C13_17  and  C14_18 
REMARK    4  A    between atoms: C17_21  and  C18_22 
ROOT
HETATM    1  C6  UNL     1      39.513  25.150  55.586  1.00  0.00     0.023 C 
HETATM    2  C7  UNL     1      39.402  26.095  54.748  1.00  0.00     0.003 C 
HETATM    3  C8  UNL     1      38.105  26.940  54.709  1.00  0.00     0.122 C 
HETATM    4  C9  UNL     1      38.520  28.146  54.084  1.00  0.00    -0.178 C 
HETATM    5  C10 UNL     1      39.013  29.284  53.466  1.00  0.00     0.085 C 
HETATM    6  C11 UNL     1      40.423  28.954  52.973  1.00  0.00     0.054 C 
HETATM    7  C12 UNL     1      41.002  27.678  53.371  1.00  0.00    -0.006 C 
HETATM    8  C13 UNL     1      42.338  27.699  53.229  1.00  0.00     0.022 C 
HETATM    9  C21 UNL     1      40.559  26.358  53.841  1.00  0.00     0.185 C 
HETATM   10  O1  UNL     1      41.170  25.325  53.477  1.00  0.00    -0.287 OA
ENDROOT
BRANCH   1  11
HETATM   11  C5  UNL     1      38.518  24.763  56.542  1.00  0.00    -0.035 A 
HETATM   12  C4  UNL     1      37.388  24.074  56.096  1.00  0.00     0.012 A 
HETATM   13  C3  UNL     1      36.369  23.691  56.937  1.00  0.00     0.015 A 
HETATM   14  C2  UNL     1      36.409  23.973  58.288  1.00  0.00     0.004 A 
HETATM   15  C23 UNL     1      37.539  24.665  58.747  1.00  0.00     0.015 A 
HETATM   16  C22 UNL     1      38.547  25.038  57.882  1.00  0.00     0.012 A 
BRANCH  14  17
HETATM   17  C1  UNL     1      35.383  23.604  59.234  1.00  0.00     0.120 C 
HETATM   18  N1  UNL     1      35.508  23.991  60.596  1.00  0.00    -0.082 NA
HETATM   19  N2  UNL     1      34.356  22.938  58.895  1.00  0.00    -0.387 N 
ATOM     20  H22 UNL     1      33.632  22.677  59.564  1.00  0.00     0.157 HD
ATOM     21  H21 UNL     1      34.267  22.661  57.918  1.00  0.00     0.157 HD
ENDBRANCH  14  17
ENDBRANCH   1  11
BRANCH   8  22
HETATM   22  C14 UNL     1      43.228  26.600  53.541  1.00  0.00    -0.036 A 
HETATM   23  C15 UNL     1      43.701  25.765  52.556  1.00  0.00     0.012 A 
HETATM   24  C16 UNL     1      44.561  24.703  52.856  1.00  0.00     0.015 A 
HETATM   25  C17 UNL     1      44.964  24.457  54.135  1.00  0.00     0.004 A 
HETATM   26  C19 UNL     1      44.492  25.297  55.147  1.00  0.00     0.015 A 
HETATM   27  C20 UNL     1      43.658  26.319  54.831  1.00  0.00     0.012 A 
BRANCH  25  28
HETATM   28  C18 UNL     1      45.853  23.376  54.551  1.00  0.00     0.120 C 
HETATM   29  N3  UNL     1      47.238  23.610  54.794  1.00  0.00    -0.082 NA
HETATM   30  N4  UNL     1      45.407  22.189  54.704  1.00  0.00    -0.387 N 
ATOM     31  H42 UNL     1      44.416  22.022  54.530  1.00  0.00     0.157 HD
ATOM     32  H41 UNL     1      46.028  21.434  54.995  1.00  0.00     0.157 HD
ENDBRANCH  25  28
ENDBRANCH   8  22
TORSDOF 4
ENDMDL
