MODEL 9
REMARK VINA RESULT: -8.408760064      4.926      7.426
REMARK  4 active torsions:
REMARK  status: ('A' for Active; 'I' for Inactive)
REMARK    1  A    between atoms: C1_2  and  C2_6 
REMARK    2  A    between atoms: C5_9  and  C6_10 
REMARK    3  A    between atoms: C13_17  and  C14_18 
REMARK    4  A    between atoms: C17_21  and  C18_22 
ROOT
HETATM    1  C6  UNL     1      43.586  22.976  51.340  1.00  0.00     0.023 C 
HETATM    2  C7  UNL     1      42.793  23.837  51.827  1.00  0.00     0.003 C 
HETATM    3  C8  UNL     1      42.338  23.717  53.303  1.00  0.00     0.122 C 
HETATM    4  C9  UNL     1      41.935  25.039  53.629  1.00  0.00    -0.178 C 
HETATM    5  C10 UNL     1      41.561  26.354  53.855  1.00  0.00     0.085 C 
HETATM    6  C11 UNL     1      41.573  27.065  52.502  1.00  0.00     0.054 C 
HETATM    7  C12 UNL     1      42.103  26.340  51.355  1.00  0.00    -0.006 C 
HETATM    8  C13 UNL     1      42.430  27.189  50.366  1.00  0.00     0.022 C 
HETATM    9  C21 UNL     1      42.348  24.952  50.938  1.00  0.00     0.185 C 
HETATM   10  O1  UNL     1      42.182  24.617  49.741  1.00  0.00    -0.287 OA
ENDROOT
BRANCH   1  11
HETATM   11  C5  UNL     1      44.129  21.851  52.044  1.00  0.00    -0.035 A 
HETATM   12  C4  UNL     1      43.789  20.564  51.620  1.00  0.00     0.012 A 
HETATM   13  C3  UNL     1      44.237  19.430  52.254  1.00  0.00     0.015 A 
HETATM   14  C2  UNL     1      45.059  19.502  53.360  1.00  0.00     0.004 A 
HETATM   15  C23 UNL     1      45.407  20.789  53.795  1.00  0.00     0.015 A 
HETATM   16  C22 UNL     1      44.943  21.912  53.141  1.00  0.00     0.012 A 
BRANCH  14  17
HETATM   17  C1  UNL     1      45.573  18.360  54.078  1.00  0.00     0.120 C 
HETATM   18  N1  UNL     1      44.980  17.083  53.888  1.00  0.00    -0.082 NA
HETATM   19  N2  UNL     1      46.549  18.450  54.886  1.00  0.00    -0.387 N 
ATOM     20  H22 UNL     1      46.912  17.643  55.393  1.00  0.00     0.157 HD
ATOM     21  H21 UNL     1      46.975  19.366  55.022  1.00  0.00     0.157 HD
ENDBRANCH  14  17
ENDBRANCH   1  11
BRANCH   8  22
HETATM   22  C14 UNL     1      42.991  26.805  49.088  1.00  0.00    -0.036 A 
HETATM   23  C15 UNL     1      42.230  26.816  47.942  1.00  0.00     0.012 A 
HETATM   24  C16 UNL     1      42.772  26.446  46.708  1.00  0.00     0.015 A 
HETATM   25  C17 UNL     1      44.076  26.061  46.591  1.00  0.00     0.004 A 
HETATM   26  C19 UNL     1      44.862  26.045  47.746  1.00  0.00     0.015 A 
HETATM   27  C20 UNL     1      44.313  26.407  48.932  1.00  0.00     0.012 A 
BRANCH  25  28
HETATM   28  C18 UNL     1      44.733  25.654  45.353  1.00  0.00     0.120 C 
HETATM   29  N3  UNL     1      46.098  25.242  45.341  1.00  0.00    -0.082 NA
HETATM   30  N4  UNL     1      44.096  25.661  44.246  1.00  0.00    -0.387 N 
ATOM     31  H42 UNL     1      43.120  25.955  44.255  1.00  0.00     0.157 HD
ATOM     32  H41 UNL     1      44.556  25.376  43.380  1.00  0.00     0.157 HD
ENDBRANCH  25  28
ENDBRANCH   8  22
TORSDOF 4
ENDMDL
