MODEL 10
REMARK VINA RESULT: -8.338113737      2.753      4.173
REMARK  4 active torsions:
REMARK  status: ('A' for Active; 'I' for Inactive)
REMARK    1  A    between atoms: C1_2  and  C2_6 
REMARK    2  A    between atoms: C5_9  and  C6_10 
REMARK    3  A    between atoms: C13_17  and  C14_18 
REMARK    4  A    between atoms: C17_21  and  C18_22 
ROOT
HETATM    1  C6  UNL     1      41.886  24.027  53.771  1.00  0.00     0.023 C 
HETATM    2  C7  UNL     1      42.061  24.308  52.547  1.00  0.00     0.003 C 
HETATM    3  C8  UNL     1      41.509  25.638  51.976  1.00  0.00     0.122 C 
HETATM    4  C9  UNL     1      42.301  25.849  50.816  1.00  0.00    -0.178 C 
HETATM    5  C10 UNL     1      43.117  25.971  49.703  1.00  0.00     0.085 C 
HETATM    6  C11 UNL     1      43.875  24.651  49.554  1.00  0.00     0.054 C 
HETATM    7  C12 UNL     1      43.745  23.667  50.620  1.00  0.00    -0.006 C 
HETATM    8  C13 UNL     1      44.747  22.773  50.565  1.00  0.00     0.022 C 
HETATM    9  C21 UNL     1      42.821  23.330  51.711  1.00  0.00     0.185 C 
HETATM   10  O1  UNL     1      42.611  22.130  52.010  1.00  0.00    -0.287 OA
ENDROOT
BRANCH   1  11
HETATM   11  C5  UNL     1      41.199  24.847  54.724  1.00  0.00    -0.035 A 
HETATM   12  C4  UNL     1      39.805  24.780  54.790  1.00  0.00     0.012 A 
HETATM   13  C3  UNL     1      39.062  25.552  55.651  1.00  0.00     0.015 A 
HETATM   14  C2  UNL     1      39.663  26.451  56.510  1.00  0.00     0.004 A 
HETATM   15  C23 UNL     1      41.063  26.528  56.453  1.00  0.00     0.015 A 
HETATM   16  C22 UNL     1      41.784  25.741  55.579  1.00  0.00     0.012 A 
BRANCH  14  17
HETATM   17  C1  UNL     1      38.955  27.294  57.444  1.00  0.00     0.120 C 
HETATM   18  N1  UNL     1      39.651  27.876  58.536  1.00  0.00    -0.082 NA
HETATM   19  N2  UNL     1      37.715  27.542  57.327  1.00  0.00    -0.387 N 
ATOM     20  H22 UNL     1      37.214  28.137  57.986  1.00  0.00     0.157 HD
ATOM     21  H21 UNL     1      37.215  27.124  56.542  1.00  0.00     0.157 HD
ENDBRANCH  14  17
ENDBRANCH   1  11
BRANCH   8  22
HETATM   22  C14 UNL     1      44.929  21.665  51.479  1.00  0.00    -0.036 A 
HETATM   23  C15 UNL     1      45.478  21.851  52.726  1.00  0.00     0.012 A 
HETATM   24  C16 UNL     1      45.653  20.781  53.609  1.00  0.00     0.015 A 
HETATM   25  C17 UNL     1      45.285  19.513  53.268  1.00  0.00     0.004 A 
HETATM   26  C19 UNL     1      44.725  19.307  52.005  1.00  0.00     0.015 A 
HETATM   27  C20 UNL     1      44.567  20.361  51.166  1.00  0.00     0.012 A 
BRANCH  25  28
HETATM   28  C18 UNL     1      45.430  18.331  54.114  1.00  0.00     0.120 C 
HETATM   29  N3  UNL     1      44.700  17.136  53.846  1.00  0.00    -0.082 NA
HETATM   30  N4  UNL     1      46.214  18.345  55.122  1.00  0.00    -0.387 N 
ATOM     31  H42 UNL     1      46.736  19.200  55.313  1.00  0.00     0.157 HD
ATOM     32  H41 UNL     1      46.315  17.519  55.713  1.00  0.00     0.157 HD
ENDBRANCH  25  28
ENDBRANCH   8  22
TORSDOF 4
ENDMDL
