MODEL 3
REMARK VINA RESULT: -7.687044784      1.186      1.631
REMARK  10 active torsions:
REMARK  status: ('A' for Active; 'I' for Inactive)
REMARK    1  A    between atoms: O1_2  and  C2_3 
REMARK    2  A    between atoms: C2_3  and  C3_5 
REMARK    3  A    between atoms: C3_5  and  C4_6 
REMARK    4  A    between atoms: C3_5  and  N3_18 
REMARK    5  A    between atoms: C4_6  and  C5_7 
REMARK    6  A    between atoms: C9_11  and  C10_12 
REMARK       I    between atoms: N3_18  and  C12_20 
REMARK    7  A    between atoms: C12_20  and  C13_22 
REMARK    8  A    between atoms: C13_22  and  N4_23 
REMARK    9  A    between atoms: N4_23  and  S1_25 
REMARK   10  A    between atoms: S1_25  and  C14_28 
ROOT
HETATM    1  C3  UNL     1       0.886  18.654  20.153  1.00  0.00     0.188 C 
ENDROOT
BRANCH   1   2
HETATM    2  C2  UNL     1       2.003  18.979  21.070  1.00  0.00     0.281 C 
HETATM    3  O2  UNL     1       3.155  18.561  20.876  1.00  0.00    -0.263 OA
BRANCH   2   4
HETATM    4  O1  UNL     1       1.759  19.774  22.180  1.00  0.00    -0.325 OA
HETATM    5  C1  UNL     1       0.609  19.700  22.974  1.00  0.00     0.213 C 
ENDBRANCH   2   4
ENDBRANCH   1   2
BRANCH   1   6
HETATM    6  C4  UNL     1       0.626  17.172  20.027  1.00  0.00     0.074 C 
BRANCH   6   7
HETATM    7  C5  UNL     1      -0.612  16.829  19.328  1.00  0.00    -0.055 A 
HETATM    8  C6  UNL     1      -1.768  17.551  19.524  1.00  0.00     0.007 A 
HETATM    9  C7  UNL     1      -2.931  17.197  18.836  1.00  0.00     0.002 A 
HETATM   10  C8  UNL     1      -2.890  16.129  17.973  1.00  0.00     0.015 A 
HETATM   11  C9  UNL     1      -1.727  15.387  17.762  1.00  0.00     0.005 A 
HETATM   12  C11 UNL     1      -0.598  15.756  18.451  1.00  0.00     0.022 A 
BRANCH  11  13
HETATM   13  C10 UNL     1      -1.791  14.274  16.827  1.00  0.00     0.120 C 
HETATM   14  N1  UNL     1      -0.962  13.143  17.032  1.00  0.00    -0.082 NA
HETATM   15  N2  UNL     1      -2.585  14.299  15.821  1.00  0.00    -0.387 N 
ATOM     16  H22 UNL     1      -3.182  15.113  15.674  1.00  0.00     0.157 HD
ATOM     17  H21 UNL     1      -2.630  13.518  15.166  1.00  0.00     0.157 HD
ENDBRANCH  11  13
ENDBRANCH   6   7
ENDBRANCH   1   6
BRANCH   1  18
HETATM   18  N3  UNL     1       1.247  19.112  18.830  1.00  0.00    -0.346 N 
HETATM   19  C12 UNL     1       0.563  20.172  18.230  1.00  0.00     0.236 C 
HETATM   20  O3  UNL     1      -0.384  20.721  18.874  1.00  0.00    -0.272 OA
ATOM     21  H3  UNL     1       2.010  18.657  18.329  1.00  0.00     0.163 HD
BRANCH  19  22
HETATM   22  C13 UNL     1       0.871  20.693  16.889  1.00  0.00     0.235 C 
BRANCH  22  23
HETATM   23  N4  UNL     1       2.109  20.183  16.386  1.00  0.00    -0.307 N 
ATOM     24  H4  UNL     1       2.188  19.310  15.866  1.00  0.00     0.172 HD
BRANCH  23  25
HETATM   25  S1  UNL     1       3.445  21.193  16.749  1.00  0.00     0.259 S 
HETATM   26  O4  UNL     1       3.057  22.651  16.812  1.00  0.00    -0.201 OA
HETATM   27  O5  UNL     1       3.923  20.822  18.144  1.00  0.00    -0.201 OA
BRANCH  25  28
HETATM   28  C14 UNL     1       4.733  20.984  15.584  1.00  0.00     0.079 A 
HETATM   29  C15 UNL     1       4.649  21.433  14.281  1.00  0.00     0.026 A 
HETATM   30  C16 UNL     1       5.684  21.253  13.381  1.00  0.00     0.008 A 
HETATM   31  C17 UNL     1       6.850  20.615  13.745  1.00  0.00    -0.062 A 
HETATM   32  C18 UNL     1       7.974  20.418  12.775  1.00  0.00     0.048 C 
HETATM   33  C19 UNL     1       6.943  20.163  15.044  1.00  0.00     0.008 A 
HETATM   34  C20 UNL     1       5.911  20.342  15.941  1.00  0.00     0.026 A 
ENDBRANCH  25  28
ENDBRANCH  23  25
ENDBRANCH  22  23
ENDBRANCH  19  22
ENDBRANCH   1  18
TORSDOF 10
ENDMDL
