MODEL 5
REMARK VINA RESULT: -7.634933853      2.404      4.538
REMARK  10 active torsions:
REMARK  status: ('A' for Active; 'I' for Inactive)
REMARK    1  A    between atoms: O1_2  and  C2_3 
REMARK    2  A    between atoms: C2_3  and  C3_5 
REMARK    3  A    between atoms: C3_5  and  C4_6 
REMARK    4  A    between atoms: C3_5  and  N3_18 
REMARK    5  A    between atoms: C4_6  and  C5_7 
REMARK    6  A    between atoms: C9_11  and  C10_12 
REMARK       I    between atoms: N3_18  and  C12_20 
REMARK    7  A    between atoms: C12_20  and  C13_22 
REMARK    8  A    between atoms: C13_22  and  N4_23 
REMARK    9  A    between atoms: N4_23  and  S1_25 
REMARK   10  A    between atoms: S1_25  and  C14_28 
ROOT
HETATM    1  C3  UNL     1      -0.777  17.166  18.931  1.00  0.00     0.188 C 
ENDROOT
BRANCH   1   2
HETATM    2  C2  UNL     1      -0.902  15.921  18.138  1.00  0.00     0.281 C 
HETATM    3  O2  UNL     1      -1.288  15.930  16.959  1.00  0.00    -0.263 OA
BRANCH   2   4
HETATM    4  O1  UNL     1      -0.581  14.708  18.727  1.00  0.00    -0.325 OA
HETATM    5  C1  UNL     1      -1.263  13.507  18.498  1.00  0.00     0.213 C 
ENDBRANCH   2   4
ENDBRANCH   1   2
BRANCH   1   6
HETATM    6  C4  UNL     1      -2.044  17.544  19.659  1.00  0.00     0.074 C 
BRANCH   6   7
HETATM    7  C5  UNL     1      -1.836  18.309  20.887  1.00  0.00    -0.055 A 
HETATM    8  C6  UNL     1      -1.982  19.678  20.911  1.00  0.00     0.007 A 
HETATM    9  C7  UNL     1      -1.779  20.376  22.105  1.00  0.00     0.002 A 
HETATM   10  C8  UNL     1      -1.436  19.671  23.233  1.00  0.00     0.015 A 
HETATM   11  C9  UNL     1      -1.284  18.284  23.227  1.00  0.00     0.005 A 
HETATM   12  C11 UNL     1      -1.490  17.622  22.040  1.00  0.00     0.022 A 
BRANCH  11  13
HETATM   13  C10 UNL     1      -0.919  17.633  24.476  1.00  0.00     0.120 C 
HETATM   14  N1  UNL     1      -1.633  16.486  24.899  1.00  0.00    -0.082 NA
HETATM   15  N2  UNL     1       0.040  18.081  25.199  1.00  0.00    -0.387 N 
ATOM     16  H22 UNL     1       0.554  18.908  24.894  1.00  0.00     0.157 HD
ATOM     17  H21 UNL     1       0.296  17.625  26.075  1.00  0.00     0.157 HD
ENDBRANCH  11  13
ENDBRANCH   6   7
ENDBRANCH   1   6
BRANCH   1  18
HETATM   18  N3  UNL     1      -0.499  18.252  18.017  1.00  0.00    -0.346 N 
HETATM   19  C12 UNL     1       0.635  19.050  18.181  1.00  0.00     0.236 C 
HETATM   20  O3  UNL     1       1.415  18.800  19.151  1.00  0.00    -0.272 OA
ATOM     21  H3  UNL     1      -1.138  18.436  17.244  1.00  0.00     0.163 HD
BRANCH  19  22
HETATM   22  C13 UNL     1       0.984  20.171  17.294  1.00  0.00     0.235 C 
BRANCH  22  23
HETATM   23  N4  UNL     1       2.180  19.918  16.552  1.00  0.00    -0.307 N 
ATOM     24  H4  UNL     1       2.309  19.101  15.955  1.00  0.00     0.172 HD
BRANCH  23  25
HETATM   25  S1  UNL     1       3.372  21.128  16.771  1.00  0.00     0.259 S 
HETATM   26  O4  UNL     1       2.799  22.521  16.651  1.00  0.00    -0.201 OA
HETATM   27  O5  UNL     1       3.883  21.003  18.198  1.00  0.00    -0.201 OA
BRANCH  25  28
HETATM   28  C14 UNL     1       4.685  20.939  15.631  1.00  0.00     0.079 A 
HETATM   29  C15 UNL     1       5.875  20.317  15.950  1.00  0.00     0.026 A 
HETATM   30  C16 UNL     1       6.897  20.182  15.028  1.00  0.00     0.008 A 
HETATM   31  C17 UNL     1       6.773  20.665  13.743  1.00  0.00    -0.062 A 
HETATM   32  C18 UNL     1       7.875  20.522  12.739  1.00  0.00     0.048 C 
HETATM   33  C19 UNL     1       5.588  21.288  13.414  1.00  0.00     0.008 A 
HETATM   34  C20 UNL     1       4.569  21.422  14.335  1.00  0.00     0.026 A 
ENDBRANCH  25  28
ENDBRANCH  23  25
ENDBRANCH  22  23
ENDBRANCH  19  22
ENDBRANCH   1  18
TORSDOF 10
ENDMDL
