MODEL 1
REMARK VINA RESULT: -8.001320665      0.000      0.000
REMARK  10 active torsions:
REMARK  status: ('A' for Active; 'I' for Inactive)
REMARK    1  A    between atoms: O1_2  and  C2_3 
REMARK    2  A    between atoms: C2_3  and  C3_5 
REMARK    3  A    between atoms: C3_5  and  C4_6 
REMARK    4  A    between atoms: C3_5  and  N3_18 
REMARK    5  A    between atoms: C4_6  and  C5_7 
REMARK    6  A    between atoms: C9_11  and  C10_12 
REMARK       I    between atoms: N3_18  and  C12_20 
REMARK    7  A    between atoms: C12_20  and  C13_22 
REMARK    8  A    between atoms: C13_22  and  N4_23 
REMARK    9  A    between atoms: N4_23  and  S1_25 
REMARK   10  A    between atoms: S1_25  and  C14_28 
ROOT
HETATM    1  C3  UNL     1       0.286  18.268  20.478  1.00  0.00     0.188 C 
ENDROOT
BRANCH   1   2
HETATM    2  C2  UNL     1       0.450  18.723  21.878  1.00  0.00     0.281 C 
HETATM    3  O2  UNL     1       0.787  19.883  22.157  1.00  0.00    -0.263 OA
BRANCH   2   4
HETATM    4  O1  UNL     1       0.221  17.827  22.912  1.00  0.00    -0.325 OA
HETATM    5  C1  UNL     1      -0.869  17.884  23.787  1.00  0.00     0.213 C 
ENDBRANCH   2   4
ENDBRANCH   1   2
BRANCH   1   6
HETATM    6  C4  UNL     1       0.213  16.766  20.340  1.00  0.00     0.074 C 
BRANCH   6   7
HETATM    7  C5  UNL     1      -0.721  16.294  19.319  1.00  0.00    -0.055 A 
HETATM    8  C6  UNL     1      -1.874  16.989  19.028  1.00  0.00     0.007 A 
HETATM    9  C7  UNL     1      -2.741  16.509  18.043  1.00  0.00     0.002 A 
HETATM   10  C8  UNL     1      -2.418  15.348  17.385  1.00  0.00     0.015 A 
HETATM   11  C9  UNL     1      -1.254  14.631  17.667  1.00  0.00     0.005 A 
HETATM   12  C11 UNL     1      -0.418  15.125  18.639  1.00  0.00     0.022 A 
BRANCH  11  13
HETATM   13  C10 UNL     1      -1.006  13.412  16.912  1.00  0.00     0.120 C 
HETATM   14  N1  UNL     1       0.081  12.579  17.273  1.00  0.00    -0.082 NA
HETATM   15  N2  UNL     1      -1.756  13.079  15.927  1.00  0.00    -0.387 N 
ATOM     16  H22 UNL     1      -2.538  13.680  15.668  1.00  0.00     0.157 HD
ATOM     17  H21 UNL     1      -1.581  12.225  15.398  1.00  0.00     0.157 HD
ENDBRANCH  11  13
ENDBRANCH   6   7
ENDBRANCH   1   6
BRANCH   1  18
HETATM   18  N3  UNL     1       1.455  18.683  19.735  1.00  0.00    -0.346 N 
HETATM   19  C12 UNL     1       1.327  19.446  18.572  1.00  0.00     0.236 C 
HETATM   20  O3  UNL     1       0.161  19.764  18.183  1.00  0.00    -0.272 OA
ATOM     21  H3  UNL     1       2.383  18.416  20.064  1.00  0.00     0.163 HD
BRANCH  19  22
HETATM   22  C13 UNL     1       2.468  19.904  17.762  1.00  0.00     0.235 C 
BRANCH  22  23
HETATM   23  N4  UNL     1       2.111  20.095  16.391  1.00  0.00    -0.307 N 
ATOM     24  H4  UNL     1       1.490  19.469  15.879  1.00  0.00     0.172 HD
BRANCH  23  25
HETATM   25  S1  UNL     1       2.835  21.485  15.699  1.00  0.00     0.259 S 
HETATM   26  O4  UNL     1       1.974  22.099  14.620  1.00  0.00    -0.201 OA
HETATM   27  O5  UNL     1       2.945  22.530  16.798  1.00  0.00    -0.201 OA
BRANCH  25  28
HETATM   28  C14 UNL     1       4.414  21.118  15.042  1.00  0.00     0.079 A 
HETATM   29  C15 UNL     1       5.414  20.516  15.779  1.00  0.00     0.026 A 
HETATM   30  C16 UNL     1       6.654  20.238  15.234  1.00  0.00     0.008 A 
HETATM   31  C17 UNL     1       6.949  20.549  13.924  1.00  0.00    -0.062 A 
HETATM   32  C18 UNL     1       8.290  20.250  13.328  1.00  0.00     0.048 C 
HETATM   33  C19 UNL     1       5.957  21.151  13.179  1.00  0.00     0.008 A 
HETATM   34  C20 UNL     1       4.720  21.428  13.724  1.00  0.00     0.026 A 
ENDBRANCH  25  28
ENDBRANCH  23  25
ENDBRANCH  22  23
ENDBRANCH  19  22
ENDBRANCH   1  18
TORSDOF 10
ENDMDL
