MODEL 5
REMARK VINA RESULT: -7.442071646      2.729      3.974
REMARK  10 active torsions:
REMARK  status: ('A' for Active; 'I' for Inactive)
REMARK    1  A    between atoms: O1_2  and  C2_3 
REMARK    2  A    between atoms: C2_3  and  C3_5 
REMARK    3  A    between atoms: C3_5  and  C4_6 
REMARK    4  A    between atoms: C3_5  and  N3_18 
REMARK    5  A    between atoms: C4_6  and  C5_7 
REMARK    6  A    between atoms: C9_11  and  C10_12 
REMARK       I    between atoms: N3_18  and  C12_20 
REMARK    7  A    between atoms: C12_20  and  C13_22 
REMARK    8  A    between atoms: C13_22  and  N4_23 
REMARK    9  A    between atoms: N4_23  and  S1_25 
REMARK   10  A    between atoms: S1_25  and  C14_28 
ROOT
HETATM    1  C3  UNL     1      -0.075  17.454  20.654  1.00  0.00     0.188 C 
ENDROOT
BRANCH   1   2
HETATM    2  C2  UNL     1      -0.773  16.815  21.794  1.00  0.00     0.281 C 
HETATM    3  O2  UNL     1      -1.875  16.262  21.663  1.00  0.00    -0.263 OA
BRANCH   2   4
HETATM    4  O1  UNL     1      -0.180  16.836  23.048  1.00  0.00    -0.325 OA
HETATM    5  C1  UNL     1      -0.872  16.702  24.257  1.00  0.00     0.213 C 
ENDBRANCH   2   4
ENDBRANCH   1   2
BRANCH   1   6
HETATM    6  C4  UNL     1       0.551  16.463  19.703  1.00  0.00     0.074 C 
BRANCH   6   7
HETATM    7  C5  UNL     1      -0.365  15.917  18.702  1.00  0.00    -0.055 A 
HETATM    8  C6  UNL     1      -1.026  16.737  17.815  1.00  0.00     0.007 A 
HETATM    9  C7  UNL     1      -1.891  16.180  16.870  1.00  0.00     0.002 A 
HETATM   10  C8  UNL     1      -2.061  14.816  16.850  1.00  0.00     0.015 A 
HETATM   11  C9  UNL     1      -1.399  13.971  17.742  1.00  0.00     0.005 A 
HETATM   12  C11 UNL     1      -0.554  14.545  18.661  1.00  0.00     0.022 A 
BRANCH  11  13
HETATM   13  C10 UNL     1      -1.649  12.542  17.637  1.00  0.00     0.120 C 
HETATM   14  N1  UNL     1      -1.646  11.925  16.362  1.00  0.00    -0.082 NA
HETATM   15  N2  UNL     1      -1.872  11.831  18.681  1.00  0.00    -0.387 N 
ATOM     16  H22 UNL     1      -1.874  12.276  19.599  1.00  0.00     0.157 HD
ATOM     17  H21 UNL     1      -2.047  10.829  18.607  1.00  0.00     0.157 HD
ENDBRANCH  11  13
ENDBRANCH   6   7
ENDBRANCH   1   6
BRANCH   1  18
HETATM   18  N3  UNL     1       1.013  18.245  21.183  1.00  0.00    -0.346 N 
HETATM   19  C12 UNL     1       0.964  19.640  21.147  1.00  0.00     0.236 C 
HETATM   20  O3  UNL     1      -0.058  20.196  20.637  1.00  0.00    -0.272 OA
ATOM     21  H3  UNL     1       1.825  17.780  21.587  1.00  0.00     0.163 HD
BRANCH  19  22
HETATM   22  C13 UNL     1       2.031  20.512  21.664  1.00  0.00     0.235 C 
BRANCH  22  23
HETATM   23  N4  UNL     1       2.728  21.189  20.614  1.00  0.00    -0.307 N 
ATOM     24  H4  UNL     1       2.545  22.157  20.351  1.00  0.00     0.172 HD
BRANCH  23  25
HETATM   25  S1  UNL     1       3.900  20.204  19.845  1.00  0.00     0.259 S 
HETATM   26  O4  UNL     1       5.284  20.803  19.918  1.00  0.00    -0.201 OA
HETATM   27  O5  UNL     1       3.964  18.896  20.618  1.00  0.00    -0.201 OA
BRANCH  25  28
HETATM   28  C14 UNL     1       3.481  19.908  18.173  1.00  0.00     0.079 A 
HETATM   29  C15 UNL     1       4.189  20.441  17.115  1.00  0.00     0.026 A 
HETATM   30  C16 UNL     1       3.835  20.190  15.801  1.00  0.00     0.008 A 
HETATM   31  C17 UNL     1       2.755  19.394  15.488  1.00  0.00    -0.062 A 
HETATM   32  C18 UNL     1       2.367  19.118  14.069  1.00  0.00     0.048 C 
HETATM   33  C19 UNL     1       2.042  18.856  16.539  1.00  0.00     0.008 A 
HETATM   34  C20 UNL     1       2.396  19.107  17.848  1.00  0.00     0.026 A 
ENDBRANCH  25  28
ENDBRANCH  23  25
ENDBRANCH  22  23
ENDBRANCH  19  22
ENDBRANCH   1  18
TORSDOF 10
ENDMDL
