MODEL 4
REMARK VINA RESULT: -7.471264264      2.872      8.105
REMARK  10 active torsions:
REMARK  status: ('A' for Active; 'I' for Inactive)
REMARK    1  A    between atoms: O1_2  and  C2_3 
REMARK    2  A    between atoms: C2_3  and  C3_5 
REMARK    3  A    between atoms: C3_5  and  C4_6 
REMARK    4  A    between atoms: C3_5  and  N3_18 
REMARK    5  A    between atoms: C4_6  and  C5_7 
REMARK    6  A    between atoms: C9_11  and  C10_12 
REMARK       I    between atoms: N3_18  and  C12_20 
REMARK    7  A    between atoms: C12_20  and  C13_22 
REMARK    8  A    between atoms: C13_22  and  N4_23 
REMARK    9  A    between atoms: N4_23  and  S1_25 
REMARK   10  A    between atoms: S1_25  and  C14_28 
ROOT
HETATM    1  C3  UNL     1       1.237  19.377  16.067  1.00  0.00     0.188 C 
ENDROOT
BRANCH   1   2
HETATM    2  C2  UNL     1       0.025  20.091  15.600  1.00  0.00     0.281 C 
HETATM    3  O2  UNL     1       0.080  20.991  14.749  1.00  0.00    -0.263 OA
BRANCH   2   4
HETATM    4  O1  UNL     1      -1.210  19.745  16.128  1.00  0.00    -0.325 OA
HETATM    5  C1  UNL     1      -2.366  19.524  15.370  1.00  0.00     0.213 C 
ENDBRANCH   2   4
ENDBRANCH   1   2
BRANCH   1   6
HETATM    6  C4  UNL     1       2.179  19.001  14.949  1.00  0.00     0.074 C 
BRANCH   6   7
HETATM    7  C5  UNL     1       3.576  19.365  15.182  1.00  0.00    -0.055 A 
HETATM    8  C6  UNL     1       4.564  19.024  14.285  1.00  0.00     0.007 A 
HETATM    9  C7  UNL     1       5.887  19.391  14.539  1.00  0.00     0.002 A 
HETATM   10  C8  UNL     1       6.172  20.090  15.688  1.00  0.00     0.015 A 
HETATM   11  C9  UNL     1       5.184  20.444  16.607  1.00  0.00     0.005 A 
HETATM   12  C11 UNL     1       3.890  20.070  16.333  1.00  0.00     0.022 A 
BRANCH  11  13
HETATM   13  C10 UNL     1       5.590  21.183  17.792  1.00  0.00     0.120 C 
HETATM   14  N1  UNL     1       5.152  20.752  19.068  1.00  0.00    -0.082 NA
HETATM   15  N2  UNL     1       6.341  22.219  17.701  1.00  0.00    -0.387 N 
ATOM     16  H22 UNL     1       6.657  22.529  16.782  1.00  0.00     0.157 HD
ATOM     17  H21 UNL     1       6.626  22.737  18.532  1.00  0.00     0.157 HD
ENDBRANCH  11  13
ENDBRANCH   6   7
ENDBRANCH   1   6
BRANCH   1  18
HETATM   18  N3  UNL     1       0.817  18.134  16.673  1.00  0.00    -0.346 N 
HETATM   19  C12 UNL     1       1.038  17.891  18.030  1.00  0.00     0.236 C 
HETATM   20  O3  UNL     1       1.618  18.788  18.718  1.00  0.00    -0.272 OA
ATOM     21  H3  UNL     1       0.353  17.426  16.103  1.00  0.00     0.163 HD
BRANCH  19  22
HETATM   22  C13 UNL     1       0.641  16.652  18.717  1.00  0.00     0.235 C 
BRANCH  22  23
HETATM   23  N4  UNL     1      -0.145  16.912  19.883  1.00  0.00    -0.307 N 
ATOM     24  H4  UNL     1       0.142  17.552  20.624  1.00  0.00     0.172 HD
BRANCH  23  25
HETATM   25  S1  UNL     1      -1.618  16.038  19.906  1.00  0.00     0.259 S 
HETATM   26  O4  UNL     1      -1.885  15.405  21.252  1.00  0.00    -0.201 OA
HETATM   27  O5  UNL     1      -2.740  17.040  19.681  1.00  0.00    -0.201 OA
BRANCH  25  28
HETATM   28  C14 UNL     1      -1.643  14.802  18.668  1.00  0.00     0.079 A 
HETATM   29  C15 UNL     1      -1.071  13.557  18.837  1.00  0.00     0.026 A 
HETATM   30  C16 UNL     1      -1.105  12.599  17.840  1.00  0.00     0.008 A 
HETATM   31  C17 UNL     1      -1.713  12.845  16.628  1.00  0.00    -0.062 A 
HETATM   32  C18 UNL     1      -1.753  11.812  15.544  1.00  0.00     0.048 C 
HETATM   33  C19 UNL     1      -2.287  14.086  16.449  1.00  0.00     0.008 A 
HETATM   34  C20 UNL     1      -2.252  15.041  17.445  1.00  0.00     0.026 A 
ENDBRANCH  25  28
ENDBRANCH  23  25
ENDBRANCH  22  23
ENDBRANCH  19  22
ENDBRANCH   1  18
TORSDOF 10
ENDMDL
