MODEL 6
REMARK VINA RESULT: -7.436578896      2.806      3.527
REMARK  10 active torsions:
REMARK  status: ('A' for Active; 'I' for Inactive)
REMARK    1  A    between atoms: O1_2  and  C2_3 
REMARK    2  A    between atoms: C2_3  and  C3_5 
REMARK    3  A    between atoms: C3_5  and  C4_6 
REMARK    4  A    between atoms: C3_5  and  N3_18 
REMARK    5  A    between atoms: C4_6  and  C5_7 
REMARK    6  A    between atoms: C9_11  and  C10_12 
REMARK       I    between atoms: N3_18  and  C12_20 
REMARK    7  A    between atoms: C12_20  and  C13_22 
REMARK    8  A    between atoms: C13_22  and  N4_23 
REMARK    9  A    between atoms: N4_23  and  S1_25 
REMARK   10  A    between atoms: S1_25  and  C14_28 
ROOT
HETATM    1  C3  UNL     1      -2.481  17.319  17.189  1.00  0.00     0.188 C 
ENDROOT
BRANCH   1   2
HETATM    2  C2  UNL     1      -3.571  18.107  16.566  1.00  0.00     0.281 C 
HETATM    3  O2  UNL     1      -3.373  18.841  15.585  1.00  0.00    -0.263 OA
BRANCH   2   4
HETATM    4  O1  UNL     1      -4.851  18.026  17.092  1.00  0.00    -0.325 OA
HETATM    5  C1  UNL     1      -6.015  18.406  16.415  1.00  0.00     0.213 C 
ENDBRANCH   2   4
ENDBRANCH   1   2
BRANCH   1   6
HETATM    6  C4  UNL     1      -2.956  16.411  18.297  1.00  0.00     0.074 C 
BRANCH   6   7
HETATM    7  C5  UNL     1      -2.410  15.055  18.248  1.00  0.00    -0.055 A 
HETATM    8  C6  UNL     1      -1.824  14.481  19.354  1.00  0.00     0.007 A 
HETATM    9  C7  UNL     1      -1.316  13.182  19.273  1.00  0.00     0.002 A 
HETATM   10  C8  UNL     1      -1.416  12.505  18.081  1.00  0.00     0.015 A 
HETATM   11  C9  UNL     1      -2.008  13.072  16.951  1.00  0.00     0.005 A 
HETATM   12  C11 UNL     1      -2.499  14.351  17.059  1.00  0.00     0.022 A 
BRANCH  11  13
HETATM   13  C10 UNL     1      -2.063  12.271  15.738  1.00  0.00     0.120 C 
HETATM   14  N1  UNL     1      -1.309  11.075  15.657  1.00  0.00    -0.082 NA
HETATM   15  N2  UNL     1      -2.785  12.629  14.741  1.00  0.00    -0.387 N 
ATOM     16  H22 UNL     1      -3.328  13.490  14.800  1.00  0.00     0.157 HD
ATOM     17  H21 UNL     1      -2.824  12.067  13.891  1.00  0.00     0.157 HD
ENDBRANCH  11  13
ENDBRANCH   6   7
ENDBRANCH   1   6
BRANCH   1  18
HETATM   18  N3  UNL     1      -1.554  18.245  17.798  1.00  0.00    -0.346 N 
HETATM   19  C12 UNL     1      -0.175  18.063  17.671  1.00  0.00     0.236 C 
HETATM   20  O3  UNL     1       0.243  17.064  17.008  1.00  0.00    -0.272 OA
ATOM     21  H3  UNL     1      -1.910  19.041  18.328  1.00  0.00     0.163 HD
BRANCH  19  22
HETATM   22  C13 UNL     1       0.830  18.961  18.263  1.00  0.00     0.235 C 
BRANCH  22  23
HETATM   23  N4  UNL     1       0.503  19.321  19.607  1.00  0.00    -0.307 N 
ATOM     24  H4  UNL     1      -0.221  19.997  19.849  1.00  0.00     0.172 HD
BRANCH  23  25
HETATM   25  S1  UNL     1       1.454  18.497  20.771  1.00  0.00     0.259 S 
HETATM   26  O4  UNL     1       0.656  18.121  21.996  1.00  0.00    -0.201 OA
HETATM   27  O5  UNL     1       1.902  17.188  20.139  1.00  0.00    -0.201 OA
BRANCH  25  28
HETATM   28  C14 UNL     1       2.839  19.452  21.250  1.00  0.00     0.079 A 
HETATM   29  C15 UNL     1       2.891  20.160  22.433  1.00  0.00     0.026 A 
HETATM   30  C16 UNL     1       4.000  20.908  22.786  1.00  0.00     0.008 A 
HETATM   31  C17 UNL     1       5.107  20.980  21.969  1.00  0.00    -0.062 A 
HETATM   32  C18 UNL     1       6.311  21.787  22.345  1.00  0.00     0.048 C 
HETATM   33  C19 UNL     1       5.065  20.276  20.784  1.00  0.00     0.008 A 
HETATM   34  C20 UNL     1       3.958  19.531  20.433  1.00  0.00     0.026 A 
ENDBRANCH  25  28
ENDBRANCH  23  25
ENDBRANCH  22  23
ENDBRANCH  19  22
ENDBRANCH   1  18
TORSDOF 10
ENDMDL
