MODEL 5
REMARK VINA RESULT: -5.045878169      0.977      1.653
REMARK  1 active torsions:
REMARK  status: ('A' for Active; 'I' for Inactive)
REMARK    1  A    between atoms: C1_2  and  C2_6 
ROOT
HETATM    1  C2  UNL     1      52.841  67.238 -29.425  1.00  0.00     0.004 A 
HETATM    2  C3  UNL     1      53.564  68.079 -28.628  1.00  0.00     0.015 A 
HETATM    3  C4  UNL     1      53.928  69.374 -29.022  1.00  0.00     0.001 A 
HETATM    4  C5  UNL     1      53.536  69.794 -30.255  1.00  0.00     0.000 A 
HETATM    5  C6  UNL     1      52.805  69.002 -31.115  1.00  0.00     0.001 A 
HETATM    6  C7  UNL     1      52.471  67.738 -30.685  1.00  0.00     0.015 A 
ENDROOT
BRANCH   1   7
HETATM    7  C1  UNL     1      52.467  65.908 -29.020  1.00  0.00     0.120 C 
HETATM    8  N1  UNL     1      53.162  65.310 -27.932  1.00  0.00    -0.082 NA
HETATM    9  N2  UNL     1      51.550  65.266 -29.598  1.00  0.00    -0.387 N 
ATOM     10  H22 UNL     1      51.286  64.323 -29.311  1.00  0.00     0.157 HD
ATOM     11  H21 UNL     1      51.053  65.695 -30.379  1.00  0.00     0.157 HD
ENDBRANCH   1   7
TORSDOF 1
ENDMDL
