MODEL 16
REMARK VINA RESULT: -4.337982121      7.214      7.841
REMARK  1 active torsions:
REMARK  status: ('A' for Active; 'I' for Inactive)
REMARK    1  A    between atoms: C1_2  and  C2_6 
ROOT
HETATM    1  C2  UNL     1      49.078  72.661 -27.203  1.00  0.00     0.004 A 
HETATM    2  C3  UNL     1      47.870  72.772 -27.829  1.00  0.00     0.015 A 
HETATM    3  C4  UNL     1      46.653  72.804 -27.134  1.00  0.00     0.001 A 
HETATM    4  C5  UNL     1      46.697  72.720 -25.777  1.00  0.00     0.000 A 
HETATM    5  C6  UNL     1      47.879  72.606 -25.075  1.00  0.00     0.001 A 
HETATM    6  C7  UNL     1      49.047  72.578 -25.800  1.00  0.00     0.015 A 
ENDROOT
BRANCH   1   7
HETATM    7  C1  UNL     1      50.327  72.628 -27.917  1.00  0.00     0.120 C 
HETATM    8  N1  UNL     1      50.967  73.862 -28.222  1.00  0.00    -0.082 NA
HETATM    9  N2  UNL     1      50.865  71.546 -28.275  1.00  0.00    -0.387 N 
ATOM     10  H22 UNL     1      51.751  71.523 -28.782  1.00  0.00     0.157 HD
ATOM     11  H21 UNL     1      50.406  70.662 -28.057  1.00  0.00     0.157 HD
ENDBRANCH   1   7
TORSDOF 1
ENDMDL
