MODEL 17
REMARK VINA RESULT: -4.337552627      7.235      7.749
REMARK  1 active torsions:
REMARK  status: ('A' for Active; 'I' for Inactive)
REMARK    1  A    between atoms: C1_2  and  C2_6 
ROOT
HETATM    1  C2  UNL     1      49.067  72.646 -27.175  1.00  0.00     0.004 A 
HETATM    2  C3  UNL     1      49.050  72.540 -25.813  1.00  0.00     0.015 A 
HETATM    3  C4  UNL     1      47.867  72.574 -25.062  1.00  0.00     0.001 A 
HETATM    4  C5  UNL     1      46.694  72.721 -25.736  1.00  0.00     0.000 A 
HETATM    5  C6  UNL     1      46.631  72.834 -27.109  1.00  0.00     0.001 A 
HETATM    6  C7  UNL     1      47.819  72.796 -27.803  1.00  0.00     0.015 A 
ENDROOT
BRANCH   1   7
HETATM    7  C1  UNL     1      50.281  72.610 -27.945  1.00  0.00     0.120 C 
HETATM    8  N1  UNL     1      50.822  73.839 -28.417  1.00  0.00    -0.082 NA
HETATM    9  N2  UNL     1      50.874  71.531 -28.211  1.00  0.00    -0.387 N 
ATOM     10  H22 UNL     1      51.736  71.506 -28.757  1.00  0.00     0.157 HD
ATOM     11  H21 UNL     1      50.486  70.650 -27.873  1.00  0.00     0.157 HD
ENDBRANCH   1   7
TORSDOF 1
ENDMDL
