MODEL 3
REMARK VINA RESULT: -5.421068896      0.900      1.181
REMARK  1 active torsions:
REMARK  status: ('A' for Active; 'I' for Inactive)
REMARK    1  A    between atoms: C1_2  and  C2_6 
ROOT
HETATM    1  C2  UNL     1      52.992  67.089 -29.253  1.00  0.00     0.004 A 
HETATM    2  C3  UNL     1      53.626  68.040 -28.506  1.00  0.00     0.015 A 
HETATM    3  C4  UNL     1      53.863  69.341 -28.973  1.00  0.00     0.001 A 
HETATM    4  C5  UNL     1      53.437  69.650 -30.227  1.00  0.00     0.000 A 
HETATM    5  C6  UNL     1      52.791  68.742 -31.040  1.00  0.00     0.001 A 
HETATM    6  C7  UNL     1      52.580  67.479 -30.538  1.00  0.00     0.015 A 
ENDROOT
BRANCH   1   7
HETATM    7  C1  UNL     1      52.749  65.754 -28.773  1.00  0.00     0.120 C 
HETATM    8  N1  UNL     1      51.694  65.003 -29.362  1.00  0.00    -0.082 NA
HETATM    9  N2  UNL     1      53.439  65.237 -27.854  1.00  0.00    -0.387 N 
ATOM     10  H22 UNL     1      53.266  64.291 -27.513  1.00  0.00     0.157 HD
ATOM     11  H21 UNL     1      54.195  65.776 -27.431  1.00  0.00     0.157 HD
ENDBRANCH   1   7
TORSDOF 1
ENDMDL
