MODEL 18
REMARK VINA RESULT: -4.159991904      8.256      8.863
REMARK  1 active torsions:
REMARK  status: ('A' for Active; 'I' for Inactive)
REMARK    1  A    between atoms: C1_2  and  C2_6 
ROOT
HETATM    1  C2  UNL     1      49.051  73.628 -25.476  1.00  0.00     0.004 A 
HETATM    2  C3  UNL     1      48.192  72.581 -25.299  1.00  0.00     0.015 A 
HETATM    3  C4  UNL     1      46.816  72.676 -25.549  1.00  0.00     0.001 A 
HETATM    4  C5  UNL     1      46.333  73.870 -25.986  1.00  0.00     0.000 A 
HETATM    5  C6  UNL     1      47.138  74.971 -26.188  1.00  0.00     0.001 A 
HETATM    6  C7  UNL     1      48.482  74.830 -25.929  1.00  0.00     0.015 A 
ENDROOT
BRANCH   1   7
HETATM    7  C1  UNL     1      50.464  73.530 -25.220  1.00  0.00     0.120 C 
HETATM    8  N1  UNL     1      50.924  73.695 -23.884  1.00  0.00    -0.082 NA
HETATM    9  N2  UNL     1      51.296  73.303 -26.138  1.00  0.00    -0.387 N 
ATOM     10  H22 UNL     1      52.298  73.234 -25.956  1.00  0.00     0.157 HD
ATOM     11  H21 UNL     1      50.966  73.185 -27.096  1.00  0.00     0.157 HD
ENDBRANCH   1   7
TORSDOF 1
ENDMDL
