MODEL 1
REMARK VINA RESULT: -5.629142682      0.000      0.000
REMARK  1 active torsions:
REMARK  status: ('A' for Active; 'I' for Inactive)
REMARK    1  A    between atoms: C1_2  and  C2_6 
ROOT
HETATM    1  C2  UNL     1      53.261  67.298 -28.977  1.00  0.00     0.004 A 
HETATM    2  C3  UNL     1      53.807  68.550 -28.960  1.00  0.00     0.015 A 
HETATM    3  C4  UNL     1      53.564  69.499 -29.963  1.00  0.00     0.001 A 
HETATM    4  C5  UNL     1      52.747  69.140 -30.990  1.00  0.00     0.000 A 
HETATM    5  C6  UNL     1      52.160  67.894 -31.075  1.00  0.00     0.001 A 
HETATM    6  C7  UNL     1      52.428  66.996 -30.068  1.00  0.00     0.015 A 
ENDROOT
BRANCH   1   7
HETATM    7  C1  UNL     1      53.510  66.324 -27.947  1.00  0.00     0.120 C 
HETATM    8  N1  UNL     1      52.782  65.102 -27.979  1.00  0.00    -0.082 NA
HETATM    9  N2  UNL     1      54.348  66.522 -27.027  1.00  0.00    -0.387 N 
ATOM     10  H22 UNL     1      54.524  65.831 -26.297  1.00  0.00     0.157 HD
ATOM     11  H21 UNL     1      54.870  67.398 -27.005  1.00  0.00     0.157 HD
ENDBRANCH   1   7
TORSDOF 1
ENDMDL
