MODEL 2
REMARK VINA RESULT: -5.617233671      0.070      1.587
REMARK  1 active torsions:
REMARK  status: ('A' for Active; 'I' for Inactive)
REMARK    1  A    between atoms: C1_2  and  C2_6 
ROOT
HETATM    1  C2  UNL     1      53.251  67.289 -28.987  1.00  0.00     0.004 A 
HETATM    2  C3  UNL     1      52.454  67.041 -30.069  1.00  0.00     0.015 A 
HETATM    3  C4  UNL     1      52.215  67.992 -31.070  1.00  0.00     0.001 A 
HETATM    4  C5  UNL     1      52.809  69.210 -30.942  1.00  0.00     0.000 A 
HETATM    5  C6  UNL     1      53.625  69.533 -29.879  1.00  0.00     0.001 A 
HETATM    6  C7  UNL     1      53.831  68.567 -28.921  1.00  0.00     0.015 A 
ENDROOT
BRANCH   1   7
HETATM    7  C1  UNL     1      53.497  66.312 -27.960  1.00  0.00     0.120 C 
HETATM    8  N1  UNL     1      52.787  65.079 -28.011  1.00  0.00    -0.082 NA
HETATM    9  N2  UNL     1      54.317  66.515 -27.025  1.00  0.00    -0.387 N 
ATOM     10  H22 UNL     1      54.491  65.823 -26.297  1.00  0.00     0.157 HD
ATOM     11  H21 UNL     1      54.826  67.399 -26.989  1.00  0.00     0.157 HD
ENDBRANCH   1   7
TORSDOF 1
ENDMDL
