MODEL 4
REMARK VINA RESULT: -5.414954274      0.905      1.867
REMARK  1 active torsions:
REMARK  status: ('A' for Active; 'I' for Inactive)
REMARK    1  A    between atoms: C1_2  and  C2_6 
ROOT
HETATM    1  C2  UNL     1      52.962  67.066 -29.290  1.00  0.00     0.004 A 
HETATM    2  C3  UNL     1      52.568  67.463 -30.536  1.00  0.00     0.015 A 
HETATM    3  C4  UNL     1      52.801  68.752 -31.033  1.00  0.00     0.001 A 
HETATM    4  C5  UNL     1      53.449  69.635 -30.225  1.00  0.00     0.000 A 
HETATM    5  C6  UNL     1      53.877  69.308 -28.955  1.00  0.00     0.001 A 
HETATM    6  C7  UNL     1      53.625  68.030 -28.511  1.00  0.00     0.015 A 
ENDROOT
BRANCH   1   7
HETATM    7  C1  UNL     1      52.724  65.742 -28.780  1.00  0.00     0.120 C 
HETATM    8  N1  UNL     1      51.663  64.979 -29.343  1.00  0.00    -0.082 NA
HETATM    9  N2  UNL     1      53.422  65.244 -27.858  1.00  0.00    -0.387 N 
ATOM     10  H22 UNL     1      53.253  64.305 -27.496  1.00  0.00     0.157 HD
ATOM     11  H21 UNL     1      54.183  65.791 -27.453  1.00  0.00     0.157 HD
ENDBRANCH   1   7
TORSDOF 1
ENDMDL
