MODEL 3
REMARK VINA RESULT: -7.755343904      2.444      4.734
REMARK  10 active torsions:
REMARK  status: ('A' for Active; 'I' for Inactive)
REMARK    1  A    between atoms: O1_2  and  C2_3 
REMARK    2  A    between atoms: C2_3  and  C3_5 
REMARK    3  A    between atoms: C3_5  and  C4_6 
REMARK    4  A    between atoms: C3_5  and  N3_18 
REMARK    5  A    between atoms: C4_6  and  C5_7 
REMARK    6  A    between atoms: C9_11  and  C10_12 
REMARK       I    between atoms: N3_18  and  C12_20 
REMARK    7  A    between atoms: C12_20  and  C13_22 
REMARK    8  A    between atoms: C13_22  and  N4_23 
REMARK    9  A    between atoms: N4_23  and  S1_25 
REMARK   10  A    between atoms: S1_25  and  C14_28 
ROOT
HETATM    1  C3  UNL     1      -0.719  15.869  18.919  1.00  0.00     0.188 C 
ENDROOT
BRANCH   1   2
HETATM    2  C2  UNL     1      -0.675  14.456  18.477  1.00  0.00     0.281 C 
HETATM    3  O2  UNL     1      -0.168  13.565  19.175  1.00  0.00    -0.263 OA
BRANCH   2   4
HETATM    4  O1  UNL     1      -1.215  14.114  17.246  1.00  0.00    -0.325 OA
HETATM    5  C1  UNL     1      -1.986  12.971  17.005  1.00  0.00     0.213 C 
ENDBRANCH   2   4
ENDBRANCH   1   2
BRANCH   1   6
HETATM    6  C4  UNL     1      -2.046  16.268  19.519  1.00  0.00     0.074 C 
BRANCH   6   7
HETATM    7  C5  UNL     1      -1.946  17.130  20.696  1.00  0.00    -0.055 A 
HETATM    8  C6  UNL     1      -2.161  18.487  20.609  1.00  0.00     0.007 A 
HETATM    9  C7  UNL     1      -2.061  19.279  21.756  1.00  0.00     0.002 A 
HETATM   10  C8  UNL     1      -1.750  18.677  22.951  1.00  0.00     0.015 A 
HETATM   11  C9  UNL     1      -1.530  17.303  23.057  1.00  0.00     0.005 A 
HETATM   12  C11 UNL     1      -1.634  16.548  21.914  1.00  0.00     0.022 A 
BRANCH  11  13
HETATM   13  C10 UNL     1      -1.205  16.765  24.370  1.00  0.00     0.120 C 
HETATM   14  N1  UNL     1       0.133  16.812  24.831  1.00  0.00    -0.082 NA
HETATM   15  N2  UNL     1      -2.111  16.251  25.117  1.00  0.00    -0.387 N 
ATOM     16  H22 UNL     1      -3.075  16.218  24.784  1.00  0.00     0.157 HD
ATOM     17  H21 UNL     1      -1.884  15.874  26.036  1.00  0.00     0.157 HD
ENDBRANCH  11  13
ENDBRANCH   6   7
ENDBRANCH   1   6
BRANCH   1  18
HETATM   18  N3  UNL     1      -0.537  16.706  17.754  1.00  0.00    -0.346 N 
HETATM   19  C12 UNL     1       0.371  17.767  17.773  1.00  0.00     0.236 C 
HETATM   20  O3  UNL     1       1.031  17.979  18.837  1.00  0.00    -0.272 OA
ATOM     21  H3  UNL     1      -1.078  16.520  16.910  1.00  0.00     0.163 HD
BRANCH  19  22
HETATM   22  C13 UNL     1       0.610  18.662  16.629  1.00  0.00     0.235 C 
BRANCH  22  23
HETATM   23  N4  UNL     1       1.829  18.351  15.950  1.00  0.00    -0.307 N 
ATOM     24  H4  UNL     1       2.058  17.420  15.603  1.00  0.00     0.172 HD
BRANCH  23  25
HETATM   25  S1  UNL     1       2.865  19.705  15.779  1.00  0.00     0.259 S 
HETATM   26  O4  UNL     1       2.125  20.931  15.297  1.00  0.00    -0.201 OA
HETATM   27  O5  UNL     1       3.390  20.047  17.164  1.00  0.00    -0.201 OA
BRANCH  25  28
HETATM   28  C14 UNL     1       4.188  19.359  14.689  1.00  0.00     0.079 A 
HETATM   29  C15 UNL     1       4.151  19.658  13.342  1.00  0.00     0.026 A 
HETATM   30  C16 UNL     1       5.213  19.372  12.503  1.00  0.00     0.008 A 
HETATM   31  C17 UNL     1       6.361  18.773  12.975  1.00  0.00    -0.062 A 
HETATM   32  C18 UNL     1       7.514  18.461  12.073  1.00  0.00     0.048 C 
HETATM   33  C19 UNL     1       6.407  18.470  14.320  1.00  0.00     0.008 A 
HETATM   34  C20 UNL     1       5.347  18.756  15.156  1.00  0.00     0.026 A 
ENDBRANCH  25  28
ENDBRANCH  23  25
ENDBRANCH  22  23
ENDBRANCH  19  22
ENDBRANCH   1  18
TORSDOF 10
ENDMDL
