MODEL 1
REMARK VINA RESULT: -8.268218762      0.000      0.000
REMARK  10 active torsions:
REMARK  status: ('A' for Active; 'I' for Inactive)
REMARK    1  A    between atoms: O1_2  and  C2_3 
REMARK    2  A    between atoms: C2_3  and  C3_5 
REMARK    3  A    between atoms: C3_5  and  C4_6 
REMARK    4  A    between atoms: C3_5  and  N3_18 
REMARK    5  A    between atoms: C4_6  and  C5_7 
REMARK    6  A    between atoms: C9_11  and  C10_12 
REMARK       I    between atoms: N3_18  and  C12_20 
REMARK    7  A    between atoms: C12_20  and  C13_22 
REMARK    8  A    between atoms: C13_22  and  N4_23 
REMARK    9  A    between atoms: N4_23  and  S1_25 
REMARK   10  A    between atoms: S1_25  and  C14_28 
ROOT
HETATM    1  C3  UNL     1       0.066  17.146  19.653  1.00  0.00     0.188 C 
ENDROOT
BRANCH   1   2
HETATM    2  C2  UNL     1       0.185  17.630  21.049  1.00  0.00     0.281 C 
HETATM    3  O2  UNL     1       0.479  18.806  21.313  1.00  0.00    -0.263 OA
BRANCH   2   4
HETATM    4  O1  UNL     1      -0.037  16.745  22.094  1.00  0.00    -0.325 OA
HETATM    5  C1  UNL     1      -0.889  16.990  23.176  1.00  0.00     0.213 C 
ENDBRANCH   2   4
ENDBRANCH   1   2
BRANCH   1   6
HETATM    6  C4  UNL     1       0.043  15.641  19.541  1.00  0.00     0.074 C 
BRANCH   6   7
HETATM    7  C5  UNL     1      -0.956  15.116  18.611  1.00  0.00    -0.055 A 
HETATM    8  C6  UNL     1      -2.090  15.833  18.299  1.00  0.00     0.007 A 
HETATM    9  C7  UNL     1      -3.021  15.301  17.404  1.00  0.00     0.002 A 
HETATM   10  C8  UNL     1      -2.779  14.066  16.852  1.00  0.00     0.015 A 
HETATM   11  C9  UNL     1      -1.636  13.326  17.158  1.00  0.00     0.005 A 
HETATM   12  C11 UNL     1      -0.736  13.872  18.041  1.00  0.00     0.022 A 
BRANCH  11  13
HETATM   13  C10 UNL     1      -1.475  12.028  16.520  1.00  0.00     0.120 C 
HETATM   14  N1  UNL     1      -0.431  11.169  16.941  1.00  0.00    -0.082 NA
HETATM   15  N2  UNL     1      -2.265  11.649  15.583  1.00  0.00    -0.387 N 
ATOM     16  H22 UNL     1      -3.017  12.268  15.281  1.00  0.00     0.157 HD
ATOM     17  H21 UNL     1      -2.152  10.739  15.137  1.00  0.00     0.157 HD
ENDBRANCH  11  13
ENDBRANCH   6   7
ENDBRANCH   1   6
BRANCH   1  18
HETATM   18  N3  UNL     1       1.237  17.585  18.928  1.00  0.00    -0.346 N 
HETATM   19  C12 UNL     1       1.111  18.312  17.743  1.00  0.00     0.236 C 
HETATM   20  O3  UNL     1      -0.055  18.577  17.317  1.00  0.00    -0.272 OA
ATOM     21  H3  UNL     1       2.166  17.361  19.286  1.00  0.00     0.163 HD
BRANCH  19  22
HETATM   22  C13 UNL     1       2.254  18.792  16.949  1.00  0.00     0.235 C 
BRANCH  22  23
HETATM   23  N4  UNL     1       2.042  18.624  15.545  1.00  0.00    -0.307 N 
ATOM     24  H4  UNL     1       1.522  17.844  15.144  1.00  0.00     0.172 HD
BRANCH  23  25
HETATM   25  S1  UNL     1       2.750  19.871  14.607  1.00  0.00     0.259 S 
HETATM   26  O4  UNL     1       1.865  20.293  13.458  1.00  0.00    -0.201 OA
HETATM   27  O5  UNL     1       2.884  21.089  15.507  1.00  0.00    -0.201 OA
BRANCH  25  28
HETATM   28  C14 UNL     1       4.314  19.389  13.990  1.00  0.00     0.079 A 
HETATM   29  C15 UNL     1       5.281  18.793  14.773  1.00  0.00     0.026 A 
HETATM   30  C16 UNL     1       6.510  18.423  14.258  1.00  0.00     0.008 A 
HETATM   31  C17 UNL     1       6.827  18.634  12.933  1.00  0.00    -0.062 A 
HETATM   32  C18 UNL     1       8.155  18.235  12.369  1.00  0.00     0.048 C 
HETATM   33  C19 UNL     1       5.867  19.229  12.142  1.00  0.00     0.008 A 
HETATM   34  C20 UNL     1       4.642  19.598  12.657  1.00  0.00     0.026 A 
ENDBRANCH  25  28
ENDBRANCH  23  25
ENDBRANCH  22  23
ENDBRANCH  19  22
ENDBRANCH   1  18
TORSDOF 10
ENDMDL
