MODEL 4
REMARK VINA RESULT: -7.709688650      1.080      1.648
REMARK  10 active torsions:
REMARK  status: ('A' for Active; 'I' for Inactive)
REMARK    1  A    between atoms: O1_2  and  C2_3 
REMARK    2  A    between atoms: C2_3  and  C3_5 
REMARK    3  A    between atoms: C3_5  and  C4_6 
REMARK    4  A    between atoms: C3_5  and  N3_18 
REMARK    5  A    between atoms: C4_6  and  C5_7 
REMARK    6  A    between atoms: C9_11  and  C10_12 
REMARK       I    between atoms: N3_18  and  C12_20 
REMARK    7  A    between atoms: C12_20  and  C13_22 
REMARK    8  A    between atoms: C13_22  and  N4_23 
REMARK    9  A    between atoms: N4_23  and  S1_25 
REMARK   10  A    between atoms: S1_25  and  C14_28 
ROOT
HETATM    1  C3  UNL     1       0.158  17.081  19.542  1.00  0.00     0.188 C 
ENDROOT
BRANCH   1   2
HETATM    2  C2  UNL     1       1.123  17.589  20.546  1.00  0.00     0.281 C 
HETATM    3  O2  UNL     1       0.755  18.038  21.642  1.00  0.00    -0.263 OA
BRANCH   2   4
HETATM    4  O1  UNL     1       2.479  17.564  20.255  1.00  0.00    -0.325 OA
HETATM    5  C1  UNL     1       3.347  18.650  20.415  1.00  0.00     0.213 C 
ENDBRANCH   2   4
ENDBRANCH   1   2
BRANCH   1   6
HETATM    6  C4  UNL     1       0.044  15.576  19.529  1.00  0.00     0.074 C 
BRANCH   6   7
HETATM    7  C5  UNL     1      -0.971  15.050  18.617  1.00  0.00    -0.055 A 
HETATM    8  C6  UNL     1      -2.136  15.742  18.369  1.00  0.00     0.007 A 
HETATM    9  C7  UNL     1      -3.083  15.212  17.489  1.00  0.00     0.002 A 
HETATM   10  C8  UNL     1      -2.824  14.003  16.888  1.00  0.00     0.015 A 
HETATM   11  C9  UNL     1      -1.649  13.289  17.128  1.00  0.00     0.005 A 
HETATM   12  C11 UNL     1      -0.735  13.834  17.998  1.00  0.00     0.022 A 
BRANCH  11  13
HETATM   13  C10 UNL     1      -1.473  12.019  16.442  1.00  0.00     0.120 C 
HETATM   14  N1  UNL     1      -0.405  11.167  16.816  1.00  0.00    -0.082 NA
HETATM   15  N2  UNL     1      -2.270  11.657  15.505  1.00  0.00    -0.387 N 
ATOM     16  H22 UNL     1      -3.038  12.270  15.236  1.00  0.00     0.157 HD
ATOM     17  H21 UNL     1      -2.146  10.766  15.024  1.00  0.00     0.157 HD
ENDBRANCH  11  13
ENDBRANCH   6   7
ENDBRANCH   1   6
BRANCH   1  18
HETATM   18  N3  UNL     1       0.638  17.459  18.232  1.00  0.00    -0.346 N 
HETATM   19  C12 UNL     1       0.146  18.599  17.593  1.00  0.00     0.236 C 
HETATM   20  O3  UNL     1      -0.732  19.295  18.191  1.00  0.00    -0.272 OA
ATOM     21  H3  UNL     1       1.343  16.886  17.768  1.00  0.00     0.163 HD
BRANCH  19  22
HETATM   22  C13 UNL     1       0.584  19.047  16.261  1.00  0.00     0.235 C 
BRANCH  22  23
HETATM   23  N4  UNL     1       1.903  18.594  15.949  1.00  0.00    -0.307 N 
ATOM     24  H4  UNL     1       2.150  17.611  15.840  1.00  0.00     0.172 HD
BRANCH  23  25
HETATM   25  S1  UNL     1       3.028  19.876  15.779  1.00  0.00     0.259 S 
HETATM   26  O4  UNL     1       2.372  21.149  15.298  1.00  0.00    -0.201 OA
HETATM   27  O5  UNL     1       3.576  20.180  17.164  1.00  0.00    -0.201 OA
BRANCH  25  28
HETATM   28  C14 UNL     1       4.324  19.442  14.688  1.00  0.00     0.079 A 
HETATM   29  C15 UNL     1       4.316  19.760  13.345  1.00  0.00     0.026 A 
HETATM   30  C16 UNL     1       5.355  19.404  12.505  1.00  0.00     0.008 A 
HETATM   31  C17 UNL     1       6.452  18.712  12.973  1.00  0.00    -0.062 A 
HETATM   32  C18 UNL     1       7.580  18.324  12.069  1.00  0.00     0.048 C 
HETATM   33  C19 UNL     1       6.470  18.390  14.314  1.00  0.00     0.008 A 
HETATM   34  C20 UNL     1       5.432  18.746  15.150  1.00  0.00     0.026 A 
ENDBRANCH  25  28
ENDBRANCH  23  25
ENDBRANCH  22  23
ENDBRANCH  19  22
ENDBRANCH   1  18
TORSDOF 10
ENDMDL
