MODEL 3
REMARK VINA RESULT: -5.083433410      0.393      1.926
REMARK  1 active torsions:
REMARK  status: ('A' for Active; 'I' for Inactive)
REMARK    1  A    between atoms: C1_2  and  C2_6 
ROOT
HETATM    1  C2  UNL     1      53.252  66.824 -28.895  1.00  0.00     0.004 A 
HETATM    2  C3  UNL     1      52.545  66.515 -30.022  1.00  0.00     0.015 A 
HETATM    3  C4  UNL     1      52.383  67.412 -31.087  1.00  0.00     0.001 A 
HETATM    4  C5  UNL     1      52.960  68.639 -30.975  1.00  0.00     0.000 A 
HETATM    5  C6  UNL     1      53.688  69.022 -29.868  1.00  0.00     0.001 A 
HETATM    6  C7  UNL     1      53.821  68.108 -28.848  1.00  0.00     0.015 A 
ENDROOT
BRANCH   1   7
HETATM    7  C1  UNL     1      53.420  65.903 -27.802  1.00  0.00     0.120 C 
HETATM    8  N1  UNL     1      53.742  66.425 -26.518  1.00  0.00    -0.082 NA
HETATM    9  N2  UNL     1      53.288  64.658 -27.949  1.00  0.00    -0.387 N 
ATOM     10  H22 UNL     1      53.407  64.005 -27.174  1.00  0.00     0.157 HD
ATOM     11  H21 UNL     1      53.057  64.284 -28.870  1.00  0.00     0.157 HD
ENDBRANCH   1   7
TORSDOF 1
ENDMDL
