MODEL 17
REMARK VINA RESULT: -4.425054039      3.780      4.518
REMARK  1 active torsions:
REMARK  status: ('A' for Active; 'I' for Inactive)
REMARK    1  A    between atoms: C1_2  and  C2_6 
ROOT
HETATM    1  C2  UNL     1      51.858  69.747 -30.468  1.00  0.00     0.004 A 
HETATM    2  C3  UNL     1      52.488  70.202 -29.345  1.00  0.00     0.015 A 
HETATM    3  C4  UNL     1      53.344  69.401 -28.576  1.00  0.00     0.001 A 
HETATM    4  C5  UNL     1      53.545  68.118 -28.982  1.00  0.00     0.000 A 
HETATM    5  C6  UNL     1      52.943  67.588 -30.104  1.00  0.00     0.001 A 
HETATM    6  C7  UNL     1      52.111  68.412 -30.827  1.00  0.00     0.015 A 
ENDROOT
BRANCH   1   7
HETATM    7  C1  UNL     1      50.979  70.569 -31.257  1.00  0.00     0.120 C 
HETATM    8  N1  UNL     1      51.396  70.949 -32.563  1.00  0.00    -0.082 NA
HETATM    9  N2  UNL     1      49.860  70.958 -30.827  1.00  0.00    -0.387 N 
ATOM     10  H22 UNL     1      49.237  71.541 -31.386  1.00  0.00     0.157 HD
ATOM     11  H21 UNL     1      49.562  70.686 -29.890  1.00  0.00     0.157 HD
ENDBRANCH   1   7
TORSDOF 1
ENDMDL
