MODEL 1
REMARK VINA RESULT: -5.634646274      0.000      0.000
REMARK  1 active torsions:
REMARK  status: ('A' for Active; 'I' for Inactive)
REMARK    1  A    between atoms: C1_2  and  C2_6 
ROOT
HETATM    1  C2  UNL     1      53.345  67.071 -28.985  1.00  0.00     0.004 A 
HETATM    2  C3  UNL     1      53.891  68.323 -28.967  1.00  0.00     0.015 A 
HETATM    3  C4  UNL     1      53.663  69.267 -29.978  1.00  0.00     0.001 A 
HETATM    4  C5  UNL     1      52.860  68.903 -31.015  1.00  0.00     0.000 A 
HETATM    5  C6  UNL     1      52.274  67.658 -31.102  1.00  0.00     0.001 A 
HETATM    6  C7  UNL     1      52.527  66.765 -30.086  1.00  0.00     0.015 A 
ENDROOT
BRANCH   1   7
HETATM    7  C1  UNL     1      53.580  66.102 -27.948  1.00  0.00     0.120 C 
HETATM    8  N1  UNL     1      52.880  64.865 -28.004  1.00  0.00    -0.082 NA
HETATM    9  N2  UNL     1      54.381  66.318 -27.000  1.00  0.00    -0.387 N 
ATOM     10  H22 UNL     1      54.547  65.631 -26.264  1.00  0.00     0.157 HD
ATOM     11  H21 UNL     1      54.882  67.205 -26.959  1.00  0.00     0.157 HD
ENDBRANCH   1   7
TORSDOF 1
ENDMDL
