MODEL 4
REMARK VINA RESULT: -5.045608948      0.325      1.095
REMARK  1 active torsions:
REMARK  status: ('A' for Active; 'I' for Inactive)
REMARK    1  A    between atoms: C1_2  and  C2_6 
ROOT
HETATM    1  C2  UNL     1      53.266  66.894 -28.914  1.00  0.00     0.004 A 
HETATM    2  C3  UNL     1      53.814  68.144 -28.850  1.00  0.00     0.015 A 
HETATM    3  C4  UNL     1      53.694  69.080 -29.887  1.00  0.00     0.001 A 
HETATM    4  C5  UNL     1      52.998  68.710 -30.996  1.00  0.00     0.000 A 
HETATM    5  C6  UNL     1      52.418  67.467 -31.133  1.00  0.00     0.001 A 
HETATM    6  C7  UNL     1      52.563  66.581 -30.090  1.00  0.00     0.015 A 
ENDROOT
BRANCH   1   7
HETATM    7  C1  UNL     1      53.390  65.933 -27.850  1.00  0.00     0.120 C 
HETATM    8  N1  UNL     1      53.819  66.388 -26.571  1.00  0.00    -0.082 NA
HETATM    9  N2  UNL     1      53.129  64.712 -28.017  1.00  0.00    -0.387 N 
ATOM     10  H22 UNL     1      53.216  64.031 -27.262  1.00  0.00     0.157 HD
ATOM     11  H21 UNL     1      52.821  64.386 -28.933  1.00  0.00     0.157 HD
ENDBRANCH   1   7
TORSDOF 1
ENDMDL
