MODEL 16
REMARK VINA RESULT: -4.433722503      3.792      4.775
REMARK  1 active torsions:
REMARK  status: ('A' for Active; 'I' for Inactive)
REMARK    1  A    between atoms: C1_2  and  C2_6 
ROOT
HETATM    1  C2  UNL     1      51.870  69.737 -30.496  1.00  0.00     0.004 A 
HETATM    2  C3  UNL     1      52.146  68.435 -30.806  1.00  0.00     0.015 A 
HETATM    3  C4  UNL     1      52.968  67.623 -30.014  1.00  0.00     0.001 A 
HETATM    4  C5  UNL     1      53.507  68.171 -28.891  1.00  0.00     0.000 A 
HETATM    5  C6  UNL     1      53.275  69.477 -28.514  1.00  0.00     0.001 A 
HETATM    6  C7  UNL     1      52.461  70.236 -29.323  1.00  0.00     0.015 A 
ENDROOT
BRANCH   1   7
HETATM    7  C1  UNL     1      51.025  70.570 -31.310  1.00  0.00     0.120 C 
HETATM    8  N1  UNL     1      51.481  70.937 -32.607  1.00  0.00    -0.082 NA
HETATM    9  N2  UNL     1      49.903  70.979 -30.909  1.00  0.00    -0.387 N 
ATOM     10  H22 UNL     1      49.305  71.571 -31.486  1.00  0.00     0.157 HD
ATOM     11  H21 UNL     1      49.577  70.717 -29.979  1.00  0.00     0.157 HD
ENDBRANCH   1   7
TORSDOF 1
ENDMDL
