MODEL 2
REMARK VINA RESULT: -5.609107303      0.032      1.586
REMARK  1 active torsions:
REMARK  status: ('A' for Active; 'I' for Inactive)
REMARK    1  A    between atoms: C1_2  and  C2_6 
ROOT
HETATM    1  C2  UNL     1      53.327  67.046 -29.006  1.00  0.00     0.004 A 
HETATM    2  C3  UNL     1      52.545  66.769 -30.091  1.00  0.00     0.015 A 
HETATM    3  C4  UNL     1      52.306  67.698 -31.113  1.00  0.00     0.001 A 
HETATM    4  C5  UNL     1      52.887  68.924 -31.003  1.00  0.00     0.000 A 
HETATM    5  C6  UNL     1      53.688  69.276 -29.937  1.00  0.00     0.001 A 
HETATM    6  C7  UNL     1      53.894  68.331 -28.958  1.00  0.00     0.015 A 
ENDROOT
BRANCH   1   7
HETATM    7  C1  UNL     1      53.572  66.092 -27.957  1.00  0.00     0.120 C 
HETATM    8  N1  UNL     1      52.877  64.850 -27.993  1.00  0.00    -0.082 NA
HETATM    9  N2  UNL     1      54.379  66.322 -27.017  1.00  0.00    -0.387 N 
ATOM     10  H22 UNL     1      54.552  65.646 -26.274  1.00  0.00     0.157 HD
ATOM     11  H21 UNL     1      54.877  67.212 -26.992  1.00  0.00     0.157 HD
ENDBRANCH   1   7
TORSDOF 1
ENDMDL
