MODEL 6
REMARK VINA RESULT: -4.764398048      0.974      2.166
REMARK  1 active torsions:
REMARK  status: ('A' for Active; 'I' for Inactive)
REMARK    1  A    between atoms: C1_2  and  C2_6 
ROOT
HETATM    1  C2  UNL     1      52.877  67.017 -29.476  1.00  0.00     0.004 A 
HETATM    2  C3  UNL     1      52.492  67.508 -30.690  1.00  0.00     0.015 A 
HETATM    3  C4  UNL     1      52.840  68.790 -31.138  1.00  0.00     0.001 A 
HETATM    4  C5  UNL     1      53.596  69.565 -30.313  1.00  0.00     0.000 A 
HETATM    5  C6  UNL     1      54.023  69.137 -29.073  1.00  0.00     0.001 A 
HETATM    6  C7  UNL     1      53.656  67.872 -28.677  1.00  0.00     0.015 A 
ENDROOT
BRANCH   1   7
HETATM    7  C1  UNL     1      52.520  65.700 -29.017  1.00  0.00     0.120 C 
HETATM    8  N1  UNL     1      53.222  65.155 -27.906  1.00  0.00    -0.082 NA
HETATM    9  N2  UNL     1      51.610  65.024 -29.567  1.00  0.00    -0.387 N 
ATOM     10  H22 UNL     1      51.357  64.091 -29.242  1.00  0.00     0.157 HD
ATOM     11  H21 UNL     1      51.107  65.415 -30.364  1.00  0.00     0.157 HD
ENDBRANCH   1   7
TORSDOF 1
ENDMDL
