MODEL 1
REMARK VINA RESULT: -7.895201569      0.000      0.000
REMARK  10 active torsions:
REMARK  status: ('A' for Active; 'I' for Inactive)
REMARK    1  A    between atoms: O1_2  and  C2_3 
REMARK    2  A    between atoms: C2_3  and  C3_5 
REMARK    3  A    between atoms: C3_5  and  C4_6 
REMARK    4  A    between atoms: C3_5  and  N3_18 
REMARK    5  A    between atoms: C4_6  and  C5_7 
REMARK    6  A    between atoms: C9_11  and  C10_12 
REMARK       I    between atoms: N3_18  and  C12_20 
REMARK    7  A    between atoms: C12_20  and  C13_22 
REMARK    8  A    between atoms: C13_22  and  N4_23 
REMARK    9  A    between atoms: N4_23  and  S1_25 
REMARK   10  A    between atoms: S1_25  and  C14_28 
ROOT
HETATM    1  C3  UNL     1       0.441  18.480  20.305  1.00  0.00     0.188 C 
ENDROOT
BRANCH   1   2
HETATM    2  C2  UNL     1       0.683  18.730  21.746  1.00  0.00     0.281 C 
HETATM    3  O2  UNL     1       1.311  19.723  22.144  1.00  0.00    -0.263 OA
BRANCH   2   4
HETATM    4  O1  UNL     1       0.196  17.828  22.680  1.00  0.00    -0.325 OA
HETATM    5  C1  UNL     1      -1.020  17.964  23.358  1.00  0.00     0.213 C 
ENDBRANCH   2   4
ENDBRANCH   1   2
BRANCH   1   6
HETATM    6  C4  UNL     1       0.286  17.017  19.968  1.00  0.00     0.074 C 
BRANCH   6   7
HETATM    7  C5  UNL     1      -0.896  16.699  19.169  1.00  0.00    -0.055 A 
HETATM    8  C6  UNL     1      -2.050  17.443  19.271  1.00  0.00     0.007 A 
HETATM    9  C7  UNL     1      -3.159  17.112  18.489  1.00  0.00     0.002 A 
HETATM   10  C8  UNL     1      -3.069  16.044  17.630  1.00  0.00     0.015 A 
HETATM   11  C9  UNL     1      -1.907  15.279  17.514  1.00  0.00     0.005 A 
HETATM   12  C11 UNL     1      -0.831  15.626  18.295  1.00  0.00     0.022 A 
BRANCH  11  13
HETATM   13  C10 UNL     1      -1.916  14.167  16.576  1.00  0.00     0.120 C 
HETATM   14  N1  UNL     1      -1.058  13.062  16.796  1.00  0.00    -0.082 NA
HETATM   15  N2  UNL     1      -2.688  14.171  15.552  1.00  0.00    -0.387 N 
ATOM     16  H22 UNL     1      -3.305  14.967  15.394  1.00  0.00     0.157 HD
ATOM     17  H21 UNL     1      -2.694  13.391  14.894  1.00  0.00     0.157 HD
ENDBRANCH  11  13
ENDBRANCH   6   7
ENDBRANCH   1   6
BRANCH   1  18
HETATM   18  N3  UNL     1       1.599  18.941  19.572  1.00  0.00    -0.346 N 
HETATM   19  C12 UNL     1       1.453  19.647  18.377  1.00  0.00     0.236 C 
HETATM   20  O3  UNL     1       0.279  19.873  17.949  1.00  0.00    -0.272 OA
ATOM     21  H3  UNL     1       2.534  18.748  19.933  1.00  0.00     0.163 HD
BRANCH  19  22
HETATM   22  C13 UNL     1       2.581  20.147  17.575  1.00  0.00     0.235 C 
BRANCH  22  23
HETATM   23  N4  UNL     1       2.286  20.152  16.176  1.00  0.00    -0.307 N 
ATOM     24  H4  UNL     1       1.714  19.442  15.719  1.00  0.00     0.172 HD
BRANCH  23  25
HETATM   25  S1  UNL     1       2.992  21.476  15.348  1.00  0.00     0.259 S 
HETATM   26  O4  UNL     1       2.100  22.001  14.248  1.00  0.00    -0.201 OA
HETATM   27  O5  UNL     1       3.137  22.608  16.352  1.00  0.00    -0.201 OA
BRANCH  25  28
HETATM   28  C14 UNL     1       4.550  21.047  14.679  1.00  0.00     0.079 A 
HETATM   29  C15 UNL     1       5.527  20.396  15.404  1.00  0.00     0.026 A 
HETATM   30  C16 UNL     1       6.752  20.069  14.849  1.00  0.00     0.008 A 
HETATM   31  C17 UNL     1       7.052  20.380  13.541  1.00  0.00    -0.062 A 
HETATM   32  C18 UNL     1       8.375  20.029  12.933  1.00  0.00     0.048 C 
HETATM   33  C19 UNL     1       6.082  21.030  12.807  1.00  0.00     0.008 A 
HETATM   34  C20 UNL     1       4.862  21.356  13.362  1.00  0.00     0.026 A 
ENDBRANCH  25  28
ENDBRANCH  23  25
ENDBRANCH  22  23
ENDBRANCH  19  22
ENDBRANCH   1  18
TORSDOF 10
ENDMDL
