MODEL 3
REMARK VINA RESULT: -7.630158708      2.432      4.573
REMARK  10 active torsions:
REMARK  status: ('A' for Active; 'I' for Inactive)
REMARK    1  A    between atoms: O1_2  and  C2_3 
REMARK    2  A    between atoms: C2_3  and  C3_5 
REMARK    3  A    between atoms: C3_5  and  C4_6 
REMARK    4  A    between atoms: C3_5  and  N3_18 
REMARK    5  A    between atoms: C4_6  and  C5_7 
REMARK    6  A    between atoms: C9_11  and  C10_12 
REMARK       I    between atoms: N3_18  and  C12_20 
REMARK    7  A    between atoms: C12_20  and  C13_22 
REMARK    8  A    between atoms: C13_22  and  N4_23 
REMARK    9  A    between atoms: N4_23  and  S1_25 
REMARK   10  A    between atoms: S1_25  and  C14_28 
ROOT
HETATM    1  C3  UNL     1      -0.479  17.005  19.374  1.00  0.00     0.188 C 
ENDROOT
BRANCH   1   2
HETATM    2  C2  UNL     1      -0.504  15.623  18.842  1.00  0.00     0.281 C 
HETATM    3  O2  UNL     1      -0.073  14.660  19.494  1.00  0.00    -0.263 OA
BRANCH   2   4
HETATM    4  O1  UNL     1      -1.024  15.394  17.577  1.00  0.00    -0.325 OA
HETATM    5  C1  UNL     1      -1.534  14.167  17.136  1.00  0.00     0.213 C 
ENDBRANCH   2   4
ENDBRANCH   1   2
BRANCH   1   6
HETATM    6  C4  UNL     1      -1.810  17.462  19.919  1.00  0.00     0.074 C 
BRANCH   6   7
HETATM    7  C5  UNL     1      -1.732  18.190  21.185  1.00  0.00    -0.055 A 
HETATM    8  C6  UNL     1      -1.958  19.547  21.244  1.00  0.00     0.007 A 
HETATM    9  C7  UNL     1      -1.879  20.210  22.472  1.00  0.00     0.002 A 
HETATM   10  C8  UNL     1      -1.575  19.483  23.598  1.00  0.00     0.015 A 
HETATM   11  C9  UNL     1      -1.344  18.108  23.555  1.00  0.00     0.005 A 
HETATM   12  C11 UNL     1      -1.428  17.481  22.335  1.00  0.00     0.022 A 
BRANCH  11  13
HETATM   13  C10 UNL     1      -1.029  17.432  24.805  1.00  0.00     0.120 C 
HETATM   14  N1  UNL     1       0.310  17.407  25.266  1.00  0.00    -0.082 NA
HETATM   15  N2  UNL     1      -1.944  16.859  25.497  1.00  0.00    -0.387 N 
ATOM     16  H22 UNL     1      -2.908  16.877  25.164  1.00  0.00     0.157 HD
ATOM     17  H21 UNL     1      -1.723  16.386  26.372  1.00  0.00     0.157 HD
ENDBRANCH  11  13
ENDBRANCH   6   7
ENDBRANCH   1   6
BRANCH   1  18
HETATM   18  N3  UNL     1      -0.164  17.898  18.282  1.00  0.00    -0.346 N 
HETATM   19  C12 UNL     1       0.866  18.833  18.399  1.00  0.00     0.236 C 
HETATM   20  O3  UNL     1       1.518  18.881  19.487  1.00  0.00    -0.272 OA
ATOM     21  H3  UNL     1      -0.700  17.844  17.416  1.00  0.00     0.163 HD
BRANCH  19  22
HETATM   22  C13 UNL     1       1.244  19.775  17.332  1.00  0.00     0.235 C 
BRANCH  22  23
HETATM   23  N4  UNL     1       2.638  20.092  17.365  1.00  0.00    -0.307 N 
ATOM     24  H4  UNL     1       3.315  19.592  17.941  1.00  0.00     0.172 HD
BRANCH  23  25
HETATM   25  S1  UNL     1       3.052  21.398  16.336  1.00  0.00     0.259 S 
HETATM   26  O4  UNL     1       1.908  21.798  15.434  1.00  0.00    -0.201 OA
HETATM   27  O5  UNL     1       3.329  22.600  17.226  1.00  0.00    -0.201 OA
BRANCH  25  28
HETATM   28  C14 UNL     1       4.455  21.019  15.362  1.00  0.00     0.079 A 
HETATM   29  C15 UNL     1       4.574  21.390  14.038  1.00  0.00     0.026 A 
HETATM   30  C16 UNL     1       5.695  21.077  13.292  1.00  0.00     0.008 A 
HETATM   31  C17 UNL     1       6.749  20.377  13.838  1.00  0.00    -0.062 A 
HETATM   32  C18 UNL     1       7.966  20.035  13.036  1.00  0.00     0.048 C 
HETATM   33  C19 UNL     1       6.640  20.002  15.161  1.00  0.00     0.008 A 
HETATM   34  C20 UNL     1       5.520  20.315  15.904  1.00  0.00     0.026 A 
ENDBRANCH  25  28
ENDBRANCH  23  25
ENDBRANCH  22  23
ENDBRANCH  19  22
ENDBRANCH   1  18
TORSDOF 10
ENDMDL
