MODEL 6
REMARK VINA RESULT: -8.315927956      3.948      7.247
REMARK  6 active torsions:
REMARK  status: ('A' for Active; 'I' for Inactive)
REMARK    1  A    between atoms: N4_10  and  C5_11 
REMARK    2  A    between atoms: C5_11  and  C6_12 
REMARK    3  A    between atoms: C6_12  and  C7_13 
REMARK    4  A    between atoms: C7_13  and  C8_14 
REMARK    5  A    between atoms: C8_14  and  C9_15 
REMARK    6  A    between atoms: C9_15  and  P1_18 
ROOT
HETATM    1  N1  UNL     1      74.883  42.023  47.723  1.00  0.00    -0.063 NA
HETATM    2  C1  UNL     1      74.661  41.633  49.076  1.00  0.00     0.196 A 
HETATM    3  N2  UNL     1      74.669  42.512  50.093  1.00  0.00    -0.314 N 
ATOM      4  H2  UNL     1      74.840  43.496  49.884  1.00  0.00     0.170 HD
HETATM    5  C2  UNL     1      74.457  42.148  51.391  1.00  0.00     0.143 A 
HETATM    6  C3  UNL     1      74.224  40.822  51.682  1.00  0.00     0.146 A 
HETATM    7  N3  UNL     1      74.054  40.753  52.993  1.00  0.00    -0.345 N 
ATOM      8  H3  UNL     1      73.863  39.893  53.506  1.00  0.00     0.167 HD
HETATM    9  C4  UNL     1      74.167  41.967  53.556  1.00  0.00     0.185 A 
HETATM   10  N4  UNL     1      74.416  42.825  52.554  1.00  0.00    -0.327 N 
HETATM   11  C10 UNL     1      74.218  39.926  50.629  1.00  0.00     0.278 A 
HETATM   12  O4  UNL     1      74.012  38.722  50.858  1.00  0.00    -0.265 OA
HETATM   13  N5  UNL     1      74.433  40.341  49.373  1.00  0.00    -0.295 N 
ATOM     14  H5  UNL     1      74.422  39.655  48.617  1.00  0.00     0.171 HD
ENDROOT
BRANCH  10  15
HETATM   15  C5  UNL     1      74.614  44.234  52.662  1.00  0.00     0.131 C 
BRANCH  15  16
HETATM   16  C6  UNL     1      73.334  44.994  53.046  1.00  0.00     0.020 C 
BRANCH  16  17
HETATM   17  C7  UNL     1      72.786  45.590  51.788  1.00  0.00     0.008 C 
BRANCH  17  18
HETATM   18  C8  UNL     1      73.757  46.246  50.896  1.00  0.00     0.095 C 
BRANCH  18  19
HETATM   19  C9  UNL     1      73.237  46.948  49.684  1.00  0.00     0.353 C 
HETATM   20  F1  UNL     1      72.909  45.938  48.793  1.00  0.00    -0.191 F 
HETATM   21  F2  UNL     1      71.973  47.449  50.071  1.00  0.00    -0.191 F 
BRANCH  19  22
HETATM   22  P1  UNL     1      74.107  48.325  49.076  1.00  0.00     0.334 P 
HETATM   23  O1  UNL     1      75.612  48.251  48.467  1.00  0.00    -0.636 OA
HETATM   24  O2  UNL     1      74.510  48.918  50.433  1.00  0.00    -0.636 OA
HETATM   25  O3  UNL     1      73.251  49.806  48.853  1.00  0.00    -0.636 OA
ENDBRANCH  19  22
ENDBRANCH  18  19
ENDBRANCH  17  18
ENDBRANCH  16  17
ENDBRANCH  15  16
ENDBRANCH  10  15
TORSDOF 6
ENDMDL
