MODEL 3
REMARK VINA RESULT: -8.644947317      0.780      1.140
REMARK  6 active torsions:
REMARK  status: ('A' for Active; 'I' for Inactive)
REMARK    1  A    between atoms: N4_10  and  C5_11 
REMARK    2  A    between atoms: C5_11  and  C6_12 
REMARK    3  A    between atoms: C6_12  and  C7_13 
REMARK    4  A    between atoms: C7_13  and  C8_14 
REMARK    5  A    between atoms: C8_14  and  C9_15 
REMARK    6  A    between atoms: C9_15  and  P1_18 
ROOT
HETATM    1  N1  UNL     1      76.229  48.347  48.404  1.00  0.00    -0.063 NA
HETATM    2  C1  UNL     1      74.868  48.310  48.824  1.00  0.00     0.196 A 
HETATM    3  N2  UNL     1      74.310  47.219  49.375  1.00  0.00    -0.314 N 
ATOM      4  H2  UNL     1      74.887  46.387  49.497  1.00  0.00     0.170 HD
HETATM    5  C2  UNL     1      73.007  47.174  49.780  1.00  0.00     0.143 A 
HETATM    6  C3  UNL     1      72.221  48.293  49.620  1.00  0.00     0.146 A 
HETATM    7  N3  UNL     1      71.024  47.977  50.089  1.00  0.00    -0.345 N 
ATOM      8  H3  UNL     1      70.224  48.610  50.105  1.00  0.00     0.167 HD
HETATM    9  C4  UNL     1      71.004  46.712  50.540  1.00  0.00     0.185 A 
HETATM   10  N4  UNL     1      72.239  46.223  50.344  1.00  0.00    -0.327 N 
HETATM   11  C10 UNL     1      72.804  49.411  49.052  1.00  0.00     0.278 A 
HETATM   12  O4  UNL     1      72.121  50.437  48.893  1.00  0.00    -0.265 OA
HETATM   13  N5  UNL     1      74.089  49.397  48.672  1.00  0.00    -0.295 N 
ATOM     14  H5  UNL     1      74.491  50.238  48.256  1.00  0.00     0.171 HD
ENDROOT
BRANCH  10  15
HETATM   15  C5  UNL     1      72.703  44.914  50.667  1.00  0.00     0.131 C 
BRANCH  15  16
HETATM   16  C6  UNL     1      73.466  44.856  52.001  1.00  0.00     0.020 C 
BRANCH  16  17
HETATM   17  C7  UNL     1      74.634  43.945  51.796  1.00  0.00     0.008 C 
BRANCH  17  18
HETATM   18  C8  UNL     1      74.565  43.038  50.638  1.00  0.00     0.095 C 
BRANCH  18  19
HETATM   19  C9  UNL     1      75.124  41.661  50.786  1.00  0.00     0.353 C 
HETATM   20  F1  UNL     1      76.196  41.609  49.908  1.00  0.00    -0.191 F 
HETATM   21  F2  UNL     1      75.754  41.661  52.052  1.00  0.00    -0.191 F 
BRANCH  19  22
HETATM   22  P1  UNL     1      74.029  40.311  50.822  1.00  0.00     0.334 P 
HETATM   23  O1  UNL     1      73.906  39.277  52.070  1.00  0.00    -0.636 OA
HETATM   24  O2  UNL     1      74.841  39.375  49.917  1.00  0.00    -0.636 OA
HETATM   25  O3  UNL     1      72.819  40.200  49.599  1.00  0.00    -0.636 OA
ENDBRANCH  19  22
ENDBRANCH  18  19
ENDBRANCH  17  18
ENDBRANCH  16  17
ENDBRANCH  15  16
ENDBRANCH  10  15
TORSDOF 6
ENDMDL
