MODEL 8
REMARK VINA RESULT: -8.200320276      3.944      6.481
REMARK  6 active torsions:
REMARK  status: ('A' for Active; 'I' for Inactive)
REMARK    1  A    between atoms: N4_10  and  C5_11 
REMARK    2  A    between atoms: C5_11  and  C6_12 
REMARK    3  A    between atoms: C6_12  and  C7_13 
REMARK    4  A    between atoms: C7_13  and  C8_14 
REMARK    5  A    between atoms: C8_14  and  C9_15 
REMARK    6  A    between atoms: C9_15  and  P1_18 
ROOT
HETATM    1  N1  UNL     1      72.010  39.283  50.205  1.00  0.00    -0.063 NA
HETATM    2  C1  UNL     1      72.853  40.430  50.274  1.00  0.00     0.196 A 
HETATM    3  N2  UNL     1      72.876  41.246  51.342  1.00  0.00    -0.314 N 
ATOM      4  H2  UNL     1      72.267  41.033  52.131  1.00  0.00     0.170 HD
HETATM    5  C2  UNL     1      73.679  42.348  51.417  1.00  0.00     0.143 A 
HETATM    6  C3  UNL     1      74.507  42.643  50.357  1.00  0.00     0.146 A 
HETATM    7  N3  UNL     1      75.163  43.743  50.692  1.00  0.00    -0.345 N 
ATOM      8  H3  UNL     1      75.854  44.206  50.102  1.00  0.00     0.167 HD
HETATM    9  C4  UNL     1      74.797  44.167  51.913  1.00  0.00     0.185 A 
HETATM   10  N4  UNL     1      73.877  43.294  52.354  1.00  0.00    -0.327 N 
HETATM   11  C10 UNL     1      74.476  41.797  49.263  1.00  0.00     0.278 A 
HETATM   12  O4  UNL     1      75.209  42.037  48.290  1.00  0.00    -0.265 OA
HETATM   13  N5  UNL     1      73.666  40.729  49.244  1.00  0.00    -0.295 N 
ATOM     14  H5  UNL     1      73.665  40.124  48.423  1.00  0.00     0.171 HD
ENDROOT
BRANCH  10  15
HETATM   15  C5  UNL     1      73.194  43.329  53.606  1.00  0.00     0.131 C 
BRANCH  15  16
HETATM   16  C6  UNL     1      72.564  44.698  53.911  1.00  0.00     0.020 C 
BRANCH  16  17
HETATM   17  C7  UNL     1      71.284  44.770  53.139  1.00  0.00     0.008 C 
BRANCH  17  18
HETATM   18  C8  UNL     1      71.114  45.937  52.258  1.00  0.00     0.095 C 
BRANCH  18  19
HETATM   19  C9  UNL     1      71.436  45.779  50.808  1.00  0.00     0.353 C 
HETATM   20  F1  UNL     1      71.579  44.413  50.616  1.00  0.00    -0.191 F 
HETATM   21  F2  UNL     1      70.225  46.065  50.136  1.00  0.00    -0.191 F 
BRANCH  19  22
HETATM   22  P1  UNL     1      72.615  46.834  50.090  1.00  0.00     0.334 P 
HETATM   23  O1  UNL     1      72.268  47.943  48.953  1.00  0.00    -0.636 OA
HETATM   24  O2  UNL     1      73.238  45.810  49.131  1.00  0.00    -0.636 OA
HETATM   25  O3  UNL     1      74.189  46.909  50.792  1.00  0.00    -0.636 OA
ENDBRANCH  19  22
ENDBRANCH  18  19
ENDBRANCH  17  18
ENDBRANCH  16  17
ENDBRANCH  15  16
ENDBRANCH  10  15
TORSDOF 6
ENDMDL
