MODEL 2
REMARK VINA RESULT: -8.713963298      1.196      1.436
REMARK  6 active torsions:
REMARK  status: ('A' for Active; 'I' for Inactive)
REMARK    1  A    between atoms: N4_10  and  C5_11 
REMARK    2  A    between atoms: C5_11  and  C6_12 
REMARK    3  A    between atoms: C6_12  and  C7_13 
REMARK    4  A    between atoms: C7_13  and  C8_14 
REMARK    5  A    between atoms: C8_14  and  C9_15 
REMARK    6  A    between atoms: C9_15  and  P1_18 
ROOT
HETATM    1  N1  UNL     1      76.361  48.255  48.460  1.00  0.00    -0.063 NA
HETATM    2  C1  UNL     1      74.990  48.264  48.850  1.00  0.00     0.196 A 
HETATM    3  N2  UNL     1      74.399  47.211  49.440  1.00  0.00    -0.314 N 
ATOM      4  H2  UNL     1      74.957  46.376  49.616  1.00  0.00     0.170 HD
HETATM    5  C2  UNL     1      73.087  47.210  49.816  1.00  0.00     0.143 A 
HETATM    6  C3  UNL     1      72.326  48.334  49.584  1.00  0.00     0.146 A 
HETATM    7  N3  UNL     1      71.113  48.063  50.039  1.00  0.00    -0.345 N 
ATOM      8  H3  UNL     1      70.326  48.710  50.006  1.00  0.00     0.167 HD
HETATM    9  C4  UNL     1      71.059  46.822  50.551  1.00  0.00     0.185 A 
HETATM   10  N4  UNL     1      72.288  46.303  50.408  1.00  0.00    -0.327 N 
HETATM   11  C10 UNL     1      72.943  49.412  48.975  1.00  0.00     0.278 A 
HETATM   12  O4  UNL     1      72.284  50.441  48.750  1.00  0.00    -0.265 OA
HETATM   13  N5  UNL     1      74.236  49.356  48.627  1.00  0.00    -0.295 N 
ATOM     14  H5  UNL     1      74.663  50.168  48.180  1.00  0.00     0.171 HD
ENDROOT
BRANCH  10  15
HETATM   15  C5  UNL     1      72.720  45.002  50.805  1.00  0.00     0.131 C 
BRANCH  15  16
HETATM   16  C6  UNL     1      73.065  44.912  52.301  1.00  0.00     0.020 C 
BRANCH  16  17
HETATM   17  C7  UNL     1      74.443  44.338  52.397  1.00  0.00     0.008 C 
BRANCH  17  18
HETATM   18  C8  UNL     1      74.935  43.611  51.215  1.00  0.00     0.095 C 
BRANCH  18  19
HETATM   19  C9  UNL     1      74.893  42.118  51.238  1.00  0.00     0.353 C 
HETATM   20  F1  UNL     1      75.804  41.745  52.214  1.00  0.00    -0.191 F 
HETATM   21  F2  UNL     1      73.650  41.800  51.830  1.00  0.00    -0.191 F 
BRANCH  19  22
HETATM   22  P1  UNL     1      74.913  41.255  49.729  1.00  0.00     0.334 P 
HETATM   23  O1  UNL     1      75.152  41.960  48.284  1.00  0.00    -0.636 OA
HETATM   24  O2  UNL     1      73.395  41.089  49.577  1.00  0.00    -0.636 OA
HETATM   25  O3  UNL     1      74.947  39.531  49.767  1.00  0.00    -0.636 OA
ENDBRANCH  19  22
ENDBRANCH  18  19
ENDBRANCH  17  18
ENDBRANCH  16  17
ENDBRANCH  15  16
ENDBRANCH  10  15
TORSDOF 6
ENDMDL
