MODEL 1
REMARK VINA RESULT: -8.763430968      0.000      0.000
REMARK  6 active torsions:
REMARK  status: ('A' for Active; 'I' for Inactive)
REMARK    1  A    between atoms: N4_10  and  C5_11 
REMARK    2  A    between atoms: C5_11  and  C6_12 
REMARK    3  A    between atoms: C6_12  and  C7_13 
REMARK    4  A    between atoms: C7_13  and  C8_14 
REMARK    5  A    between atoms: C8_14  and  C9_15 
REMARK    6  A    between atoms: C9_15  and  P1_18 
ROOT
HETATM    1  N1  UNL     1      76.412  48.410  48.361  1.00  0.00    -0.063 NA
HETATM    2  C1  UNL     1      75.059  48.294  48.797  1.00  0.00     0.196 A 
HETATM    3  N2  UNL     1      74.597  47.208  49.438  1.00  0.00    -0.314 N 
ATOM      4  H2  UNL     1      75.241  46.438  49.617  1.00  0.00     0.170 HD
HETATM    5  C2  UNL     1      73.304  47.088  49.859  1.00  0.00     0.143 A 
HETATM    6  C3  UNL     1      72.427  48.122  49.621  1.00  0.00     0.146 A 
HETATM    7  N3  UNL     1      71.262  47.747  50.126  1.00  0.00    -0.345 N 
ATOM      8  H3  UNL     1      70.413  48.311  50.102  1.00  0.00     0.167 HD
HETATM    9  C4  UNL     1      71.350  46.524  50.675  1.00  0.00     0.185 A 
HETATM   10  N4  UNL     1      72.620  46.124  50.504  1.00  0.00    -0.327 N 
HETATM   11  C10 UNL     1      72.913  49.237  48.961  1.00  0.00     0.278 A 
HETATM   12  O4  UNL     1      72.146  50.187  48.730  1.00  0.00    -0.265 OA
HETATM   13  N5  UNL     1      74.193  49.299  48.570  1.00  0.00    -0.295 N 
ATOM     14  H5  UNL     1      74.521  50.134  48.085  1.00  0.00     0.171 HD
ENDROOT
BRANCH  10  15
HETATM   15  C5  UNL     1      73.192  44.886  50.923  1.00  0.00     0.131 C 
BRANCH  15  16
HETATM   16  C6  UNL     1      73.983  45.002  52.236  1.00  0.00     0.020 C 
BRANCH  16  17
HETATM   17  C7  UNL     1      73.958  43.652  52.880  1.00  0.00     0.008 C 
BRANCH  17  18
HETATM   18  C8  UNL     1      73.428  42.546  52.066  1.00  0.00     0.095 C 
BRANCH  18  19
HETATM   19  C9  UNL     1      74.373  41.473  51.633  1.00  0.00     0.353 C 
HETATM   20  F1  UNL     1      75.448  42.143  51.069  1.00  0.00    -0.191 F 
HETATM   21  F2  UNL     1      74.916  40.963  52.835  1.00  0.00    -0.191 F 
BRANCH  19  22
HETATM   22  P1  UNL     1      73.742  40.088  50.794  1.00  0.00     0.334 P 
HETATM   23  O1  UNL     1      72.157  39.822  50.546  1.00  0.00    -0.636 OA
HETATM   24  O2  UNL     1      73.896  39.077  51.939  1.00  0.00    -0.636 OA
HETATM   25  O3  UNL     1      74.843  39.068  49.945  1.00  0.00    -0.636 OA
ENDBRANCH  19  22
ENDBRANCH  18  19
ENDBRANCH  17  18
ENDBRANCH  16  17
ENDBRANCH  15  16
ENDBRANCH  10  15
TORSDOF 6
ENDMDL
