MODEL 7
REMARK VINA RESULT: -8.251153218      4.133      6.825
REMARK  6 active torsions:
REMARK  status: ('A' for Active; 'I' for Inactive)
REMARK    1  A    between atoms: N4_10  and  C5_11 
REMARK    2  A    between atoms: C5_11  and  C6_12 
REMARK    3  A    between atoms: C6_12  and  C7_13 
REMARK    4  A    between atoms: C7_13  and  C8_14 
REMARK    5  A    between atoms: C8_14  and  C9_15 
REMARK    6  A    between atoms: C9_15  and  P1_18 
ROOT
HETATM    1  N1  UNL     1      74.791  42.047  47.688  1.00  0.00    -0.063 NA
HETATM    2  C1  UNL     1      74.604  41.646  49.043  1.00  0.00     0.196 A 
HETATM    3  N2  UNL     1      74.464  42.530  50.046  1.00  0.00    -0.314 N 
ATOM      4  H2  UNL     1      74.492  43.525  49.825  1.00  0.00     0.170 HD
HETATM    5  C2  UNL     1      74.285  42.155  51.346  1.00  0.00     0.143 A 
HETATM    6  C3  UNL     1      74.246  40.813  51.654  1.00  0.00     0.146 A 
HETATM    7  N3  UNL     1      74.065  40.737  52.963  1.00  0.00    -0.345 N 
ATOM      8  H3  UNL     1      73.994  39.864  53.486  1.00  0.00     0.167 HD
HETATM    9  C4  UNL     1      73.987  41.962  53.509  1.00  0.00     0.185 A 
HETATM   10  N4  UNL     1      74.125  42.834  52.498  1.00  0.00    -0.327 N 
HETATM   11  C10 UNL     1      74.391  39.912  50.614  1.00  0.00     0.278 A 
HETATM   12  O4  UNL     1      74.361  38.694  50.859  1.00  0.00    -0.265 OA
HETATM   13  N5  UNL     1      74.564  40.338  49.356  1.00  0.00    -0.295 N 
ATOM     14  H5  UNL     1      74.669  39.649  48.611  1.00  0.00     0.171 HD
ENDROOT
BRANCH  10  15
HETATM   15  C5  UNL     1      74.110  44.257  52.587  1.00  0.00     0.131 C 
BRANCH  15  16
HETATM   16  C6  UNL     1      73.216  44.781  53.722  1.00  0.00     0.020 C 
BRANCH  16  17
HETATM   17  C7  UNL     1      71.905  45.158  53.107  1.00  0.00     0.008 C 
BRANCH  17  18
HETATM   18  C8  UNL     1      71.775  44.942  51.657  1.00  0.00     0.095 C 
BRANCH  18  19
HETATM   19  C9  UNL     1      71.342  46.093  50.809  1.00  0.00     0.353 C 
HETATM   20  F1  UNL     1      70.316  45.596  50.020  1.00  0.00    -0.191 F 
HETATM   21  F2  UNL     1      70.665  46.961  51.696  1.00  0.00    -0.191 F 
BRANCH  19  22
HETATM   22  P1  UNL     1      72.557  47.076  50.047  1.00  0.00     0.334 P 
HETATM   23  O1  UNL     1      72.229  48.250  48.971  1.00  0.00    -0.636 OA
HETATM   24  O2  UNL     1      73.030  46.041  49.017  1.00  0.00    -0.636 OA
HETATM   25  O3  UNL     1      74.172  46.999  50.645  1.00  0.00    -0.636 OA
ENDBRANCH  19  22
ENDBRANCH  18  19
ENDBRANCH  17  18
ENDBRANCH  16  17
ENDBRANCH  15  16
ENDBRANCH  10  15
TORSDOF 6
ENDMDL
