MODEL 1
REMARK VINA RESULT: -9.457229478      0.000      0.000
REMARK  8 active torsions:
REMARK  status: ('A' for Active; 'I' for Inactive)
REMARK    1  A    between atoms: C2_2  and  O1_3 
REMARK    2  A    between atoms: C2_2  and  C3_5 
REMARK    3  A    between atoms: C3_5  and  C4_6 
REMARK    4  A    between atoms: C3_5  and  N1_19 
REMARK    5  A    between atoms: C4_6  and  C5_7 
REMARK    6  A    between atoms: C5_7  and  O2_8 
REMARK    7  A    between atoms: O2_8  and  C6_9 
REMARK    8  A    between atoms: C17_23  and  C18_24 
ROOT
HETATM    1  C3  UNL     1      48.401  50.100  16.381  1.00  0.00     0.120 C 
ENDROOT
BRANCH   1   2
HETATM    2  C2  UNL     1      48.232  49.090  15.284  1.00  0.00     0.137 C 
HETATM    3  C1  UNL     1      49.504  48.935  14.485  1.00  0.00     0.041 C 
BRANCH   2   4
HETATM    4  O1  UNL     1      47.210  49.538  14.452  1.00  0.00    -0.394 OA
ATOM      5  H1  UNL     1      46.413  49.650  14.957  1.00  0.00     0.210 HD
ENDBRANCH   2   4
ENDBRANCH   1   2
BRANCH   1   6
HETATM    6  C4  UNL     1      47.082  50.746  16.771  1.00  0.00     0.055 C 
BRANCH   6   7
HETATM    7  C5  UNL     1      47.261  52.194  17.104  1.00  0.00     0.178 C 
BRANCH   7   8
HETATM    8  O2  UNL     1      48.183  52.387  18.086  1.00  0.00    -0.351 OA
BRANCH   8   9
HETATM    9  C6  UNL     1      48.433  53.380  18.963  1.00  0.00     0.069 A 
HETATM   10  C7  UNL     1      49.626  53.284  19.677  1.00  0.00     0.037 A 
HETATM   11  C8  UNL     1      49.975  54.224  20.578  1.00  0.00     0.015 A 
HETATM   12  C9  UNL     1      49.143  55.293  20.795  1.00  0.00    -0.026 A 
HETATM   13  C10 UNL     1      49.525  56.242  21.726  1.00  0.00     0.012 A 
HETATM   14  C14 UNL     1      47.970  55.402  20.103  1.00  0.00    -0.023 A 
HETATM   15  C11 UNL     1      48.704  57.306  21.946  1.00  0.00     0.001 A 
HETATM   16  C12 UNL     1      47.506  57.440  21.256  1.00  0.00     0.001 A 
HETATM   17  C13 UNL     1      47.143  56.486  20.335  1.00  0.00     0.012 A 
HETATM   18  C15 UNL     1      47.582  54.443  19.163  1.00  0.00     0.049 A 
ENDBRANCH   8   9
ENDBRANCH   7   8
ENDBRANCH   6   7
ENDBRANCH   1   6
BRANCH   1  19
HETATM   19  N1  UNL     1      48.982  49.535  17.568  1.00  0.00    -0.343 N 
HETATM   20  C16 UNL     1      48.557  48.510  18.331  1.00  0.00     0.183 A 
HETATM   21  N2  UNL     1      49.411  48.316  19.352  1.00  0.00    -0.347 N 
HETATM   22  C17 UNL     1      50.403  49.222  19.259  1.00  0.00     0.114 A 
ATOM     23  H2  UNL     1      49.322  47.603  20.077  1.00  0.00     0.167 HD
HETATM   24  C19 UNL     1      50.118  49.967  18.146  1.00  0.00     0.127 A 
BRANCH  22  25
HETATM   25  C18 UNL     1      51.535  49.349  20.179  1.00  0.00     0.282 C 
HETATM   26  N3  UNL     1      51.387  50.239  21.282  1.00  0.00    -0.056 NA
HETATM   27  O3  UNL     1      52.578  48.691  19.982  1.00  0.00    -0.269 OA
ENDBRANCH  22  25
ENDBRANCH   1  19
TORSDOF 8
ENDMDL
