MODEL 3
REMARK VINA RESULT: -9.145829600      1.717      4.026
REMARK  8 active torsions:
REMARK  status: ('A' for Active; 'I' for Inactive)
REMARK    1  A    between atoms: C2_2  and  O1_3 
REMARK    2  A    between atoms: C2_2  and  C3_5 
REMARK    3  A    between atoms: C3_5  and  C4_6 
REMARK    4  A    between atoms: C3_5  and  N1_19 
REMARK    5  A    between atoms: C4_6  and  C5_7 
REMARK    6  A    between atoms: C5_7  and  O2_8 
REMARK    7  A    between atoms: O2_8  and  C6_9 
REMARK    8  A    between atoms: C17_23  and  C18_24 
ROOT
HETATM    1  C3  UNL     1      50.024  50.358  19.839  1.00  0.00     0.120 C 
ENDROOT
BRANCH   1   2
HETATM    2  C2  UNL     1      50.169  50.198  21.324  1.00  0.00     0.137 C 
HETATM    3  C1  UNL     1      49.830  51.481  22.045  1.00  0.00     0.041 C 
BRANCH   2   4
HETATM    4  O1  UNL     1      51.491  49.851  21.584  1.00  0.00    -0.394 OA
ATOM      5  H1  UNL     1      51.806  49.265  20.906  1.00  0.00     0.210 HD
ENDBRANCH   2   4
ENDBRANCH   1   2
BRANCH   1   6
HETATM    6  C4  UNL     1      51.371  50.477  19.144  1.00  0.00     0.055 C 
BRANCH   6   7
HETATM    7  C5  UNL     1      51.627  51.878  18.687  1.00  0.00     0.178 C 
BRANCH   7   8
HETATM    8  O2  UNL     1      50.483  52.611  18.604  1.00  0.00    -0.351 OA
BRANCH   8   9
HETATM    9  C6  UNL     1      49.992  53.671  19.277  1.00  0.00     0.069 A 
HETATM   10  C7  UNL     1      50.870  54.302  20.157  1.00  0.00     0.037 A 
HETATM   11  C8  UNL     1      50.483  55.372  20.879  1.00  0.00     0.015 A 
HETATM   12  C9  UNL     1      49.204  55.849  20.746  1.00  0.00    -0.026 A 
HETATM   13  C10 UNL     1      48.833  56.948  21.499  1.00  0.00     0.012 A 
HETATM   14  C14 UNL     1      48.330  55.243  19.887  1.00  0.00    -0.023 A 
HETATM   15  C11 UNL     1      47.564  57.427  21.372  1.00  0.00     0.001 A 
HETATM   16  C12 UNL     1      46.657  56.829  20.506  1.00  0.00     0.001 A 
HETATM   17  C13 UNL     1      47.045  55.737  19.766  1.00  0.00     0.012 A 
HETATM   18  C15 UNL     1      48.704  54.131  19.127  1.00  0.00     0.049 A 
ENDBRANCH   8   9
ENDBRANCH   7   8
ENDBRANCH   6   7
ENDBRANCH   1   6
BRANCH   1  19
HETATM   19  N1  UNL     1      49.311  49.268  19.231  1.00  0.00    -0.343 N 
HETATM   20  C16 UNL     1      48.885  48.110  19.771  1.00  0.00     0.183 A 
HETATM   21  N2  UNL     1      48.256  47.375  18.835  1.00  0.00    -0.347 N 
HETATM   22  C17 UNL     1      48.270  48.056  17.674  1.00  0.00     0.114 A 
ATOM     23  H2  UNL     1      47.838  46.456  18.982  1.00  0.00     0.167 HD
HETATM   24  C19 UNL     1      48.928  49.227  17.942  1.00  0.00     0.127 A 
BRANCH  22  25
HETATM   25  C18 UNL     1      47.688  47.603  16.410  1.00  0.00     0.282 C 
HETATM   26  N3  UNL     1      46.591  46.697  16.480  1.00  0.00    -0.056 NA
HETATM   27  O3  UNL     1      48.155  48.011  15.325  1.00  0.00    -0.269 OA
ENDBRANCH  22  25
ENDBRANCH   1  19
TORSDOF 8
ENDMDL
