MODEL 2
REMARK VINA RESULT: -9.331681268      0.479      1.431
REMARK  8 active torsions:
REMARK  status: ('A' for Active; 'I' for Inactive)
REMARK    1  A    between atoms: C2_2  and  O1_3 
REMARK    2  A    between atoms: C2_2  and  C3_5 
REMARK    3  A    between atoms: C3_5  and  C4_6 
REMARK    4  A    between atoms: C3_5  and  N1_19 
REMARK    5  A    between atoms: C4_6  and  C5_7 
REMARK    6  A    between atoms: C5_7  and  O2_8 
REMARK    7  A    between atoms: O2_8  and  C6_9 
REMARK    8  A    between atoms: C17_23  and  C18_24 
ROOT
HETATM    1  C3  UNL     1      48.347  50.157  16.427  1.00  0.00     0.120 C 
ENDROOT
BRANCH   1   2
HETATM    2  C2  UNL     1      48.097  49.146  15.347  1.00  0.00     0.137 C 
HETATM    3  C1  UNL     1      49.348  48.891  14.540  1.00  0.00     0.041 C 
BRANCH   2   4
HETATM    4  O1  UNL     1      47.101  49.652  14.517  1.00  0.00    -0.394 OA
ATOM      5  H1  UNL     1      47.090  50.600  14.574  1.00  0.00     0.210 HD
ENDBRANCH   2   4
ENDBRANCH   1   2
BRANCH   1   6
HETATM    6  C4  UNL     1      47.072  50.867  16.851  1.00  0.00     0.055 C 
BRANCH   6   7
HETATM    7  C5  UNL     1      47.276  52.346  16.946  1.00  0.00     0.178 C 
BRANCH   7   8
HETATM    8  O2  UNL     1      48.017  52.696  18.032  1.00  0.00    -0.351 OA
BRANCH   8   9
HETATM    9  C6  UNL     1      48.044  53.767  18.850  1.00  0.00     0.069 A 
HETATM   10  C7  UNL     1      46.967  54.647  18.747  1.00  0.00     0.037 A 
HETATM   11  C8  UNL     1      46.893  55.749  19.519  1.00  0.00     0.015 A 
HETATM   12  C9  UNL     1      47.893  56.010  20.421  1.00  0.00    -0.026 A 
HETATM   13  C10 UNL     1      47.792  57.149  21.200  1.00  0.00     0.012 A 
HETATM   14  C14 UNL     1      48.955  55.158  20.535  1.00  0.00    -0.023 A 
HETATM   15  C11 UNL     1      48.780  57.414  22.098  1.00  0.00     0.001 A 
HETATM   16  C12 UNL     1      49.871  56.564  22.233  1.00  0.00     0.001 A 
HETATM   17  C13 UNL     1      49.954  55.437  21.449  1.00  0.00     0.012 A 
HETATM   18  C15 UNL     1      49.059  54.008  19.748  1.00  0.00     0.049 A 
ENDBRANCH   8   9
ENDBRANCH   7   8
ENDBRANCH   6   7
ENDBRANCH   1   6
BRANCH   1  19
HETATM   19  N1  UNL     1      48.939  49.578  17.601  1.00  0.00    -0.343 N 
HETATM   20  C16 UNL     1      48.526  48.539  18.351  1.00  0.00     0.183 A 
HETATM   21  N2  UNL     1      49.388  48.336  19.364  1.00  0.00    -0.347 N 
HETATM   22  C17 UNL     1      50.373  49.249  19.279  1.00  0.00     0.114 A 
ATOM     23  H2  UNL     1      49.308  47.611  20.078  1.00  0.00     0.167 HD
HETATM   24  C19 UNL     1      50.077  50.009  18.179  1.00  0.00     0.127 A 
BRANCH  22  25
HETATM   25  C18 UNL     1      51.510  49.369  20.193  1.00  0.00     0.282 C 
HETATM   26  N3  UNL     1      51.354  50.221  21.324  1.00  0.00    -0.056 NA
HETATM   27  O3  UNL     1      52.564  48.738  19.966  1.00  0.00    -0.269 OA
ENDBRANCH  22  25
ENDBRANCH   1  19
TORSDOF 8
ENDMDL
