MODEL 1
REMARK VINA RESULT: -8.846853744      0.000      0.000
REMARK  10 active torsions:
REMARK  status: ('A' for Active; 'I' for Inactive)
REMARK    1  A    between atoms: N5_13  and  C6_14 
REMARK    2  A    between atoms: C7_16  and  C8_17 
REMARK    3  A    between atoms: C8_17  and  O2_18 
REMARK    4  A    between atoms: O2_18  and  P1_19 
REMARK    5  A    between atoms: P1_19  and  O5_22 
REMARK    6  A    between atoms: O5_22  and  P2_23 
REMARK    7  A    between atoms: P2_23  and  O8_26 
REMARK    8  A    between atoms: O8_26  and  P3_27 
REMARK    9  A    between atoms: C9_31  and  O12_32 
REMARK   10  A    between atoms: C10_34  and  O13_35 
ROOT
HETATM    1  C6  UNL     1     -37.600  74.654  99.448  1.00  0.00     0.159 C 
HETATM    2  O1  UNL     1     -38.337  73.470  99.271  1.00  0.00    -0.326 OA
HETATM    3  C7  UNL     1     -38.443  73.004 100.516  1.00  0.00     0.186 C 
HETATM    4  C9  UNL     1     -37.912  73.989 101.566  1.00  0.00     0.186 C 
HETATM    5  C10 UNL     1     -38.156  75.251 100.690  1.00  0.00     0.224 C 
ENDROOT
BRANCH   3   6
HETATM    6  C8  UNL     1     -39.644  72.401 101.123  1.00  0.00     0.216 C 
BRANCH   6   7
HETATM    7  O2  UNL     1     -39.296  71.150 101.693  1.00  0.00    -0.287 OA
BRANCH   7   8
HETATM    8  P1  UNL     1     -40.211  71.194 103.178  1.00  0.00     0.417 P 
HETATM    9  O3  UNL     1     -40.372  69.852 103.685  1.00  0.00    -0.624 OA
HETATM   10  O4  UNL     1     -39.094  72.121 104.204  1.00  0.00    -0.624 OA
BRANCH   8  11
HETATM   11  O5  UNL     1     -41.573  72.154 103.052  1.00  0.00    -0.180 OA
BRANCH  11  12
HETATM   12  P2  UNL     1     -42.947  71.110 102.847  1.00  0.00     0.428 P 
HETATM   13  O6  UNL     1     -43.113  70.387 104.151  1.00  0.00    -0.624 OA
HETATM   14  O7  UNL     1     -42.784  70.073 101.558  1.00  0.00    -0.624 OA
BRANCH  12  15
HETATM   15  O8  UNL     1     -44.296  72.142 102.631  1.00  0.00    -0.173 OA
BRANCH  15  16
HETATM   16  P3  UNL     1     -43.965  73.248 101.415  1.00  0.00     0.431 P 
HETATM   17  O9  UNL     1     -42.988  72.740 100.413  1.00  0.00    -0.616 OA
HETATM   18  O10 UNL     1     -45.433  73.588 100.627  1.00  0.00    -0.616 OA
HETATM   19  O11 UNL     1     -43.361  74.648 102.161  1.00  0.00    -0.616 OA
ENDBRANCH  15  16
ENDBRANCH  12  15
ENDBRANCH  11  12
ENDBRANCH   8  11
ENDBRANCH   7   8
ENDBRANCH   6   7
ENDBRANCH   3   6
BRANCH   4  20
HETATM   20  O12 UNL     1     -36.583  73.766 101.735  1.00  0.00    -0.390 OA
ATOM     21  H12 UNL     1     -36.248  74.398 102.361  1.00  0.00     0.210 HD
ENDBRANCH   4  20
BRANCH   1  22
HETATM   22  N5  UNL     1     -37.315  75.425  98.340  1.00  0.00    -0.273 N 
HETATM   23  C3  UNL     1     -36.190  75.390  97.608  1.00  0.00     0.146 A 
HETATM   24  N3  UNL     1     -35.039  74.780  97.841  1.00  0.00    -0.336 N 
HETATM   25  C4  UNL     1     -36.331  76.120  96.474  1.00  0.00     0.120 A 
HETATM   26  C2  UNL     1     -34.036  74.891  96.953  1.00  0.00     0.183 A 
ATOM     27  H3  UNL     1     -34.913  74.228  98.690  1.00  0.00     0.168 HD
HETATM   28  N2  UNL     1     -34.161  75.601  95.817  1.00  0.00    -0.339 N 
HETATM   29  C1  UNL     1     -35.310  76.224  95.565  1.00  0.00     0.148 A 
ATOM     30  H2  UNL     1     -33.384  75.661  95.157  1.00  0.00     0.167 HD
HETATM   31  N1  UNL     1     -35.482  76.846  94.308  1.00  0.00    -0.080 NA
HETATM   32  N4  UNL     1     -37.576  76.634  96.518  1.00  0.00    -0.346 N 
HETATM   33  C5  UNL     1     -38.165  76.212  97.653  1.00  0.00     0.192 A 
ATOM     34  H4  UNL     1     -37.999  77.238  95.813  1.00  0.00     0.167 HD
ENDBRANCH   1  22
BRANCH   5  35
HETATM   35  O13 UNL     1     -37.365  76.197 101.329  1.00  0.00    -0.385 OA
ATOM     36  H13 UNL     1     -37.409  77.084 100.990  1.00  0.00     0.210 HD
ENDBRANCH   5  35
TORSDOF 10
ENDMDL
