MODEL 3
REMARK VINA RESULT: -8.546232996      1.221      2.513
REMARK  10 active torsions:
REMARK  status: ('A' for Active; 'I' for Inactive)
REMARK    1  A    between atoms: N5_13  and  C6_14 
REMARK    2  A    between atoms: C7_16  and  C8_17 
REMARK    3  A    between atoms: C8_17  and  O2_18 
REMARK    4  A    between atoms: O2_18  and  P1_19 
REMARK    5  A    between atoms: P1_19  and  O5_22 
REMARK    6  A    between atoms: O5_22  and  P2_23 
REMARK    7  A    between atoms: P2_23  and  O8_26 
REMARK    8  A    between atoms: O8_26  and  P3_27 
REMARK    9  A    between atoms: C9_31  and  O12_32 
REMARK   10  A    between atoms: C10_34  and  O13_35 
ROOT
HETATM    1  C6  UNL     1     -37.328  74.446  99.422  1.00  0.00     0.159 C 
HETATM    2  O1  UNL     1     -37.870  73.167  99.215  1.00  0.00    -0.326 OA
HETATM    3  C7  UNL     1     -37.941  72.675 100.452  1.00  0.00     0.186 C 
HETATM    4  C9  UNL     1     -37.597  73.717 101.525  1.00  0.00     0.186 C 
HETATM    5  C10 UNL     1     -38.005  74.938 100.651  1.00  0.00     0.224 C 
ENDROOT
BRANCH   3   6
HETATM    6  C8  UNL     1     -39.053  71.889 101.017  1.00  0.00     0.216 C 
BRANCH   6   7
HETATM    7  O2  UNL     1     -38.544  71.016 102.012  1.00  0.00    -0.287 OA
BRANCH   7   8
HETATM    8  P1  UNL     1     -39.802  71.115 103.218  1.00  0.00     0.417 P 
HETATM    9  O3  UNL     1     -39.947  69.835 103.868  1.00  0.00    -0.624 OA
HETATM   10  O4  UNL     1     -39.078  72.302 104.325  1.00  0.00    -0.624 OA
BRANCH   8  11
HETATM   11  O5  UNL     1     -41.179  71.859 102.634  1.00  0.00    -0.180 OA
BRANCH  11  12
HETATM   12  P2  UNL     1     -42.418  70.650 102.482  1.00  0.00     0.428 P 
HETATM   13  O6  UNL     1     -43.494  71.267 101.638  1.00  0.00    -0.624 OA
HETATM   14  O7  UNL     1     -42.986  70.119 103.952  1.00  0.00    -0.624 OA
BRANCH  12  15
HETATM   15  O8  UNL     1     -41.716  69.362 101.599  1.00  0.00    -0.173 OA
BRANCH  15  16
HETATM   16  P3  UNL     1     -42.680  67.998 101.738  1.00  0.00     0.431 P 
HETATM   17  O9  UNL     1     -44.126  68.278 101.522  1.00  0.00    -0.616 OA
HETATM   18  O10 UNL     1     -42.154  66.885 100.566  1.00  0.00    -0.616 OA
HETATM   19  O11 UNL     1     -42.435  67.368 103.296  1.00  0.00    -0.616 OA
ENDBRANCH  15  16
ENDBRANCH  12  15
ENDBRANCH  11  12
ENDBRANCH   8  11
ENDBRANCH   7   8
ENDBRANCH   6   7
ENDBRANCH   3   6
BRANCH   4  20
HETATM   20  O12 UNL     1     -36.256  73.697 101.734  1.00  0.00    -0.390 OA
ATOM     21  H12 UNL     1     -35.906  74.557 101.535  1.00  0.00     0.210 HD
ENDBRANCH   4  20
BRANCH   1  22
HETATM   22  N5  UNL     1     -37.131  75.264  98.329  1.00  0.00    -0.273 N 
HETATM   23  C3  UNL     1     -36.001  75.390  97.615  1.00  0.00     0.146 A 
HETATM   24  N3  UNL     1     -34.782  74.933  97.860  1.00  0.00    -0.336 N 
HETATM   25  C4  UNL     1     -36.221  76.111  96.489  1.00  0.00     0.120 A 
HETATM   26  C2  UNL     1     -33.790  75.189  96.990  1.00  0.00     0.183 A 
ATOM     27  H3  UNL     1     -34.597  74.390  98.703  1.00  0.00     0.168 HD
HETATM   28  N2  UNL     1     -33.991  75.893  95.861  1.00  0.00    -0.339 N 
HETATM   29  C1  UNL     1     -35.209  76.362  95.598  1.00  0.00     0.148 A 
ATOM     30  H2  UNL     1     -33.220  76.064  95.215  1.00  0.00     0.167 HD
HETATM   31  N1  UNL     1     -35.444  76.975  94.346  1.00  0.00    -0.080 NA
HETATM   32  N4  UNL     1     -37.523  76.455  96.519  1.00  0.00    -0.346 N 
HETATM   33  C5  UNL     1     -38.068  75.943  97.639  1.00  0.00     0.192 A 
ATOM     34  H4  UNL     1     -38.012  77.008  95.815  1.00  0.00     0.167 HD
ENDBRANCH   1  22
BRANCH   5  35
HETATM   35  O13 UNL     1     -37.386  75.985 101.320  1.00  0.00    -0.385 OA
ATOM     36  H13 UNL     1     -37.704  76.173 102.196  1.00  0.00     0.210 HD
ENDBRANCH   5  35
TORSDOF 10
ENDMDL
