MODEL 1
REMARK VINA RESULT: -5.864370380      0.000      0.000
REMARK  0 active torsions:
REMARK  status: ('A' for Active; 'I' for Inactive)
ROOT
HETATM    1  O1  UNL     1      72.913  50.244  49.815  1.00  0.00    -0.266 OA
HETATM    2  C1  UNL     1      73.657  49.234  49.836  1.00  0.00     0.277 A 
HETATM    3  N1  UNL     1      74.960  49.352  49.548  1.00  0.00    -0.318 N 
ATOM      4  H1  UNL     1      75.375  50.252  49.308  1.00  0.00     0.169 HD
HETATM    5  C2  UNL     1      75.694  48.224  49.591  1.00  0.00     0.185 A 
HETATM    6  N2  UNL     1      75.154  47.027  49.907  1.00  0.00    -0.336 N 
ATOM      7  H2  UNL     1      75.754  46.203  49.925  1.00  0.00     0.168 HD
HETATM    8  C3  UNL     1      73.846  46.890  50.199  1.00  0.00     0.140 A 
HETATM    9  N3  UNL     1      73.039  45.866  50.541  1.00  0.00    -0.337 N 
ATOM     10  H3  UNL     1      73.336  44.896  50.646  1.00  0.00     0.168 HD
HETATM   11  C4  UNL     1      71.786  46.316  50.721  1.00  0.00     0.182 A 
HETATM   12  N4  UNL     1      71.811  47.634  50.490  1.00  0.00    -0.345 N 
ATOM     13  H4  UNL     1      71.002  48.252  50.551  1.00  0.00     0.167 HD
HETATM   14  C5  UNL     1      73.068  48.030  50.163  1.00  0.00     0.146 A 
ENDROOT
TORSDOF 0
ENDMDL
