MODEL 2
REMARK VINA RESULT: -5.784090775      4.039      5.243
REMARK  0 active torsions:
REMARK  status: ('A' for Active; 'I' for Inactive)
ROOT
HETATM    1  O1  UNL     1      71.354  45.460  50.686  1.00  0.00    -0.266 OA
HETATM    2  C1  UNL     1      71.106  45.897  51.835  1.00  0.00     0.277 A 
HETATM    3  N1  UNL     1      71.009  47.216  52.046  1.00  0.00    -0.318 N 
ATOM      4  H1  UNL     1      71.133  47.889  51.290  1.00  0.00     0.169 HD
HETATM    5  C2  UNL     1      70.741  47.610  53.305  1.00  0.00     0.185 A 
HETATM    6  N2  UNL     1      70.577  46.727  54.314  1.00  0.00    -0.336 N 
ATOM      7  H2  UNL     1      70.375  47.078  55.251  1.00  0.00     0.168 HD
HETATM    8  C3  UNL     1      70.670  45.398  54.120  1.00  0.00     0.140 A 
HETATM    9  N3  UNL     1      70.560  44.302  54.898  1.00  0.00    -0.337 N 
ATOM     10  H3  UNL     1      70.359  44.311  55.898  1.00  0.00     0.168 HD
HETATM   11  C4  UNL     1      70.753  43.199  54.157  1.00  0.00     0.182 A 
HETATM   12  N4  UNL     1      70.986  43.609  52.905  1.00  0.00    -0.345 N 
ATOM     13  H4  UNL     1      71.169  42.991  52.114  1.00  0.00     0.167 HD
HETATM   14  C5  UNL     1      70.944  44.964  52.838  1.00  0.00     0.146 A 
ENDROOT
TORSDOF 0
ENDMDL
