MODEL 7
REMARK VINA RESULT: -5.548251329      3.789      5.019
REMARK  0 active torsions:
REMARK  status: ('A' for Active; 'I' for Inactive)
ROOT
HETATM    1  O1  UNL     1      71.032  45.803  50.470  1.00  0.00    -0.266 OA
HETATM    2  C1  UNL     1      71.361  45.122  51.471  1.00  0.00     0.277 A 
HETATM    3  N1  UNL     1      70.500  44.955  52.484  1.00  0.00    -0.318 N 
ATOM      4  H1  UNL     1      69.569  45.371  52.467  1.00  0.00     0.169 HD
HETATM    5  C2  UNL     1      70.924  44.212  53.523  1.00  0.00     0.185 A 
HETATM    6  N2  UNL     1      72.155  43.658  53.555  1.00  0.00    -0.336 N 
ATOM      7  H2  UNL     1      72.428  43.104  54.367  1.00  0.00     0.168 HD
HETATM    8  C3  UNL     1      73.034  43.815  52.547  1.00  0.00     0.140 A 
HETATM    9  N3  UNL     1      74.291  43.402  52.293  1.00  0.00    -0.337 N 
ATOM     10  H3  UNL     1      74.855  42.822  52.916  1.00  0.00     0.168 HD
HETATM   11  C4  UNL     1      74.691  43.868  51.098  1.00  0.00     0.182 A 
HETATM   12  N4  UNL     1      73.673  44.579  50.601  1.00  0.00    -0.345 N 
ATOM     13  H4  UNL     1      73.681  45.058  49.700  1.00  0.00     0.167 HD
HETATM   14  C5  UNL     1      72.627  44.573  51.466  1.00  0.00     0.146 A 
ENDROOT
TORSDOF 0
ENDMDL
