MODEL 11
REMARK VINA RESULT: -5.467099565      4.182      5.092
REMARK  0 active torsions:
REMARK  status: ('A' for Active; 'I' for Inactive)
ROOT
HETATM    1  O1  UNL     1      71.813  43.233  54.247  1.00  0.00    -0.266 OA
HETATM    2  C1  UNL     1      72.040  43.930  53.229  1.00  0.00     0.277 A 
HETATM    3  N1  UNL     1      72.928  43.517  52.315  1.00  0.00    -0.318 N 
ATOM      4  H1  UNL     1      73.436  42.639  52.422  1.00  0.00     0.169 HD
HETATM    5  C2  UNL     1      73.118  44.318  51.250  1.00  0.00     0.185 A 
HETATM    6  N2  UNL     1      72.452  45.483  51.099  1.00  0.00    -0.336 N 
ATOM      7  H2  UNL     1      72.633  46.053  50.273  1.00  0.00     0.168 HD
HETATM    8  C3  UNL     1      71.555  45.914  52.007  1.00  0.00     0.140 A 
HETATM    9  N3  UNL     1      70.757  46.993  52.134  1.00  0.00    -0.337 N 
ATOM     10  H3  UNL     1      70.700  47.762  51.466  1.00  0.00     0.168 HD
HETATM   11  C4  UNL     1      70.049  46.902  53.272  1.00  0.00     0.182 A 
HETATM   12  N4  UNL     1      70.408  45.756  53.861  1.00  0.00    -0.345 N 
ATOM     13  H4  UNL     1      70.036  45.414  54.747  1.00  0.00     0.167 HD
HETATM   14  C5  UNL     1      71.339  45.113  53.111  1.00  0.00     0.146 A 
ENDROOT
TORSDOF 0
ENDMDL
