MODEL 2
REMARK VINA RESULT: -9.212726904      8.421     11.252
REMARK  8 active torsions:
REMARK  status: ('A' for Active; 'I' for Inactive)
REMARK    1  A    between atoms: N4_10  and  C5_11 
REMARK    2  A    between atoms: C6_13  and  C7_14 
REMARK    3  A    between atoms: C7_14  and  O2_15 
REMARK    4  A    between atoms: O2_15  and  P1_16 
REMARK    5  A    between atoms: P1_16  and  O5_19 
REMARK    6  A    between atoms: O5_19  and  P2_20 
REMARK    7  A    between atoms: C8_24  and  O9_25 
REMARK    8  A    between atoms: C9_27  and  O10_28 
ROOT
HETATM    1  C5  UNL     1      83.641  37.128  50.885  1.00  0.00     0.262 C 
HETATM    2  O1  UNL     1      83.682  36.472  52.096  1.00  0.00    -0.353 OA
HETATM    3  C6  UNL     1      84.711  37.051  52.792  1.00  0.00     0.180 C 
HETATM    4  C8  UNL     1      84.462  38.531  52.588  1.00  0.00     0.182 C 
HETATM    5  C9  UNL     1      84.046  38.564  51.134  1.00  0.00     0.198 C 
ENDROOT
BRANCH   1   6
HETATM    6  N4  UNL     1      82.284  37.118  50.411  1.00  0.00    -0.297 N 
HETATM    7  C2  UNL     1      81.219  36.791  51.187  1.00  0.00     0.146 A 
HETATM    8  N2  UNL     1      81.104  36.418  52.481  1.00  0.00    -0.314 N 
HETATM    9  C3  UNL     1      80.120  36.901  50.381  1.00  0.00     0.146 A 
HETATM   10  C1  UNL     1      79.911  36.141  53.028  1.00  0.00     0.196 A 
ATOM     11  H2  UNL     1      81.944  36.346  53.054  1.00  0.00     0.170 HD
HETATM   12  N1  UNL     1      79.760  35.748  54.382  1.00  0.00    -0.063 NA
HETATM   13  N5  UNL     1      78.816  36.251  52.223  1.00  0.00    -0.295 N 
HETATM   14  C10 UNL     1      78.895  36.618  50.942  1.00  0.00     0.278 A 
ATOM     15  H5  UNL     1      77.897  36.046  52.617  1.00  0.00     0.171 HD
HETATM   16  O11 UNL     1      77.848  36.709  50.224  1.00  0.00    -0.265 OA
HETATM   17  N3  UNL     1      80.525  37.282  49.167  1.00  0.00    -0.345 N 
HETATM   18  C4  UNL     1      81.857  37.419  49.174  1.00  0.00     0.188 A 
ATOM     19  H3  UNL     1      79.918  37.443  48.364  1.00  0.00     0.167 HD
ENDBRANCH   1   6
BRANCH   5  20
HETATM   20  O10 UNL     1      85.190  38.913  50.390  1.00  0.00    -0.388 OA
ATOM     21  H10 UNL     1      84.984  39.027  49.470  1.00  0.00     0.210 HD
ENDBRANCH   5  20
BRANCH   3  22
HETATM   22  C7  UNL     1      84.599  36.808  54.300  1.00  0.00     0.216 C 
BRANCH  22  23
HETATM   23  O2  UNL     1      84.775  35.448  54.479  1.00  0.00    -0.287 OA
BRANCH  23  24
HETATM   24  P1  UNL     1      83.503  34.705  55.275  1.00  0.00     0.418 P 
HETATM   25  O3  UNL     1      82.648  34.038  54.192  1.00  0.00    -0.624 OA
HETATM   26  O4  UNL     1      82.554  35.801  56.146  1.00  0.00    -0.624 OA
BRANCH  24  27
HETATM   27  O5  UNL     1      84.126  33.578  56.350  1.00  0.00    -0.173 OA
BRANCH  27  28
HETATM   28  P2  UNL     1      85.299  32.597  55.698  1.00  0.00     0.431 P 
HETATM   29  O6  UNL     1      85.487  31.410  56.647  1.00  0.00    -0.616 OA
HETATM   30  O7  UNL     1      86.796  33.416  55.696  1.00  0.00    -0.616 OA
HETATM   31  O8  UNL     1      84.930  31.977  54.195  1.00  0.00    -0.616 OA
ENDBRANCH  27  28
ENDBRANCH  24  27
ENDBRANCH  23  24
ENDBRANCH  22  23
ENDBRANCH   3  22
BRANCH   4  32
HETATM   32  O9  UNL     1      85.609  39.282  52.815  1.00  0.00    -0.390 OA
ATOM     33  H9  UNL     1      86.352  38.944  52.330  1.00  0.00     0.210 HD
ENDBRANCH   4  32
TORSDOF 8
ENDMDL
