MODEL 5
REMARK VINA RESULT: -8.682200297      8.294     11.187
REMARK  8 active torsions:
REMARK  status: ('A' for Active; 'I' for Inactive)
REMARK    1  A    between atoms: N4_10  and  C5_11 
REMARK    2  A    between atoms: C6_13  and  C7_14 
REMARK    3  A    between atoms: C7_14  and  O2_15 
REMARK    4  A    between atoms: O2_15  and  P1_16 
REMARK    5  A    between atoms: P1_16  and  O5_19 
REMARK    6  A    between atoms: O5_19  and  P2_20 
REMARK    7  A    between atoms: C8_24  and  O9_25 
REMARK    8  A    between atoms: C9_27  and  O10_28 
ROOT
HETATM    1  C5  UNL     1      83.646  37.174  50.810  1.00  0.00     0.262 C 
HETATM    2  O1  UNL     1      83.703  36.555  52.040  1.00  0.00    -0.353 OA
HETATM    3  C6  UNL     1      84.745  37.150  52.702  1.00  0.00     0.180 C 
HETATM    4  C8  UNL     1      84.498  38.624  52.456  1.00  0.00     0.182 C 
HETATM    5  C9  UNL     1      84.060  38.616  51.009  1.00  0.00     0.198 C 
ENDROOT
BRANCH   1   6
HETATM    6  N4  UNL     1      82.282  37.156  50.357  1.00  0.00    -0.297 N 
HETATM    7  C2  UNL     1      81.228  36.855  51.159  1.00  0.00     0.146 A 
HETATM    8  N2  UNL     1      81.131  36.520  52.464  1.00  0.00    -0.314 N 
HETATM    9  C3  UNL     1      80.117  36.946  50.366  1.00  0.00     0.146 A 
HETATM   10  C1  UNL     1      79.946  36.263  53.037  1.00  0.00     0.196 A 
ATOM     11  H2  UNL     1      81.980  36.461  53.026  1.00  0.00     0.170 HD
HETATM   12  N1  UNL     1      79.815  35.910  54.404  1.00  0.00    -0.063 NA
HETATM   13  N5  UNL     1      78.839  36.354  52.246  1.00  0.00    -0.295 N 
HETATM   14  C10 UNL     1      78.900  36.683  50.954  1.00  0.00     0.278 A 
ATOM     15  H5  UNL     1      77.925  36.164  52.659  1.00  0.00     0.171 HD
HETATM   16  O11 UNL     1      77.842  36.758  50.249  1.00  0.00    -0.265 OA
HETATM   17  N3  UNL     1      80.505  37.290  49.136  1.00  0.00    -0.345 N 
HETATM   18  C4  UNL     1      81.836  37.423  49.118  1.00  0.00     0.188 A 
ATOM     19  H3  UNL     1      79.886  37.430  48.337  1.00  0.00     0.167 HD
ENDBRANCH   1   6
BRANCH   5  20
HETATM   20  O10 UNL     1      85.193  38.937  50.238  1.00  0.00    -0.388 OA
ATOM     21  H10 UNL     1      84.988  39.579  49.569  1.00  0.00     0.210 HD
ENDBRANCH   5  20
BRANCH   3  22
HETATM   22  C7  UNL     1      84.655  36.954  54.218  1.00  0.00     0.216 C 
BRANCH  22  23
HETATM   23  O2  UNL     1      84.882  35.608  54.439  1.00  0.00    -0.287 OA
BRANCH  23  24
HETATM   24  P1  UNL     1      85.714  35.291  55.859  1.00  0.00     0.418 P 
HETATM   25  O3  UNL     1      84.695  35.429  56.995  1.00  0.00    -0.624 OA
HETATM   26  O4  UNL     1      86.992  36.368  56.115  1.00  0.00    -0.624 OA
BRANCH  24  27
HETATM   27  O5  UNL     1      86.343  33.738  55.778  1.00  0.00    -0.173 OA
BRANCH  27  28
HETATM   28  P2  UNL     1      85.195  32.553  55.578  1.00  0.00     0.431 P 
HETATM   29  O6  UNL     1      85.520  31.426  56.562  1.00  0.00    -0.616 OA
HETATM   30  O7  UNL     1      85.353  31.859  54.027  1.00  0.00    -0.616 OA
HETATM   31  O8  UNL     1      83.631  33.041  55.881  1.00  0.00    -0.616 OA
ENDBRANCH  27  28
ENDBRANCH  24  27
ENDBRANCH  23  24
ENDBRANCH  22  23
ENDBRANCH   3  22
BRANCH   4  32
HETATM   32  O9  UNL     1      85.651  39.377  52.643  1.00  0.00    -0.390 OA
ATOM     33  H9  UNL     1      86.226  39.332  51.889  1.00  0.00     0.210 HD
ENDBRANCH   4  32
TORSDOF 8
ENDMDL
