MODEL 3
REMARK VINA RESULT: -8.864251399      7.232      9.632
REMARK  8 active torsions:
REMARK  status: ('A' for Active; 'I' for Inactive)
REMARK    1  A    between atoms: N4_10  and  C5_11 
REMARK    2  A    between atoms: C6_13  and  C7_14 
REMARK    3  A    between atoms: C7_14  and  O2_15 
REMARK    4  A    between atoms: O2_15  and  P1_16 
REMARK    5  A    between atoms: P1_16  and  O5_19 
REMARK    6  A    between atoms: O5_19  and  P2_20 
REMARK    7  A    between atoms: C8_24  and  O9_25 
REMARK    8  A    between atoms: C9_27  and  O10_28 
ROOT
HETATM    1  C5  UNL     1      81.716  36.165  54.045  1.00  0.00     0.262 C 
HETATM    2  O1  UNL     1      82.656  35.264  54.497  1.00  0.00    -0.353 OA
HETATM    3  C6  UNL     1      81.943  34.261  55.098  1.00  0.00     0.180 C 
HETATM    4  C8  UNL     1      80.849  33.977  54.090  1.00  0.00     0.182 C 
HETATM    5  C9  UNL     1      80.491  35.376  53.637  1.00  0.00     0.198 C 
ENDROOT
BRANCH   1   6
HETATM    6  N4  UNL     1      82.241  36.818  52.876  1.00  0.00    -0.297 N 
HETATM    7  C2  UNL     1      83.479  37.372  52.817  1.00  0.00     0.146 A 
HETATM    8  N2  UNL     1      84.483  37.478  53.715  1.00  0.00    -0.314 N 
HETATM    9  C3  UNL     1      83.599  37.885  51.554  1.00  0.00     0.146 A 
HETATM   10  C1  UNL     1      85.638  38.088  53.408  1.00  0.00     0.196 A 
ATOM     11  H2  UNL     1      84.360  37.084  54.647  1.00  0.00     0.170 HD
HETATM   12  N1  UNL     1      86.709  38.212  54.329  1.00  0.00    -0.063 NA
HETATM   13  N5  UNL     1      85.757  38.598  52.149  1.00  0.00    -0.295 N 
HETATM   14  C10 UNL     1      84.784  38.510  51.239  1.00  0.00     0.278 A 
ATOM     15  H5  UNL     1      86.627  39.066  51.892  1.00  0.00     0.171 HD
HETATM   16  O11 UNL     1      84.936  39.000  50.074  1.00  0.00    -0.265 OA
HETATM   17  N3  UNL     1      82.468  37.640  50.891  1.00  0.00    -0.345 N 
HETATM   18  C4  UNL     1      81.623  36.982  51.695  1.00  0.00     0.188 A 
ATOM     19  H3  UNL     1      82.277  37.909  49.926  1.00  0.00     0.167 HD
ENDBRANCH   1   6
BRANCH   5  20
HETATM   20  O10 UNL     1      79.358  35.766  54.376  1.00  0.00    -0.388 OA
ATOM     21  H10 UNL     1      79.493  35.644  55.308  1.00  0.00     0.210 HD
ENDBRANCH   5  20
BRANCH   3  22
HETATM   22  C7  UNL     1      82.752  32.966  55.218  1.00  0.00     0.216 C 
BRANCH  22  23
HETATM   23  O2  UNL     1      83.893  33.298  55.926  1.00  0.00    -0.287 OA
BRANCH  23  24
HETATM   24  P1  UNL     1      85.221  32.351  55.543  1.00  0.00     0.418 P 
HETATM   25  O3  UNL     1      84.962  31.795  54.139  1.00  0.00    -0.624 OA
HETATM   26  O4  UNL     1      85.437  31.070  56.624  1.00  0.00    -0.624 OA
BRANCH  24  27
HETATM   27  O5  UNL     1      86.595  33.312  55.582  1.00  0.00    -0.173 OA
BRANCH  27  28
HETATM   28  P2  UNL     1      86.489  34.602  56.625  1.00  0.00     0.431 P 
HETATM   29  O6  UNL     1      87.846  35.313  56.617  1.00  0.00    -0.616 OA
HETATM   30  O7  UNL     1      86.285  34.035  58.220  1.00  0.00    -0.616 OA
HETATM   31  O8  UNL     1      85.335  35.733  56.216  1.00  0.00    -0.616 OA
ENDBRANCH  27  28
ENDBRANCH  24  27
ENDBRANCH  23  24
ENDBRANCH  22  23
ENDBRANCH   3  22
BRANCH   4  32
HETATM   32  O9  UNL     1      79.767  33.330  54.672  1.00  0.00    -0.390 OA
ATOM     33  H9  UNL     1      79.057  33.206  54.054  1.00  0.00     0.210 HD
ENDBRANCH   4  32
TORSDOF 8
ENDMDL
