MODEL 6
REMARK VINA RESULT: -8.394847444      0.910      1.302
REMARK  8 active torsions:
REMARK  status: ('A' for Active; 'I' for Inactive)
REMARK    1  A    between atoms: N4_10  and  C5_11 
REMARK    2  A    between atoms: C6_13  and  C7_14 
REMARK    3  A    between atoms: C7_14  and  O2_15 
REMARK    4  A    between atoms: O2_15  and  P1_16 
REMARK    5  A    between atoms: P1_16  and  O5_19 
REMARK    6  A    between atoms: O5_19  and  P2_20 
REMARK    7  A    between atoms: C8_24  and  O9_25 
REMARK    8  A    between atoms: C9_27  and  O10_28 
ROOT
HETATM    1  C5  UNL     1      88.403  35.948  61.024  1.00  0.00     0.262 C 
HETATM    2  O1  UNL     1      87.412  35.111  60.560  1.00  0.00    -0.353 OA
HETATM    3  C6  UNL     1      86.477  35.931  59.987  1.00  0.00     0.180 C 
HETATM    4  C8  UNL     1      87.323  36.864  59.145  1.00  0.00     0.182 C 
HETATM    5  C9  UNL     1      88.496  37.115  60.066  1.00  0.00     0.198 C 
ENDROOT
BRANCH   1   6
HETATM    6  N4  UNL     1      89.651  35.235  60.989  1.00  0.00    -0.297 N 
HETATM    7  C2  UNL     1      90.545  35.234  62.011  1.00  0.00     0.146 A 
HETATM    8  N2  UNL     1      90.553  35.824  63.227  1.00  0.00    -0.314 N 
HETATM    9  C3  UNL     1      91.587  34.451  61.596  1.00  0.00     0.146 A 
HETATM   10  C1  UNL     1      91.579  35.666  64.077  1.00  0.00     0.196 A 
ATOM     11  H2  UNL     1      89.759  36.401  63.505  1.00  0.00     0.170 HD
HETATM   12  N1  UNL     1      91.613  36.272  65.359  1.00  0.00    -0.063 NA
HETATM   13  N5  UNL     1      92.617  34.885  63.663  1.00  0.00    -0.295 N 
HETATM   14  C10 UNL     1      92.640  34.289  62.469  1.00  0.00     0.278 A 
ATOM     15  H5  UNL     1      93.409  34.750  64.292  1.00  0.00     0.171 HD
HETATM   16  O11 UNL     1      93.628  33.567  62.120  1.00  0.00    -0.265 OA
HETATM   17  N3  UNL     1      91.315  34.004  60.369  1.00  0.00    -0.345 N 
HETATM   18  C4  UNL     1      90.124  34.480  59.984  1.00  0.00     0.188 A 
ATOM     19  H3  UNL     1      91.917  33.397  59.812  1.00  0.00     0.167 HD
ENDBRANCH   1   6
BRANCH   5  20
HETATM   20  O10 UNL     1      88.249  38.337  60.717  1.00  0.00    -0.388 OA
ATOM     21  H10 UNL     1      89.058  38.765  60.971  1.00  0.00     0.210 HD
ENDBRANCH   5  20
BRANCH   3  22
HETATM   22  C7  UNL     1      85.571  35.181  59.006  1.00  0.00     0.216 C 
BRANCH  22  23
HETATM   23  O2  UNL     1      85.899  35.656  57.749  1.00  0.00    -0.287 OA
BRANCH  23  24
HETATM   24  P1  UNL     1      86.255  34.446  56.646  1.00  0.00     0.418 P 
HETATM   25  O3  UNL     1      86.032  33.118  57.377  1.00  0.00    -0.624 OA
HETATM   26  O4  UNL     1      87.851  34.523  56.092  1.00  0.00    -0.624 OA
BRANCH  24  27
HETATM   27  O5  UNL     1      85.232  34.604  55.327  1.00  0.00    -0.173 OA
BRANCH  27  28
HETATM   28  P2  UNL     1      83.751  33.874  55.526  1.00  0.00     0.431 P 
HETATM   29  O6  UNL     1      83.983  32.360  55.542  1.00  0.00    -0.616 OA
HETATM   30  O7  UNL     1      82.778  34.168  54.157  1.00  0.00    -0.616 OA
HETATM   31  O8  UNL     1      82.966  34.270  56.942  1.00  0.00    -0.616 OA
ENDBRANCH  27  28
ENDBRANCH  24  27
ENDBRANCH  23  24
ENDBRANCH  22  23
ENDBRANCH   3  22
BRANCH   4  32
HETATM   32  O9  UNL     1      86.646  38.038  58.839  1.00  0.00    -0.390 OA
ATOM     33  H9  UNL     1      85.796  38.074  59.262  1.00  0.00     0.210 HD
ENDBRANCH   4  32
TORSDOF 8
ENDMDL
