MODEL 1
REMARK VINA RESULT: -9.275976059      0.000      0.000
REMARK  8 active torsions:
REMARK  status: ('A' for Active; 'I' for Inactive)
REMARK    1  A    between atoms: N4_10  and  C5_11 
REMARK    2  A    between atoms: C6_13  and  C7_14 
REMARK    3  A    between atoms: C7_14  and  O2_15 
REMARK    4  A    between atoms: O2_15  and  P1_16 
REMARK    5  A    between atoms: P1_16  and  O5_19 
REMARK    6  A    between atoms: O5_19  and  P2_20 
REMARK    7  A    between atoms: C8_24  and  O9_25 
REMARK    8  A    between atoms: C9_27  and  O10_28 
ROOT
HETATM    1  C5  UNL     1      88.305  35.859  61.049  1.00  0.00     0.262 C 
HETATM    2  O1  UNL     1      87.372  35.118  60.359  1.00  0.00    -0.353 OA
HETATM    3  C6  UNL     1      86.461  36.025  59.883  1.00  0.00     0.180 C 
HETATM    4  C8  UNL     1      87.344  37.111  59.303  1.00  0.00     0.182 C 
HETATM    5  C9  UNL     1      88.440  37.190  60.342  1.00  0.00     0.198 C 
ENDROOT
BRANCH   1   6
HETATM    6  N4  UNL     1      89.570  35.179  60.973  1.00  0.00    -0.297 N 
HETATM    7  C2  UNL     1      90.485  35.179  61.977  1.00  0.00     0.146 A 
HETATM    8  N2  UNL     1      90.503  35.744  63.204  1.00  0.00    -0.314 N 
HETATM    9  C3  UNL     1      91.537  34.431  61.524  1.00  0.00     0.146 A 
HETATM   10  C1  UNL     1      91.551  35.595  64.029  1.00  0.00     0.196 A 
ATOM     11  H2  UNL     1      89.702  36.295  63.510  1.00  0.00     0.170 HD
HETATM   12  N1  UNL     1      91.597  36.175  65.323  1.00  0.00    -0.063 NA
HETATM   13  N5  UNL     1      92.598  34.848  63.578  1.00  0.00    -0.295 N 
HETATM   14  C10 UNL     1      92.611  34.277  62.371  1.00  0.00     0.278 A 
ATOM     15  H5  UNL     1      93.406  34.720  64.188  1.00  0.00     0.171 HD
HETATM   16  O11 UNL     1      93.609  33.587  61.987  1.00  0.00    -0.265 OA
HETATM   17  N3  UNL     1      91.249  34.003  60.293  1.00  0.00    -0.345 N 
HETATM   18  C4  UNL     1      90.040  34.457  59.943  1.00  0.00     0.188 A 
ATOM     19  H3  UNL     1      91.854  33.422  59.712  1.00  0.00     0.167 HD
ENDBRANCH   1   6
BRANCH   5  20
HETATM   20  O10 UNL     1      88.117  38.262  61.195  1.00  0.00    -0.388 OA
ATOM     21  H10 UNL     1      87.374  38.754  60.868  1.00  0.00     0.210 HD
ENDBRANCH   5  20
BRANCH   3  22
HETATM   22  C7  UNL     1      85.648  35.469  58.711  1.00  0.00     0.216 C 
BRANCH  22  23
HETATM   23  O2  UNL     1      86.473  34.559  58.076  1.00  0.00    -0.287 OA
BRANCH  23  24
HETATM   24  P1  UNL     1      86.580  34.790  56.420  1.00  0.00     0.418 P 
HETATM   25  O3  UNL     1      87.842  35.626  56.183  1.00  0.00    -0.624 OA
HETATM   26  O4  UNL     1      85.238  35.603  55.791  1.00  0.00    -0.624 OA
BRANCH  24  27
HETATM   27  O5  UNL     1      86.685  33.291  55.674  1.00  0.00    -0.173 OA
BRANCH  27  28
HETATM   28  P2  UNL     1      85.262  32.430  55.682  1.00  0.00     0.431 P 
HETATM   29  O6  UNL     1      85.481  31.187  56.550  1.00  0.00    -0.616 OA
HETATM   30  O7  UNL     1      84.943  31.837  54.115  1.00  0.00    -0.616 OA
HETATM   31  O8  UNL     1      83.956  33.251  56.312  1.00  0.00    -0.616 OA
ENDBRANCH  27  28
ENDBRANCH  24  27
ENDBRANCH  23  24
ENDBRANCH  22  23
ENDBRANCH   3  22
BRANCH   4  32
HETATM   32  O9  UNL     1      86.663  38.315  59.178  1.00  0.00    -0.390 OA
ATOM     33  H9  UNL     1      86.126  38.335  58.395  1.00  0.00     0.210 HD
ENDBRANCH   4  32
TORSDOF 8
ENDMDL
