MODEL 1
REMARK VINA RESULT: -10.211744184      0.000      0.000
REMARK  2 active torsions:
REMARK  status: ('A' for Active; 'I' for Inactive)
REMARK    1  A    between atoms: C6_6  and  C7_7 
REMARK    2  A    between atoms: C8_8  and  C9_9 
ROOT
HETATM    1  C7  UNL     1      16.509  67.958   5.627  1.00  0.00     0.081 C 
HETATM    2  C8  UNL     1      15.732  67.003   6.076  1.00  0.00     0.015 C 
HETATM    3  C17 UNL     1      15.996  66.935   7.563  1.00  0.00     0.178 C 
HETATM    4  N3  UNL     1      16.551  68.217   7.879  1.00  0.00    -0.136 NA
HETATM    5  N4  UNL     1      17.250  68.525   6.735  1.00  0.00    -0.301 N 
ATOM      6  H4  UNL     1      18.122  69.052   6.678  1.00  0.00     0.182 HD
ENDROOT
BRANCH   2   7
HETATM    7  C9  UNL     1      14.783  66.125   5.385  1.00  0.00     0.042 A 
HETATM    8  C10 UNL     1      15.181  65.323   4.359  1.00  0.00     0.032 A 
HETATM    9  C11 UNL     1      14.280  64.460   3.705  1.00  0.00     0.034 A 
HETATM   10  C12 UNL     1      12.965  64.429   4.116  1.00  0.00     0.059 A 
HETATM   11  N1  UNL     1      12.063  63.600   3.507  1.00  0.00    -0.364 N 
HETATM   12  C16 UNL     1      12.593  65.247   5.150  1.00  0.00     0.059 A 
HETATM   13  C13 UNL     1      10.785  63.579   3.918  1.00  0.00     0.088 A 
ATOM     14  H1  UNL     1      12.361  62.997   2.739  1.00  0.00     0.165 HD
HETATM   15  C14 UNL     1      10.343  64.374   4.951  1.00  0.00     0.019 A 
HETATM   16  C15 UNL     1      11.278  65.218   5.565  1.00  0.00     0.033 A 
HETATM   17  N2  UNL     1      13.481  66.080   5.773  1.00  0.00    -0.354 N 
ATOM     18  H2  UNL     1      13.163  66.674   6.538  1.00  0.00     0.166 HD
ENDBRANCH   2   7
BRANCH   1  19
HETATM   19  C6  UNL     1      16.635  68.417   4.249  1.00  0.00     0.061 A 
HETATM   20  C5  UNL     1      15.477  68.569   3.484  1.00  0.00     0.032 A 
HETATM   21  C4  UNL     1      15.523  68.983   2.170  1.00  0.00     0.004 A 
HETATM   22  C3  UNL     1      16.751  69.253   1.607  1.00  0.00     0.024 A 
HETATM   23  C2  UNL     1      17.888  69.099   2.371  1.00  0.00     0.005 A 
HETATM   24  C1  UNL     1      19.196  69.406   1.725  1.00  0.00     0.068 C 
HETATM   25  N5  UNL     1      17.798  68.693   3.648  1.00  0.00    -0.358 N 
ATOM     26  H5  UNL     1      18.659  68.590   4.185  1.00  0.00     0.166 HD
ENDBRANCH   1  19
TORSDOF 2
ENDMDL
