MODEL 8
REMARK VINA RESULT: -9.217193327      1.231      6.319
REMARK  2 active torsions:
REMARK  status: ('A' for Active; 'I' for Inactive)
REMARK    1  A    between atoms: C6_6  and  C7_7 
REMARK    2  A    between atoms: C8_8  and  C9_9 
ROOT
HETATM    1  C7  UNL     1      14.584  67.035   6.172  1.00  0.00     0.081 C 
HETATM    2  C8  UNL     1      15.408  68.019   5.904  1.00  0.00     0.015 C 
HETATM    3  C17 UNL     1      15.490  68.832   7.176  1.00  0.00     0.178 C 
HETATM    4  N3  UNL     1      15.070  67.924   8.201  1.00  0.00    -0.136 NA
HETATM    5  N4  UNL     1      14.139  67.152   7.546  1.00  0.00    -0.301 N 
ATOM      6  H4  UNL     1      13.297  66.741   7.950  1.00  0.00     0.182 HD
ENDROOT
BRANCH   2   7
HETATM    7  C9  UNL     1      16.140  68.360   4.681  1.00  0.00     0.042 A 
HETATM    8  C10 UNL     1      15.504  68.458   3.482  1.00  0.00     0.032 A 
HETATM    9  C11 UNL     1      16.196  68.806   2.306  1.00  0.00     0.034 A 
HETATM   10  C12 UNL     1      17.550  69.054   2.375  1.00  0.00     0.059 A 
HETATM   11  N1  UNL     1      18.255  69.399   1.253  1.00  0.00    -0.364 N 
HETATM   12  C16 UNL     1      18.164  68.947   3.594  1.00  0.00     0.059 A 
HETATM   13  C13 UNL     1      19.573  69.640   1.335  1.00  0.00     0.088 A 
ATOM     14  H1  UNL     1      17.777  69.475   0.354  1.00  0.00     0.165 HD
HETATM   15  C14 UNL     1      20.253  69.551   2.529  1.00  0.00     0.019 A 
HETATM   16  C15 UNL     1      19.519  69.196   3.668  1.00  0.00     0.033 A 
HETATM   17  N2  UNL     1      17.476  68.607   4.726  1.00  0.00    -0.354 N 
ATOM     18  H2  UNL     1      17.971  68.536   5.615  1.00  0.00     0.166 HD
ENDBRANCH   2   7
BRANCH   1  19
HETATM   19  C6  UNL     1      14.161  65.970   5.271  1.00  0.00     0.061 A 
HETATM   20  C5  UNL     1      15.121  65.352   4.467  1.00  0.00     0.032 A 
HETATM   21  C4  UNL     1      14.789  64.349   3.581  1.00  0.00     0.004 A 
HETATM   22  C3  UNL     1      13.472  63.953   3.497  1.00  0.00     0.024 A 
HETATM   23  C2  UNL     1      12.534  64.570   4.296  1.00  0.00     0.005 A 
HETATM   24  C1  UNL     1      11.121  64.109   4.176  1.00  0.00     0.068 C 
HETATM   25  N5  UNL     1      12.899  65.543   5.145  1.00  0.00    -0.358 N 
ATOM     26  H5  UNL     1      12.180  65.979   5.721  1.00  0.00     0.166 HD
ENDBRANCH   1  19
TORSDOF 2
ENDMDL
