MODEL 3
REMARK VINA RESULT: -9.599646743      2.709      6.902
REMARK  2 active torsions:
REMARK  status: ('A' for Active; 'I' for Inactive)
REMARK    1  A    between atoms: C6_6  and  C7_7 
REMARK    2  A    between atoms: C8_8  and  C9_9 
ROOT
HETATM    1  C7  UNL     1      16.076  68.621   2.975  1.00  0.00     0.081 C 
HETATM    2  C8  UNL     1      17.273  69.131   3.125  1.00  0.00     0.015 C 
HETATM    3  C17 UNL     1      17.475  70.042   1.935  1.00  0.00     0.178 C 
HETATM    4  N3  UNL     1      16.145  70.327   1.483  1.00  0.00    -0.136 NA
HETATM    5  N4  UNL     1      15.481  69.157   1.768  1.00  0.00    -0.301 N 
ATOM      6  H4  UNL     1      14.717  68.746   1.232  1.00  0.00     0.182 HD
ENDROOT
BRANCH   2   7
HETATM    7  C9  UNL     1      18.285  68.933   4.168  1.00  0.00     0.042 A 
HETATM    8  C10 UNL     1      19.456  68.294   3.903  1.00  0.00     0.032 A 
HETATM    9  C11 UNL     1      20.442  68.119   4.894  1.00  0.00     0.034 A 
HETATM   10  C12 UNL     1      20.211  68.609   6.161  1.00  0.00     0.059 A 
HETATM   11  N1  UNL     1      21.148  68.461   7.148  1.00  0.00    -0.364 N 
HETATM   12  C16 UNL     1      19.024  69.248   6.399  1.00  0.00     0.059 A 
HETATM   13  C13 UNL     1      20.912  68.945   8.378  1.00  0.00     0.088 A 
ATOM     14  H1  UNL     1      22.028  67.983   6.949  1.00  0.00     0.165 HD
HETATM   15  C14 UNL     1      19.739  69.598   8.686  1.00  0.00     0.019 A 
HETATM   16  C15 UNL     1      18.790  69.742   7.666  1.00  0.00     0.033 A 
HETATM   17  N2  UNL     1      18.077  69.408   5.425  1.00  0.00    -0.354 N 
ATOM     18  H2  UNL     1      17.204  69.888   5.644  1.00  0.00     0.166 HD
ENDBRANCH   2   7
BRANCH   1  19
HETATM   19  C6  UNL     1      15.406  67.672   3.856  1.00  0.00     0.061 A 
HETATM   20  C5  UNL     1      15.180  68.036   5.185  1.00  0.00     0.032 A 
HETATM   21  C4  UNL     1      14.566  67.182   6.077  1.00  0.00     0.004 A 
HETATM   22  C3  UNL     1      14.169  65.939   5.633  1.00  0.00     0.024 A 
HETATM   23  C2  UNL     1      14.398  65.591   4.320  1.00  0.00     0.005 A 
HETATM   24  C1  UNL     1      13.949  64.239   3.879  1.00  0.00     0.068 C 
HETATM   25  N5  UNL     1      14.999  66.453   3.484  1.00  0.00    -0.358 N 
ATOM     26  H5  UNL     1      15.153  66.163   2.518  1.00  0.00     0.166 HD
ENDBRANCH   1  19
TORSDOF 2
ENDMDL
