MODEL 2
REMARK VINA RESULT: -9.693313459      0.717      1.375
REMARK  2 active torsions:
REMARK  status: ('A' for Active; 'I' for Inactive)
REMARK    1  A    between atoms: C6_6  and  C7_7 
REMARK    2  A    between atoms: C8_8  and  C9_9 
ROOT
HETATM    1  C7  UNL     1      16.806  68.048   5.861  1.00  0.00     0.081 C 
HETATM    2  C8  UNL     1      15.912  67.182   6.271  1.00  0.00     0.015 C 
HETATM    3  C17 UNL     1      15.988  67.208   7.781  1.00  0.00     0.178 C 
HETATM    4  N3  UNL     1      16.593  68.472   8.079  1.00  0.00    -0.136 NA
HETATM    5  N4  UNL     1      17.446  68.647   7.015  1.00  0.00    -0.301 N 
ATOM      6  H4  UNL     1      18.355  69.111   7.033  1.00  0.00     0.182 HD
ENDROOT
BRANCH   2   7
HETATM    7  C9  UNL     1      14.992  66.317   5.525  1.00  0.00     0.042 A 
HETATM    8  C10 UNL     1      15.403  65.633   4.423  1.00  0.00     0.032 A 
HETATM    9  C11 UNL     1      14.532  64.783   3.715  1.00  0.00     0.034 A 
HETATM   10  C12 UNL     1      13.232  64.644   4.151  1.00  0.00     0.059 A 
HETATM   11  N1  UNL     1      12.358  63.823   3.489  1.00  0.00    -0.364 N 
HETATM   12  C16 UNL     1      12.846  65.344   5.262  1.00  0.00     0.059 A 
HETATM   13  C13 UNL     1      11.095  63.695   3.926  1.00  0.00     0.088 A 
ATOM     14  H1  UNL     1      12.667  63.309   2.664  1.00  0.00     0.165 HD
HETATM   15  C14 UNL     1      10.640  64.371   5.036  1.00  0.00     0.019 A 
HETATM   16  C15 UNL     1      11.546  65.206   5.703  1.00  0.00     0.033 A 
HETATM   17  N2  UNL     1      13.705  66.166   5.938  1.00  0.00    -0.354 N 
ATOM     18  H2  UNL     1      13.377  66.672   6.760  1.00  0.00     0.166 HD
ENDBRANCH   2   7
BRANCH   1  19
HETATM   19  C6  UNL     1      17.132  68.392   4.483  1.00  0.00     0.061 A 
HETATM   20  C5  UNL     1      18.446  68.225   4.043  1.00  0.00     0.032 A 
HETATM   21  C4  UNL     1      18.828  68.545   2.757  1.00  0.00     0.004 A 
HETATM   22  C3  UNL     1      17.878  69.042   1.892  1.00  0.00     0.024 A 
HETATM   23  C2  UNL     1      16.584  69.203   2.338  1.00  0.00     0.005 A 
HETATM   24  C1  UNL     1      15.586  69.740   1.368  1.00  0.00     0.068 C 
HETATM   25  N5  UNL     1      16.254  68.879   3.598  1.00  0.00    -0.358 N 
ATOM     26  H5  UNL     1      15.288  69.011   3.895  1.00  0.00     0.166 HD
ENDBRANCH   1  19
TORSDOF 2
ENDMDL
