MODEL 1
REMARK VINA RESULT: -11.624679409      0.000      0.000
REMARK  1 active torsions:
REMARK  status: ('A' for Active; 'I' for Inactive)
REMARK    1  A    between atoms: C19_20  and  O2_21 
ROOT
HETATM    1  C1  UNL     1      20.699  18.457 -20.903  1.00  0.00     0.018 C 
HETATM    2  C2  UNL     1      21.038  19.311 -22.097  1.00  0.00    -0.014 C 
HETATM    3  C3  UNL     1      20.845  20.765 -21.863  1.00  0.00     0.012 C 
HETATM    4  C4  UNL     1      19.380  20.983 -21.508  1.00  0.00     0.007 C 
HETATM    5  C5  UNL     1      18.522  20.569 -22.670  1.00  0.00     0.002 C 
HETATM    6  C6  UNL     1      18.745  19.132 -23.091  1.00  0.00    -0.004 C 
HETATM    7  C7  UNL     1      18.049  18.968 -24.440  1.00  0.00     0.010 C 
HETATM    8  C8  UNL     1      16.615  19.358 -24.399  1.00  0.00     0.035 C 
HETATM    9  C9  UNL     1      16.332  20.612 -23.683  1.00  0.00    -0.068 C 
HETATM   10  C10 UNL     1      15.425  21.475 -24.170  1.00  0.00     0.053 C 
HETATM   11  C11 UNL     1      15.116  22.726 -23.489  1.00  0.00     0.149 C 
HETATM   12  O1  UNL     1      14.569  23.667 -24.083  1.00  0.00    -0.293 OA
HETATM   13  C12 UNL     1      15.505  22.785 -22.038  1.00  0.00     0.084 C 
HETATM   14  C13 UNL     1      16.936  22.294 -21.975  1.00  0.00     0.022 C 
HETATM   15  C14 UNL     1      17.071  20.879 -22.422  1.00  0.00    -0.016 C 
HETATM   16  C15 UNL     1      16.530  19.982 -21.334  1.00  0.00     0.020 C 
HETATM   17  C16 UNL     1      20.195  18.927 -23.311  1.00  0.00     0.001 C 
HETATM   18  C17 UNL     1      20.637  17.525 -23.527  1.00  0.00     0.008 C 
HETATM   19  C18 UNL     1      22.145  17.603 -23.303  1.00  0.00     0.033 C 
HETATM   20  C19 UNL     1      22.396  18.916 -22.585  1.00  0.00     0.126 C 
ENDROOT
BRANCH  20  21
HETATM   21  O2  UNL     1      23.332  18.788 -21.571  1.00  0.00    -0.395 OA
ATOM     22  H2  UNL     1      23.278  17.960 -21.108  1.00  0.00     0.210 HD
ENDBRANCH  20  21
TORSDOF 1
ENDMDL
