MODEL 4
REMARK VINA RESULT: -8.021146354      1.363      6.211
REMARK  1 active torsions:
REMARK  status: ('A' for Active; 'I' for Inactive)
REMARK    1  A    between atoms: C19_20  and  O2_21 
ROOT
HETATM    1  C1  UNL     1      14.958  19.756 -23.781  1.00  0.00     0.018 C 
HETATM    2  C2  UNL     1      15.942  20.669 -24.467  1.00  0.00    -0.014 C 
HETATM    3  C3  UNL     1      17.108  19.957 -25.049  1.00  0.00     0.012 C 
HETATM    4  C4  UNL     1      17.822  19.236 -23.913  1.00  0.00     0.007 C 
HETATM    5  C5  UNL     1      18.327  20.249 -22.925  1.00  0.00     0.002 C 
HETATM    6  C6  UNL     1      17.232  21.135 -22.370  1.00  0.00    -0.004 C 
HETATM    7  C7  UNL     1      17.935  22.278 -21.641  1.00  0.00     0.010 C 
HETATM    8  C8  UNL     1      18.892  21.802 -20.609  1.00  0.00     0.035 C 
HETATM    9  C9  UNL     1      19.755  20.686 -21.029  1.00  0.00    -0.068 C 
HETATM   10  C10 UNL     1      21.050  20.667 -20.673  1.00  0.00     0.053 C 
HETATM   11  C11 UNL     1      21.936  19.579 -21.068  1.00  0.00     0.149 C 
HETATM   12  O1  UNL     1      23.169  19.714 -21.057  1.00  0.00    -0.293 OA
HETATM   13  C12 UNL     1      21.252  18.306 -21.483  1.00  0.00     0.084 C 
HETATM   14  C13 UNL     1      20.175  18.718 -22.465  1.00  0.00     0.022 C 
HETATM   15  C14 UNL     1      19.149  19.602 -21.844  1.00  0.00    -0.016 C 
HETATM   16  C15 UNL     1      18.265  18.756 -20.959  1.00  0.00     0.020 C 
HETATM   17  C16 UNL     1      16.485  21.724 -23.505  1.00  0.00     0.001 C 
HETATM   18  C17 UNL     1      15.239  22.458 -23.162  1.00  0.00     0.008 C 
HETATM   19  C18 UNL     1      14.522  22.560 -24.506  1.00  0.00     0.033 C 
HETATM   20  C19 UNL     1      15.186  21.543 -25.416  1.00  0.00     0.126 C 
ENDROOT
BRANCH  20  21
HETATM   21  O2  UNL     1      14.267  20.854 -26.190  1.00  0.00    -0.395 OA
ATOM     22  H2  UNL     1      14.606  20.043 -26.550  1.00  0.00     0.210 HD
ENDBRANCH  20  21
TORSDOF 1
ENDMDL
