MODEL 7
REMARK VINA RESULT: -7.025034041      1.599      1.864
REMARK  1 active torsions:
REMARK  status: ('A' for Active; 'I' for Inactive)
REMARK    1  A    between atoms: C19_20  and  O2_21 
ROOT
HETATM    1  C1  UNL     1      21.506  19.770 -20.304  1.00  0.00     0.018 C 
HETATM    2  C2  UNL     1      21.023  19.425 -21.689  1.00  0.00    -0.014 C 
HETATM    3  C3  UNL     1      20.866  20.607 -22.576  1.00  0.00     0.012 C 
HETATM    4  C4  UNL     1      19.852  21.539 -21.924  1.00  0.00     0.007 C 
HETATM    5  C5  UNL     1      18.528  20.837 -21.826  1.00  0.00     0.002 C 
HETATM    6  C6  UNL     1      18.600  19.534 -21.059  1.00  0.00    -0.004 C 
HETATM    7  C7  UNL     1      17.278  18.814 -21.311  1.00  0.00     0.010 C 
HETATM    8  C8  UNL     1      16.095  19.642 -20.960  1.00  0.00     0.035 C 
HETATM    9  C9  UNL     1      16.157  21.040 -21.415  1.00  0.00    -0.068 C 
HETATM   10  C10 UNL     1      15.060  21.635 -21.912  1.00  0.00     0.053 C 
HETATM   11  C11 UNL     1      15.082  23.019 -22.371  1.00  0.00     0.149 C 
HETATM   12  O1  UNL     1      14.211  23.459 -23.136  1.00  0.00    -0.293 OA
HETATM   13  C12 UNL     1      16.222  23.853 -21.857  1.00  0.00     0.084 C 
HETATM   14  C13 UNL     1      17.471  23.027 -22.079  1.00  0.00     0.022 C 
HETATM   15  C14 UNL     1      17.456  21.754 -21.303  1.00  0.00    -0.016 C 
HETATM   16  C15 UNL     1      17.716  22.079 -19.851  1.00  0.00     0.020 C 
HETATM   17  C16 UNL     1      19.678  18.704 -21.646  1.00  0.00     0.001 C 
HETATM   18  C17 UNL     1      20.043  17.474 -20.897  1.00  0.00     0.008 C 
HETATM   19  C18 UNL     1      21.396  17.097 -21.497  1.00  0.00     0.033 C 
HETATM   20  C19 UNL     1      21.890  18.332 -22.228  1.00  0.00     0.126 C 
ENDROOT
BRANCH  20  21
HETATM   21  O2  UNL     1      23.243  18.551 -22.030  1.00  0.00    -0.395 OA
ATOM     22  H2  UNL     1      23.793  18.158 -22.697  1.00  0.00     0.210 HD
ENDBRANCH  20  21
TORSDOF 1
ENDMDL
