MODEL 2
REMARK VINA RESULT: -8.965202116      1.087      6.338
REMARK  1 active torsions:
REMARK  status: ('A' for Active; 'I' for Inactive)
REMARK    1  A    between atoms: C19_20  and  O2_21 
ROOT
HETATM    1  C1  UNL     1      15.199  20.191 -22.640  1.00  0.00     0.018 C 
HETATM    2  C2  UNL     1      15.997  21.109 -23.531  1.00  0.00    -0.014 C 
HETATM    3  C3  UNL     1      16.783  20.395 -24.569  1.00  0.00     0.012 C 
HETATM    4  C4  UNL     1      17.743  19.454 -23.853  1.00  0.00     0.007 C 
HETATM    5  C5  UNL     1      18.690  20.261 -23.011  1.00  0.00     0.002 C 
HETATM    6  C6  UNL     1      17.984  21.145 -22.004  1.00  0.00    -0.004 C 
HETATM    7  C7  UNL     1      19.041  22.102 -21.459  1.00  0.00     0.010 C 
HETATM    8  C8  UNL     1      20.224  21.396 -20.901  1.00  0.00     0.035 C 
HETATM    9  C9  UNL     1      20.731  20.286 -21.723  1.00  0.00    -0.068 C 
HETATM   10  C10 UNL     1      22.055  20.104 -21.863  1.00  0.00     0.053 C 
HETATM   11  C11 UNL     1      22.596  19.015 -22.668  1.00  0.00     0.149 C 
HETATM   12  O1  UNL     1      23.762  19.041 -23.088  1.00  0.00    -0.293 OA
HETATM   13  C12 UNL     1      21.648  17.882 -22.944  1.00  0.00     0.084 C 
HETATM   14  C13 UNL     1      20.362  18.526 -23.419  1.00  0.00     0.022 C 
HETATM   15  C14 UNL     1      19.741  19.392 -22.377  1.00  0.00    -0.016 C 
HETATM   16  C15 UNL     1      19.115  18.502 -21.330  1.00  0.00     0.020 C 
HETATM   17  C16 UNL     1      16.974  21.957 -22.721  1.00  0.00     0.001 C 
HETATM   18  C17 UNL     1      16.034  22.736 -21.874  1.00  0.00     0.008 C 
HETATM   19  C18 UNL     1      14.916  23.099 -22.848  1.00  0.00     0.033 C 
HETATM   20  C19 UNL     1      15.082  22.176 -24.041  1.00  0.00     0.126 C 
ENDROOT
BRANCH  20  21
HETATM   21  O2  UNL     1      13.869  21.691 -24.501  1.00  0.00    -0.395 OA
ATOM     22  H2  UNL     1      13.278  21.426 -23.806  1.00  0.00     0.210 HD
ENDBRANCH  20  21
TORSDOF 1
ENDMDL
