MODEL 3
REMARK VINA RESULT: -8.484378887      1.262      6.273
REMARK  1 active torsions:
REMARK  status: ('A' for Active; 'I' for Inactive)
REMARK    1  A    between atoms: C19_20  and  O2_21 
ROOT
HETATM    1  C1  UNL     1      15.828  21.013 -21.005  1.00  0.00     0.018 C 
HETATM    2  C2  UNL     1      16.429  21.547 -22.279  1.00  0.00    -0.014 C 
HETATM    3  C3  UNL     1      16.511  20.539 -23.367  1.00  0.00     0.012 C 
HETATM    4  C4  UNL     1      17.375  19.389 -22.865  1.00  0.00     0.007 C 
HETATM    5  C5  UNL     1      18.759  19.898 -22.582  1.00  0.00     0.002 C 
HETATM    6  C6  UNL     1      18.782  21.038 -21.585  1.00  0.00    -0.004 C 
HETATM    7  C7  UNL     1      20.189  21.629 -21.643  1.00  0.00     0.010 C 
HETATM    8  C8  UNL     1      21.250  20.616 -21.409  1.00  0.00     0.035 C 
HETATM    9  C9  UNL     1      21.064  19.343 -22.123  1.00  0.00    -0.068 C 
HETATM   10  C10 UNL     1      22.118  18.724 -22.680  1.00  0.00     0.053 C 
HETATM   11  C11 UNL     1      21.973  17.461 -23.394  1.00  0.00     0.149 C 
HETATM   12  O1  UNL     1      22.837  17.069 -24.194  1.00  0.00    -0.293 OA
HETATM   13  C12 UNL     1      20.720  16.687 -23.094  1.00  0.00     0.084 C 
HETATM   14  C13 UNL     1      19.584  17.683 -23.204  1.00  0.00     0.022 C 
HETATM   15  C14 UNL     1      19.691  18.780 -22.201  1.00  0.00    -0.016 C 
HETATM   16  C15 UNL     1      19.308  18.227 -20.849  1.00  0.00     0.020 C 
HETATM   17  C16 UNL     1      17.840  22.083 -22.046  1.00  0.00     0.001 C 
HETATM   18  C17 UNL     1      17.565  23.189 -21.092  1.00  0.00     0.008 C 
HETATM   19  C18 UNL     1      16.302  23.827 -21.664  1.00  0.00     0.033 C 
HETATM   20  C19 UNL     1      15.721  22.816 -22.635  1.00  0.00     0.126 C 
ENDROOT
BRANCH  20  21
HETATM   21  O2  UNL     1      14.343  22.726 -22.536  1.00  0.00    -0.395 OA
ATOM     22  H2  UNL     1      13.919  22.481 -23.350  1.00  0.00     0.210 HD
ENDBRANCH  20  21
TORSDOF 1
ENDMDL
