MODEL 6
REMARK VINA RESULT: -7.119315387      3.228      5.368
REMARK  8 active torsions:
REMARK  status: ('A' for Active; 'I' for Inactive)
REMARK    1  A    between atoms: C2_2  and  C5_5 
REMARK    2  A    between atoms: C6_9  and  O2_10 
REMARK    3  A    between atoms: O2_10  and  C7_11 
REMARK    4  A    between atoms: C7_11  and  P1_12 
REMARK    5  A    between atoms: C8_16  and  C9_17 
REMARK    6  A    between atoms: C9_17  and  C10_18 
REMARK    7  A    between atoms: C10_18  and  N2_19 
REMARK    8  A    between atoms: C10_18  and  C11_23 
ROOT
HETATM    1  C5  UNL     1      37.220   5.472   6.207  1.00  0.00     0.094 A 
HETATM    2  O1  UNL     1      36.681   5.955   7.327  1.00  0.00    -0.239 OA
HETATM    3  N1  UNL     1      37.430   6.837   7.886  1.00  0.00    -0.238 N 
ATOM      4  H1  UNL     1      37.209   7.332   8.749  1.00  0.00     0.197 HD
HETATM    5  C6  UNL     1      38.537   7.007   7.166  1.00  0.00     0.172 A 
HETATM    6  C8  UNL     1      38.420   6.136   6.079  1.00  0.00     0.030 A 
ENDROOT
BRANCH   6   7
HETATM    7  C9  UNL     1      39.412   5.997   5.016  1.00  0.00     0.089 C 
BRANCH   7   8
HETATM    8  C10 UNL     1      40.211   4.741   4.993  1.00  0.00     0.287 C 
BRANCH   8   9
HETATM    9  N2  UNL     1      41.616   5.128   5.270  1.00  0.00    -0.065 N 
ATOM     10  H23 UNL     1      41.701   5.864   5.972  1.00  0.00     0.275 HD
ATOM     11  H22 UNL     1      42.141   4.413   5.772  1.00  0.00     0.275 HD
ATOM     12  H21 UNL     1      42.031   5.377   4.372  1.00  0.00     0.275 HD
ENDBRANCH   8   9
BRANCH   8  13
HETATM   13  C11 UNL     1      40.233   4.122   3.639  1.00  0.00     0.204 C 
HETATM   14  O6  UNL     1      40.594   4.832   2.674  1.00  0.00    -0.646 OA
HETATM   15  O7  UNL     1      39.875   2.816   3.414  1.00  0.00    -0.646 OA
ENDBRANCH   8  13
ENDBRANCH   7   8
ENDBRANCH   6   7
BRANCH   1  16
HETATM   16  C2  UNL     1      36.587   4.444   5.350  1.00  0.00     0.001 C 
HETATM   17  C1  UNL     1      37.127   3.053   5.597  1.00  0.00     0.021 C 
HETATM   18  C3  UNL     1      35.104   4.352   5.785  1.00  0.00     0.021 C 
HETATM   19  C4  UNL     1      36.560   4.728   3.898  1.00  0.00     0.021 C 
ENDBRANCH   1  16
BRANCH   5  20
HETATM   20  O2  UNL     1      39.597   7.864   7.422  1.00  0.00    -0.320 OA
BRANCH  20  21
HETATM   21  C7  UNL     1      39.903   8.347   8.708  1.00  0.00     0.322 C 
BRANCH  21  22
HETATM   22  P1  UNL     1      41.523   8.722   9.078  1.00  0.00     0.284 P 
HETATM   23  O3  UNL     1      41.958   7.437   9.789  1.00  0.00    -0.638 OA
HETATM   24  O4  UNL     1      41.902   9.637  10.408  1.00  0.00    -0.638 OA
HETATM   25  O5  UNL     1      42.767   8.399   7.969  1.00  0.00    -0.638 OA
ENDBRANCH  21  22
ENDBRANCH  20  21
ENDBRANCH   5  20
TORSDOF 8
ENDMDL
