MODEL 4
REMARK VINA RESULT: -7.182323569      0.872      1.164
REMARK  8 active torsions:
REMARK  status: ('A' for Active; 'I' for Inactive)
REMARK    1  A    between atoms: C2_2  and  C5_5 
REMARK    2  A    between atoms: C6_9  and  O2_10 
REMARK    3  A    between atoms: O2_10  and  C7_11 
REMARK    4  A    between atoms: C7_11  and  P1_12 
REMARK    5  A    between atoms: C8_16  and  C9_17 
REMARK    6  A    between atoms: C9_17  and  C10_18 
REMARK    7  A    between atoms: C10_18  and  N2_19 
REMARK    8  A    between atoms: C10_18  and  C11_23 
ROOT
HETATM    1  C5  UNL     1      39.727   6.650   8.352  1.00  0.00     0.094 A 
HETATM    2  O1  UNL     1      39.321   6.117   9.505  1.00  0.00    -0.239 OA
HETATM    3  N1  UNL     1      38.717   4.996   9.336  1.00  0.00    -0.238 N 
ATOM      4  H1  UNL     1      38.327   4.421  10.083  1.00  0.00     0.197 HD
HETATM    5  C6  UNL     1      38.678   4.698   8.039  1.00  0.00     0.172 A 
HETATM    6  C8  UNL     1      39.325   5.752   7.388  1.00  0.00     0.030 A 
ENDROOT
BRANCH   6   7
HETATM    7  C9  UNL     1      39.525   5.838   5.944  1.00  0.00     0.089 C 
BRANCH   7   8
HETATM    8  C10 UNL     1      40.331   4.761   5.305  1.00  0.00     0.287 C 
BRANCH   8   9
HETATM    9  N2  UNL     1      41.744   5.208   5.352  1.00  0.00    -0.065 N 
ATOM     10  H23 UNL     1      42.370   4.523   5.778  1.00  0.00     0.275 HD
ATOM     11  H22 UNL     1      42.190   5.235   4.435  1.00  0.00     0.275 HD
ATOM     12  H21 UNL     1      41.748   6.109   5.829  1.00  0.00     0.275 HD
ENDBRANCH   8   9
BRANCH   8  13
HETATM   13  C11 UNL     1      40.012   4.616   3.857  1.00  0.00     0.204 C 
HETATM   14  O6  UNL     1      40.958   4.657   3.039  1.00  0.00    -0.646 OA
HETATM   15  O7  UNL     1      38.732   4.439   3.394  1.00  0.00    -0.646 OA
ENDBRANCH   8  13
ENDBRANCH   7   8
ENDBRANCH   6   7
BRANCH   1  16
HETATM   16  C2  UNL     1      40.450   7.936   8.235  1.00  0.00     0.001 C 
HETATM   17  C1  UNL     1      39.701   9.096   8.854  1.00  0.00     0.021 C 
HETATM   18  C3  UNL     1      41.728   7.811   9.100  1.00  0.00     0.021 C 
HETATM   19  C4  UNL     1      40.921   8.301   6.880  1.00  0.00     0.021 C 
ENDBRANCH   1  16
BRANCH   5  20
HETATM   20  O2  UNL     1      38.118   3.579   7.438  1.00  0.00    -0.320 OA
BRANCH  20  21
HETATM   21  C7  UNL     1      38.002   2.336   8.084  1.00  0.00     0.322 C 
BRANCH  21  22
HETATM   22  P1  UNL     1      36.502   1.903   8.766  1.00  0.00     0.284 P 
HETATM   23  O3  UNL     1      35.845   1.187   7.582  1.00  0.00    -0.638 OA
HETATM   24  O4  UNL     1      35.258   2.996   8.849  1.00  0.00    -0.638 OA
HETATM   25  O5  UNL     1      36.318   0.441   9.610  1.00  0.00    -0.638 OA
ENDBRANCH  21  22
ENDBRANCH  20  21
ENDBRANCH   5  20
TORSDOF 8
ENDMDL
