MODEL 7
REMARK VINA RESULT: -7.066277491      2.864      5.434
REMARK  8 active torsions:
REMARK  status: ('A' for Active; 'I' for Inactive)
REMARK    1  A    between atoms: C2_2  and  C5_5 
REMARK    2  A    between atoms: C6_9  and  O2_10 
REMARK    3  A    between atoms: O2_10  and  C7_11 
REMARK    4  A    between atoms: C7_11  and  P1_12 
REMARK    5  A    between atoms: C8_16  and  C9_17 
REMARK    6  A    between atoms: C9_17  and  C10_18 
REMARK    7  A    between atoms: C10_18  and  N2_19 
REMARK    8  A    between atoms: C10_18  and  C11_23 
ROOT
HETATM    1  C5  UNL     1      37.940   5.842   9.283  1.00  0.00     0.094 A 
HETATM    2  O1  UNL     1      37.138   5.226   8.414  1.00  0.00    -0.239 OA
HETATM    3  N1  UNL     1      37.705   5.038   7.277  1.00  0.00    -0.238 N 
ATOM      4  H1  UNL     1      37.271   4.586   6.473  1.00  0.00     0.197 HD
HETATM    5  C6  UNL     1      38.944   5.524   7.308  1.00  0.00     0.172 A 
HETATM    6  C8  UNL     1      39.115   6.046   8.594  1.00  0.00     0.030 A 
ENDROOT
BRANCH   6   7
HETATM    7  C9  UNL     1      40.340   6.676   9.078  1.00  0.00     0.089 C 
BRANCH   7   8
HETATM    8  C10 UNL     1      40.794   7.908   8.376  1.00  0.00     0.287 C 
BRANCH   8   9
HETATM    9  N2  UNL     1      41.744   7.469   7.325  1.00  0.00    -0.065 N 
ATOM     10  H23 UNL     1      42.721   7.536   7.610  1.00  0.00     0.275 HD
ATOM     11  H22 UNL     1      41.728   6.463   7.160  1.00  0.00     0.275 HD
ATOM     12  H21 UNL     1      41.528   8.017   6.492  1.00  0.00     0.275 HD
ENDBRANCH   8   9
BRANCH   8  13
HETATM   13  C11 UNL     1      41.582   8.798   9.272  1.00  0.00     0.204 C 
HETATM   14  O6  UNL     1      42.798   8.549   9.428  1.00  0.00    -0.646 OA
HETATM   15  O7  UNL     1      41.028   9.871   9.926  1.00  0.00    -0.646 OA
ENDBRANCH   8  13
ENDBRANCH   7   8
ENDBRANCH   6   7
BRANCH   1  16
HETATM   16  C2  UNL     1      37.559   6.190  10.671  1.00  0.00     0.001 C 
HETATM   17  C1  UNL     1      37.473   7.683  10.904  1.00  0.00     0.021 C 
HETATM   18  C3  UNL     1      36.106   5.696  10.873  1.00  0.00     0.021 C 
HETATM   19  C4  UNL     1      38.351   5.553  11.746  1.00  0.00     0.021 C 
ENDBRANCH   1  16
BRANCH   5  20
HETATM   20  O2  UNL     1      39.886   5.522   6.290  1.00  0.00    -0.320 OA
BRANCH  20  21
HETATM   21  C7  UNL     1      40.170   4.389   5.506  1.00  0.00     0.322 C 
BRANCH  21  22
HETATM   22  P1  UNL     1      39.767   4.415   3.851  1.00  0.00     0.284 P 
HETATM   23  O3  UNL     1      40.044   2.958   3.467  1.00  0.00    -0.638 OA
HETATM   24  O4  UNL     1      40.847   4.964   2.721  1.00  0.00    -0.638 OA
HETATM   25  O5  UNL     1      38.173   4.130   3.340  1.00  0.00    -0.638 OA
ENDBRANCH  21  22
ENDBRANCH  20  21
ENDBRANCH   5  20
TORSDOF 8
ENDMDL
