MODEL 2
REMARK VINA RESULT: -7.402193925      3.306      5.117
REMARK  8 active torsions:
REMARK  status: ('A' for Active; 'I' for Inactive)
REMARK    1  A    between atoms: C2_2  and  C5_5 
REMARK    2  A    between atoms: C6_9  and  O2_10 
REMARK    3  A    between atoms: O2_10  and  C7_11 
REMARK    4  A    between atoms: C7_11  and  P1_12 
REMARK    5  A    between atoms: C8_16  and  C9_17 
REMARK    6  A    between atoms: C9_17  and  C10_18 
REMARK    7  A    between atoms: C10_18  and  N2_19 
REMARK    8  A    between atoms: C10_18  and  C11_23 
ROOT
HETATM    1  C5  UNL     1      37.704   5.992   6.742  1.00  0.00     0.094 A 
HETATM    2  O1  UNL     1      37.480   6.725   7.833  1.00  0.00    -0.239 OA
HETATM    3  N1  UNL     1      38.359   7.649   7.987  1.00  0.00    -0.238 N 
ATOM      4  H1  UNL     1      38.376   8.321   8.754  1.00  0.00     0.197 HD
HETATM    5  C6  UNL     1      39.245   7.595   6.994  1.00  0.00     0.172 A 
HETATM    6  C8  UNL     1      38.838   6.534   6.180  1.00  0.00     0.030 A 
ENDROOT
BRANCH   6   7
HETATM    7  C9  UNL     1      39.520   6.118   4.957  1.00  0.00     0.089 C 
BRANCH   7   8
HETATM    8  C10 UNL     1      40.241   4.816   4.991  1.00  0.00     0.287 C 
BRANCH   8   9
HETATM    9  N2  UNL     1      41.671   5.132   5.226  1.00  0.00    -0.065 N 
ATOM     10  H23 UNL     1      42.214   5.209   4.365  1.00  0.00     0.275 HD
ATOM     11  H22 UNL     1      41.825   6.084   5.559  1.00  0.00     0.275 HD
ATOM     12  H21 UNL     1      42.025   4.419   5.864  1.00  0.00     0.275 HD
ENDBRANCH   8   9
BRANCH   8  13
HETATM   13  C11 UNL     1      40.202   4.126   3.672  1.00  0.00     0.204 C 
HETATM   14  O6  UNL     1      40.709   4.709   2.688  1.00  0.00    -0.646 OA
HETATM   15  O7  UNL     1      39.635   2.888   3.500  1.00  0.00    -0.646 OA
ENDBRANCH   8  13
ENDBRANCH   7   8
ENDBRANCH   6   7
BRANCH   1  16
HETATM   16  C2  UNL     1      36.856   4.858   6.309  1.00  0.00     0.001 C 
HETATM   17  C1  UNL     1      37.435   3.510   6.681  1.00  0.00     0.021 C 
HETATM   18  C3  UNL     1      35.545   4.941   7.127  1.00  0.00     0.021 C 
HETATM   19  C4  UNL     1      36.440   4.857   4.888  1.00  0.00     0.021 C 
ENDBRANCH   1  16
BRANCH   5  20
HETATM   20  O2  UNL     1      40.347   8.414   6.790  1.00  0.00    -0.320 OA
BRANCH  20  21
HETATM   21  C7  UNL     1      41.506   8.354   7.583  1.00  0.00     0.322 C 
BRANCH  21  22
HETATM   22  P1  UNL     1      41.403   8.814   9.221  1.00  0.00     0.284 P 
HETATM   23  O3  UNL     1      41.089   7.466   9.877  1.00  0.00    -0.638 OA
HETATM   24  O4  UNL     1      40.015   9.483   9.831  1.00  0.00    -0.638 OA
HETATM   25  O5  UNL     1      42.786   8.845  10.205  1.00  0.00    -0.638 OA
ENDBRANCH  21  22
ENDBRANCH  20  21
ENDBRANCH   5  20
TORSDOF 8
ENDMDL
