MODEL 5
REMARK VINA RESULT: -7.149236975      0.422      1.261
REMARK  8 active torsions:
REMARK  status: ('A' for Active; 'I' for Inactive)
REMARK    1  A    between atoms: C2_2  and  C5_5 
REMARK    2  A    between atoms: C6_9  and  O2_10 
REMARK    3  A    between atoms: O2_10  and  C7_11 
REMARK    4  A    between atoms: C7_11  and  P1_12 
REMARK    5  A    between atoms: C8_16  and  C9_17 
REMARK    6  A    between atoms: C9_17  and  C10_18 
REMARK    7  A    between atoms: C10_18  and  N2_19 
REMARK    8  A    between atoms: C10_18  and  C11_23 
ROOT
HETATM    1  C5  UNL     1      39.694   6.513   8.282  1.00  0.00     0.094 A 
HETATM    2  O1  UNL     1      39.361   5.931   9.434  1.00  0.00    -0.239 OA
HETATM    3  N1  UNL     1      38.796   4.791   9.258  1.00  0.00    -0.238 N 
ATOM      4  H1  UNL     1      38.463   4.180  10.003  1.00  0.00     0.197 HD
HETATM    5  C6  UNL     1      38.711   4.530   7.955  1.00  0.00     0.172 A 
HETATM    6  C8  UNL     1      39.286   5.628   7.309  1.00  0.00     0.030 A 
ENDROOT
BRANCH   6   7
HETATM    7  C9  UNL     1      39.417   5.763   5.861  1.00  0.00     0.089 C 
BRANCH   7   8
HETATM    8  C10 UNL     1      40.209   4.722   5.151  1.00  0.00     0.287 C 
BRANCH   8   9
HETATM    9  N2  UNL     1      41.627   5.152   5.216  1.00  0.00    -0.065 N 
ATOM     10  H23 UNL     1      41.782   6.088   4.840  1.00  0.00     0.275 HD
ATOM     11  H22 UNL     1      41.948   5.341   6.165  1.00  0.00     0.275 HD
ATOM     12  H21 UNL     1      42.172   4.432   4.742  1.00  0.00     0.275 HD
ENDBRANCH   8   9
BRANCH   8  13
HETATM   13  C11 UNL     1      39.880   4.670   3.699  1.00  0.00     0.204 C 
HETATM   14  O6  UNL     1      38.705   4.395   3.372  1.00  0.00    -0.646 OA
HETATM   15  O7  UNL     1      40.810   4.910   2.718  1.00  0.00    -0.646 OA
ENDBRANCH   8  13
ENDBRANCH   7   8
ENDBRANCH   6   7
BRANCH   1  16
HETATM   16  C2  UNL     1      40.359   7.831   8.173  1.00  0.00     0.001 C 
HETATM   17  C1  UNL     1      39.530   8.962   8.742  1.00  0.00     0.021 C 
HETATM   18  C3  UNL     1      41.605   7.781   9.091  1.00  0.00     0.021 C 
HETATM   19  C4  UNL     1      40.867   8.199   6.832  1.00  0.00     0.021 C 
ENDBRANCH   1  16
BRANCH   5  20
HETATM   20  O2  UNL     1      38.170   3.407   7.345  1.00  0.00    -0.320 OA
BRANCH  20  21
HETATM   21  C7  UNL     1      37.078   2.694   7.874  1.00  0.00     0.322 C 
BRANCH  21  22
HETATM   22  P1  UNL     1      37.326   1.716   9.246  1.00  0.00     0.284 P 
HETATM   23  O3  UNL     1      36.602   2.538  10.318  1.00  0.00    -0.638 OA
HETATM   24  O4  UNL     1      38.749   1.784  10.094  1.00  0.00    -0.638 OA
HETATM   25  O5  UNL     1      36.243   0.466   9.631  1.00  0.00    -0.638 OA
ENDBRANCH  21  22
ENDBRANCH  20  21
ENDBRANCH   5  20
TORSDOF 8
ENDMDL
