MODEL 3
REMARK VINA RESULT: -7.313984934      0.480      1.021
REMARK  8 active torsions:
REMARK  status: ('A' for Active; 'I' for Inactive)
REMARK    1  A    between atoms: C2_2  and  C5_5 
REMARK    2  A    between atoms: C6_9  and  O2_10 
REMARK    3  A    between atoms: O2_10  and  C7_11 
REMARK    4  A    between atoms: C7_11  and  P1_12 
REMARK    5  A    between atoms: C8_16  and  C9_17 
REMARK    6  A    between atoms: C9_17  and  C10_18 
REMARK    7  A    between atoms: C10_18  and  N2_19 
REMARK    8  A    between atoms: C10_18  and  C11_23 
ROOT
HETATM    1  C5  UNL     1      39.843   6.678   8.366  1.00  0.00     0.094 A 
HETATM    2  O1  UNL     1      39.456   6.197   9.548  1.00  0.00    -0.239 OA
HETATM    3  N1  UNL     1      38.769   5.117   9.432  1.00  0.00    -0.238 N 
ATOM      4  H1  UNL     1      38.377   4.586  10.209  1.00  0.00     0.197 HD
HETATM    5  C6  UNL     1      38.648   4.799   8.145  1.00  0.00     0.172 A 
HETATM    6  C8  UNL     1      39.335   5.793   7.442  1.00  0.00     0.030 A 
ENDROOT
BRANCH   6   7
HETATM    7  C9  UNL     1      39.471   5.837   5.988  1.00  0.00     0.089 C 
BRANCH   7   8
HETATM    8  C10 UNL     1      40.246   4.740   5.345  1.00  0.00     0.287 C 
BRANCH   8   9
HETATM    9  N2  UNL     1      41.669   5.155   5.374  1.00  0.00    -0.065 N 
ATOM     10  H23 UNL     1      41.866   5.963   4.784  1.00  0.00     0.275 HD
ATOM     11  H22 UNL     1      41.949   5.574   6.261  1.00  0.00     0.275 HD
ATOM     12  H21 UNL     1      42.217   4.331   5.127  1.00  0.00     0.275 HD
ENDBRANCH   8   9
BRANCH   8  13
HETATM   13  C11 UNL     1      39.907   4.595   3.902  1.00  0.00     0.204 C 
HETATM   14  O6  UNL     1      40.836   4.680   3.068  1.00  0.00    -0.646 OA
HETATM   15  O7  UNL     1      38.627   4.374   3.459  1.00  0.00    -0.646 OA
ENDBRANCH   8  13
ENDBRANCH   7   8
ENDBRANCH   6   7
BRANCH   1  16
HETATM   16  C2  UNL     1      40.647   7.908   8.187  1.00  0.00     0.001 C 
HETATM   17  C1  UNL     1      40.893   8.248   6.733  1.00  0.00     0.021 C 
HETATM   18  C3  UNL     1      39.785   9.085   8.705  1.00  0.00     0.021 C 
HETATM   19  C4  UNL     1      41.915   7.978   8.947  1.00  0.00     0.021 C 
ENDBRANCH   1  16
BRANCH   5  20
HETATM   20  O2  UNL     1      37.985   3.711   7.595  1.00  0.00    -0.320 OA
BRANCH  20  21
HETATM   21  C7  UNL     1      38.337   2.377   7.867  1.00  0.00     0.322 C 
BRANCH  21  22
HETATM   22  P1  UNL     1      37.897   1.703   9.368  1.00  0.00     0.284 P 
HETATM   23  O3  UNL     1      38.963   0.613   9.516  1.00  0.00    -0.638 OA
HETATM   24  O4  UNL     1      36.678   0.585   9.474  1.00  0.00    -0.638 OA
HETATM   25  O5  UNL     1      38.505   2.339  10.820  1.00  0.00    -0.638 OA
ENDBRANCH  21  22
ENDBRANCH  20  21
ENDBRANCH   5  20
TORSDOF 8
ENDMDL
