MODEL 20
REMARK VINA RESULT: -6.621870868      1.247      1.570
REMARK  8 active torsions:
REMARK  status: ('A' for Active; 'I' for Inactive)
REMARK    1  A    between atoms: C2_2  and  C5_5 
REMARK    2  A    between atoms: C6_9  and  O2_10 
REMARK    3  A    between atoms: O2_10  and  C7_11 
REMARK    4  A    between atoms: C7_11  and  P1_12 
REMARK    5  A    between atoms: C8_16  and  C9_17 
REMARK    6  A    between atoms: C9_17  and  C10_18 
REMARK    7  A    between atoms: C10_18  and  N2_19 
REMARK    8  A    between atoms: C10_18  and  C11_23 
ROOT
HETATM    1  C5  UNL     1      39.598   6.411   8.271  1.00  0.00     0.094 A 
HETATM    2  O1  UNL     1      39.255   5.821   9.415  1.00  0.00    -0.239 OA
HETATM    3  N1  UNL     1      38.674   4.691   9.225  1.00  0.00    -0.238 N 
ATOM      4  H1  UNL     1      38.330   4.076   9.962  1.00  0.00     0.197 HD
HETATM    5  C6  UNL     1      38.588   4.446   7.919  1.00  0.00     0.172 A 
HETATM    6  C8  UNL     1      39.180   5.543   7.287  1.00  0.00     0.030 A 
ENDROOT
BRANCH   6   7
HETATM    7  C9  UNL     1      39.316   5.693   5.841  1.00  0.00     0.089 C 
BRANCH   7   8
HETATM    8  C10 UNL     1      40.101   4.652   5.121  1.00  0.00     0.287 C 
BRANCH   8   9
HETATM    9  N2  UNL     1      41.518   5.087   5.163  1.00  0.00    -0.065 N 
ATOM     10  H23 UNL     1      41.673   5.899   5.760  1.00  0.00     0.275 HD
ATOM     11  H22 UNL     1      42.124   4.440   5.668  1.00  0.00     0.275 HD
ATOM     12  H21 UNL     1      41.805   5.237   4.196  1.00  0.00     0.275 HD
ENDBRANCH   8   9
BRANCH   8  13
HETATM   13  C11 UNL     1      39.750   4.594   3.675  1.00  0.00     0.204 C 
HETATM   14  O6  UNL     1      38.566   4.329   3.367  1.00  0.00    -0.646 OA
HETATM   15  O7  UNL     1      40.667   4.819   2.679  1.00  0.00    -0.646 OA
ENDBRANCH   8  13
ENDBRANCH   7   8
ENDBRANCH   6   7
BRANCH   1  16
HETATM   16  C2  UNL     1      40.282   7.721   8.177  1.00  0.00     0.001 C 
HETATM   17  C1  UNL     1      39.455   8.862   8.730  1.00  0.00     0.021 C 
HETATM   18  C3  UNL     1      41.506   7.654   9.123  1.00  0.00     0.021 C 
HETATM   19  C4  UNL     1      40.824   8.084   6.849  1.00  0.00     0.021 C 
ENDBRANCH   1  16
BRANCH   5  20
HETATM   20  O2  UNL     1      38.033   3.338   7.295  1.00  0.00    -0.320 OA
BRANCH  20  21
HETATM   21  C7  UNL     1      36.736   3.331   6.751  1.00  0.00     0.322 C 
BRANCH  21  22
HETATM   22  P1  UNL     1      35.637   2.135   7.267  1.00  0.00     0.284 P 
HETATM   23  O3  UNL     1      36.557   1.247   8.112  1.00  0.00    -0.638 OA
HETATM   24  O4  UNL     1      35.241   0.861   6.283  1.00  0.00    -0.638 OA
HETATM   25  O5  UNL     1      34.724   2.345   8.683  1.00  0.00    -0.638 OA
ENDBRANCH  21  22
ENDBRANCH  20  21
ENDBRANCH   5  20
TORSDOF 8
ENDMDL
