MODEL 1
REMARK VINA RESULT: -7.410164418      0.000      0.000
REMARK  8 active torsions:
REMARK  status: ('A' for Active; 'I' for Inactive)
REMARK    1  A    between atoms: C2_2  and  C5_5 
REMARK    2  A    between atoms: C6_9  and  O2_10 
REMARK    3  A    between atoms: O2_10  and  C7_11 
REMARK    4  A    between atoms: C7_11  and  P1_12 
REMARK    5  A    between atoms: C8_16  and  C9_17 
REMARK    6  A    between atoms: C9_17  and  C10_18 
REMARK    7  A    between atoms: C10_18  and  N2_19 
REMARK    8  A    between atoms: C10_18  and  C11_23 
ROOT
HETATM    1  C5  UNL     1      39.706   6.551   8.341  1.00  0.00     0.094 A 
HETATM    2  O1  UNL     1      39.393   6.038   9.531  1.00  0.00    -0.239 OA
HETATM    3  N1  UNL     1      38.823   4.890   9.431  1.00  0.00    -0.238 N 
ATOM      4  H1  UNL     1      38.502   4.324  10.216  1.00  0.00     0.197 HD
HETATM    5  C6  UNL     1      38.716   4.553   8.147  1.00  0.00     0.172 A 
HETATM    6  C8  UNL     1      39.281   5.611   7.429  1.00  0.00     0.030 A 
ENDROOT
BRANCH   6   7
HETATM    7  C9  UNL     1      39.388   5.661   5.973  1.00  0.00     0.089 C 
BRANCH   7   8
HETATM    8  C10 UNL     1      40.232   4.624   5.318  1.00  0.00     0.287 C 
BRANCH   8   9
HETATM    9  N2  UNL     1      41.630   5.113   5.385  1.00  0.00    -0.065 N 
ATOM     10  H23 UNL     1      41.735   6.079   5.074  1.00  0.00     0.275 HD
ATOM     11  H22 UNL     1      41.965   5.249   6.338  1.00  0.00     0.275 HD
ATOM     12  H21 UNL     1      42.195   4.453   4.849  1.00  0.00     0.275 HD
ENDBRANCH   8   9
BRANCH   8  13
HETATM   13  C11 UNL     1      39.927   4.498   3.866  1.00  0.00     0.204 C 
HETATM   14  O6  UNL     1      40.872   4.611   3.054  1.00  0.00    -0.646 OA
HETATM   15  O7  UNL     1      38.660   4.265   3.391  1.00  0.00    -0.646 OA
ENDBRANCH   8  13
ENDBRANCH   7   8
ENDBRANCH   6   7
BRANCH   1  16
HETATM   16  C2  UNL     1      40.370   7.859   8.144  1.00  0.00     0.001 C 
HETATM   17  C1  UNL     1      39.564   9.020   8.684  1.00  0.00     0.021 C 
HETATM   18  C3  UNL     1      41.646   7.850   9.021  1.00  0.00     0.021 C 
HETATM   19  C4  UNL     1      40.833   8.158   6.770  1.00  0.00     0.021 C 
ENDBRANCH   1  16
BRANCH   5  20
HETATM   20  O2  UNL     1      38.164   3.398   7.613  1.00  0.00    -0.320 OA
BRANCH  20  21
HETATM   21  C7  UNL     1      36.987   2.807   8.107  1.00  0.00     0.322 C 
BRANCH  21  22
HETATM   22  P1  UNL     1      37.084   1.825   9.496  1.00  0.00     0.284 P 
HETATM   23  O3  UNL     1      38.437   1.142   9.269  1.00  0.00    -0.638 OA
HETATM   24  O4  UNL     1      36.308   0.362   9.560  1.00  0.00    -0.638 OA
HETATM   25  O5  UNL     1      37.753   2.421  10.938  1.00  0.00    -0.638 OA
ENDBRANCH  21  22
ENDBRANCH  20  21
ENDBRANCH   5  20
TORSDOF 8
ENDMDL
