MODEL 8
REMARK VINA RESULT: -5.948804989      2.763      5.714
REMARK  15 active torsions:
REMARK  status: ('A' for Active; 'I' for Inactive)
REMARK    1  A    between atoms: C2_2  and  C3_3 
REMARK    2  A    between atoms: C3_3  and  C4_4 
REMARK    3  A    between atoms: C4_4  and  C5_5 
REMARK    4  A    between atoms: C5_5  and  C6_6 
REMARK    5  A    between atoms: C6_6  and  C7_7 
REMARK    6  A    between atoms: C7_7  and  C8_8 
REMARK    7  A    between atoms: C8_8  and  C9_9 
REMARK    8  A    between atoms: C10_10  and  C11_11 
REMARK    9  A    between atoms: C11_11  and  C12_12 
REMARK   10  A    between atoms: C12_12  and  C13_13 
REMARK   11  A    between atoms: C13_13  and  C14_14 
REMARK   12  A    between atoms: C14_14  and  C15_15 
REMARK   13  A    between atoms: C15_15  and  C16_16 
REMARK   14  A    between atoms: C16_16  and  C17_17 
REMARK   15  A    between atoms: C17_17  and  C18_18 
ROOT
HETATM    1  C9  UNL     1       8.174  33.923   6.256  1.00  0.00    -0.031 C 
HETATM    2  C10 UNL     1       8.681  34.819   5.460  1.00  0.00    -0.031 C 
ENDROOT
BRANCH   2   3
HETATM    3  C11 UNL     1       9.148  34.577   4.105  1.00  0.00     0.027 C 
BRANCH   3   4
HETATM    4  C12 UNL     1      10.667  34.850   4.113  1.00  0.00     0.007 C 
BRANCH   4   5
HETATM    5  C13 UNL     1      11.425  33.696   3.606  1.00  0.00     0.027 C 
BRANCH   5   6
HETATM    6  C14 UNL     1      11.583  32.579   4.540  1.00  0.00    -0.031 C 
BRANCH   6   7
HETATM    7  C15 UNL     1      11.785  32.742   5.977  1.00  0.00    -0.030 C 
BRANCH   7   8
HETATM    8  C16 UNL     1      12.987  32.253   6.665  1.00  0.00     0.037 C 
BRANCH   8   9
HETATM    9  C17 UNL     1      14.112  33.286   6.457  1.00  0.00     0.117 C 
BRANCH   9  10
HETATM   10  C18 UNL     1      15.062  32.924   5.407  1.00  0.00     0.172 C 
HETATM   11  O1  UNL     1      15.244  33.622   4.395  1.00  0.00    -0.648 OA
HETATM   12  O2  UNL     1      15.800  31.739   5.544  1.00  0.00    -0.648 OA
ENDBRANCH   9  10
ENDBRANCH   8   9
ENDBRANCH   7   8
ENDBRANCH   6   7
ENDBRANCH   5   6
ENDBRANCH   4   5
ENDBRANCH   3   4
ENDBRANCH   2   3
BRANCH   1  13
HETATM   13  C8  UNL     1       8.001  32.508   5.871  1.00  0.00     0.027 C 
BRANCH  13  14
HETATM   14  C7  UNL     1       7.799  31.725   7.173  1.00  0.00     0.004 C 
BRANCH  14  15
HETATM   15  C6  UNL     1       8.916  30.746   7.318  1.00  0.00     0.000 C 
BRANCH  15  16
HETATM   16  C5  UNL     1       9.088  30.234   8.729  1.00  0.00     0.000 C 
BRANCH  16  17
HETATM   17  C4  UNL     1      10.228  29.276   8.860  1.00  0.00     0.000 C 
BRANCH  17  18
HETATM   18  C3  UNL     1      11.524  29.991   9.214  1.00  0.00    -0.000 C 
BRANCH  18  19
HETATM   19  C2  UNL     1      12.584  29.004   9.572  1.00  0.00    -0.005 C 
HETATM   20  C1  UNL     1      13.938  29.707   9.441  1.00  0.00     0.005 C 
ENDBRANCH  18  19
ENDBRANCH  17  18
ENDBRANCH  16  17
ENDBRANCH  15  16
ENDBRANCH  14  15
ENDBRANCH  13  14
ENDBRANCH   1  13
TORSDOF 15
ENDMDL
