MODEL 9
REMARK VINA RESULT: -5.944095329      3.075      6.718
REMARK  15 active torsions:
REMARK  status: ('A' for Active; 'I' for Inactive)
REMARK    1  A    between atoms: C2_2  and  C3_3 
REMARK    2  A    between atoms: C3_3  and  C4_4 
REMARK    3  A    between atoms: C4_4  and  C5_5 
REMARK    4  A    between atoms: C5_5  and  C6_6 
REMARK    5  A    between atoms: C6_6  and  C7_7 
REMARK    6  A    between atoms: C7_7  and  C8_8 
REMARK    7  A    between atoms: C8_8  and  C9_9 
REMARK    8  A    between atoms: C10_10  and  C11_11 
REMARK    9  A    between atoms: C11_11  and  C12_12 
REMARK   10  A    between atoms: C12_12  and  C13_13 
REMARK   11  A    between atoms: C13_13  and  C14_14 
REMARK   12  A    between atoms: C14_14  and  C15_15 
REMARK   13  A    between atoms: C15_15  and  C16_16 
REMARK   14  A    between atoms: C16_16  and  C17_17 
REMARK   15  A    between atoms: C17_17  and  C18_18 
ROOT
HETATM    1  C9  UNL     1      10.152  29.377   8.754  1.00  0.00    -0.031 C 
HETATM    2  C10 UNL     1       9.229  30.061   8.143  1.00  0.00    -0.031 C 
ENDROOT
BRANCH   2   3
HETATM    3  C11 UNL     1       9.021  31.494   8.267  1.00  0.00     0.027 C 
BRANCH   3   4
HETATM    4  C12 UNL     1       7.760  31.823   7.440  1.00  0.00     0.007 C 
BRANCH   4   5
HETATM    5  C13 UNL     1       8.103  32.189   6.056  1.00  0.00     0.027 C 
BRANCH   5   6
HETATM    6  C14 UNL     1       8.412  33.602   5.829  1.00  0.00    -0.031 C 
BRANCH   6   7
HETATM    7  C15 UNL     1       7.867  34.386   4.724  1.00  0.00    -0.030 C 
BRANCH   7   8
HETATM    8  C16 UNL     1       8.703  34.884   3.623  1.00  0.00     0.037 C 
BRANCH   8   9
HETATM    9  C17 UNL     1      10.181  34.692   4.020  1.00  0.00     0.117 C 
BRANCH   9  10
HETATM   10  C18 UNL     1      10.891  35.944   4.276  1.00  0.00     0.172 C 
HETATM   11  O1  UNL     1      10.778  36.943   3.546  1.00  0.00    -0.648 OA
HETATM   12  O2  UNL     1      11.736  36.024   5.393  1.00  0.00    -0.648 OA
ENDBRANCH   9  10
ENDBRANCH   8   9
ENDBRANCH   7   8
ENDBRANCH   6   7
ENDBRANCH   5   6
ENDBRANCH   4   5
ENDBRANCH   3   4
ENDBRANCH   2   3
BRANCH   1  13
HETATM   13  C8  UNL     1      11.132  29.986   9.675  1.00  0.00     0.027 C 
BRANCH  13  14
HETATM   14  C7  UNL     1      12.220  28.933   9.911  1.00  0.00     0.004 C 
BRANCH  14  15
HETATM   15  C6  UNL     1      13.489  29.632  10.273  1.00  0.00     0.000 C 
BRANCH  15  16
HETATM   16  C5  UNL     1      14.463  29.742   9.124  1.00  0.00     0.000 C 
BRANCH  16  17
HETATM   17  C4  UNL     1      14.693  31.157   8.696  1.00  0.00     0.000 C 
BRANCH  17  18
HETATM   18  C3  UNL     1      13.947  31.482   7.411  1.00  0.00    -0.000 C 
BRANCH  18  19
HETATM   19  C2  UNL     1      12.873  32.485   7.669  1.00  0.00    -0.005 C 
HETATM   20  C1  UNL     1      11.999  32.567   6.414  1.00  0.00     0.005 C 
ENDBRANCH  18  19
ENDBRANCH  17  18
ENDBRANCH  16  17
ENDBRANCH  15  16
ENDBRANCH  14  15
ENDBRANCH  13  14
ENDBRANCH   1  13
TORSDOF 15
ENDMDL
