MODEL 12
REMARK VINA RESULT: -6.797533691      2.861      7.114
REMARK  14 active torsions:
REMARK  status: ('A' for Active; 'I' for Inactive)
REMARK    1  A    between atoms: C2_2  and  C3_3 
REMARK    2  A    between atoms: C3_3  and  C4_4 
REMARK    3  A    between atoms: C4_4  and  C5_5 
REMARK    4  A    between atoms: C5_5  and  C6_6 
REMARK    5  A    between atoms: C7_7  and  C8_8 
REMARK    6  A    between atoms: C8_8  and  C9_9 
REMARK    7  A    between atoms: C10_10  and  C11_11 
REMARK    8  A    between atoms: C11_11  and  C12_12 
REMARK    9  A    between atoms: C13_13  and  C14_14 
REMARK   10  A    between atoms: C14_14  and  C15_15 
REMARK   11  A    between atoms: C16_16  and  C17_17 
REMARK   12  A    between atoms: C17_17  and  C18_18 
REMARK   13  A    between atoms: C18_18  and  C19_19 
REMARK   14  A    between atoms: C19_19  and  C20_20 
ROOT
HETATM    1  C11 UNL     1      11.186  32.335   6.439  1.00  0.00     0.053 C 
ENDROOT
BRANCH   1   2
HETATM    2  C10 UNL     1      11.143  31.501   7.690  1.00  0.00    -0.027 C 
HETATM    3  C9  UNL     1       9.991  31.017   8.076  1.00  0.00    -0.027 C 
BRANCH   3   4
HETATM    4  C8  UNL     1       9.929  30.181   9.324  1.00  0.00     0.053 C 
BRANCH   4   5
HETATM    5  C7  UNL     1      10.597  28.898   9.050  1.00  0.00    -0.027 C 
HETATM    6  C6  UNL     1      11.698  28.542   9.649  1.00  0.00    -0.030 C 
BRANCH   6   7
HETATM    7  C5  UNL     1      12.482  29.269  10.659  1.00  0.00     0.027 C 
BRANCH   7   8
HETATM    8  C4  UNL     1      13.616  29.979   9.898  1.00  0.00     0.004 C 
BRANCH   8   9
HETATM    9  C3  UNL     1      13.839  29.185   8.641  1.00  0.00    -0.000 C 
BRANCH   9  10
HETATM   10  C2  UNL     1      14.765  29.869   7.677  1.00  0.00    -0.005 C 
HETATM   11  C1  UNL     1      15.985  30.329   8.448  1.00  0.00     0.005 C 
ENDBRANCH   9  10
ENDBRANCH   8   9
ENDBRANCH   7   8
ENDBRANCH   6   7
ENDBRANCH   4   5
ENDBRANCH   3   4
ENDBRANCH   1   2
BRANCH   1  12
HETATM   12  C12 UNL     1      12.567  32.297   5.946  1.00  0.00    -0.027 C 
HETATM   13  C13 UNL     1      13.244  33.329   5.571  1.00  0.00    -0.027 C 
BRANCH  13  14
HETATM   14  C14 UNL     1      12.775  34.702   5.565  1.00  0.00     0.053 C 
BRANCH  14  15
HETATM   15  C15 UNL     1      12.241  35.282   4.361  1.00  0.00    -0.027 C 
HETATM   16  C16 UNL     1      11.057  35.538   3.949  1.00  0.00    -0.030 C 
BRANCH  16  17
HETATM   17  C17 UNL     1       9.784  35.294   4.634  1.00  0.00     0.027 C 
BRANCH  17  18
HETATM   18  C18 UNL     1       9.073  34.121   4.011  1.00  0.00     0.014 C 
BRANCH  18  19
HETATM   19  C19 UNL     1       7.664  33.991   4.482  1.00  0.00     0.113 C 
BRANCH  19  20
HETATM   20  C20 UNL     1       7.637  33.148   5.703  1.00  0.00     0.172 C 
HETATM   21  O1  UNL     1       7.639  31.902   5.606  1.00  0.00    -0.648 OA
HETATM   22  O2  UNL     1       7.610  33.746   6.942  1.00  0.00    -0.648 OA
ENDBRANCH  19  20
ENDBRANCH  18  19
ENDBRANCH  17  18
ENDBRANCH  16  17
ENDBRANCH  14  15
ENDBRANCH  13  14
ENDBRANCH   1  12
TORSDOF 14
ENDMDL
