MODEL 11
REMARK VINA RESULT: -6.803995390      1.869      6.301
REMARK  14 active torsions:
REMARK  status: ('A' for Active; 'I' for Inactive)
REMARK    1  A    between atoms: C2_2  and  C3_3 
REMARK    2  A    between atoms: C3_3  and  C4_4 
REMARK    3  A    between atoms: C4_4  and  C5_5 
REMARK    4  A    between atoms: C5_5  and  C6_6 
REMARK    5  A    between atoms: C7_7  and  C8_8 
REMARK    6  A    between atoms: C8_8  and  C9_9 
REMARK    7  A    between atoms: C10_10  and  C11_11 
REMARK    8  A    between atoms: C11_11  and  C12_12 
REMARK    9  A    between atoms: C13_13  and  C14_14 
REMARK   10  A    between atoms: C14_14  and  C15_15 
REMARK   11  A    between atoms: C16_16  and  C17_17 
REMARK   12  A    between atoms: C17_17  and  C18_18 
REMARK   13  A    between atoms: C18_18  and  C19_19 
REMARK   14  A    between atoms: C19_19  and  C20_20 
ROOT
HETATM    1  C11 UNL     1       9.203  32.104   5.632  1.00  0.00     0.053 C 
ENDROOT
BRANCH   1   2
HETATM    2  C10 UNL     1       9.181  31.516   7.016  1.00  0.00    -0.027 C 
HETATM    3  C9  UNL     1      10.309  31.423   7.671  1.00  0.00    -0.027 C 
BRANCH   3   4
HETATM    4  C8  UNL     1      10.306  30.838   9.055  1.00  0.00     0.053 C 
BRANCH   4   5
HETATM    5  C7  UNL     1      10.403  29.374   8.935  1.00  0.00    -0.027 C 
HETATM    6  C6  UNL     1      11.446  28.707   9.343  1.00  0.00    -0.030 C 
BRANCH   6   7
HETATM    7  C5  UNL     1      12.678  29.205   9.970  1.00  0.00     0.027 C 
BRANCH   7   8
HETATM    8  C4  UNL     1      13.756  29.204   8.870  1.00  0.00     0.004 C 
BRANCH   8   9
HETATM    9  C3  UNL     1      14.510  30.495   9.022  1.00  0.00    -0.000 C 
BRANCH   9  10
HETATM   10  C2  UNL     1      14.002  31.577   8.113  1.00  0.00    -0.005 C 
HETATM   11  C1  UNL     1      13.925  31.011   6.711  1.00  0.00     0.005 C 
ENDBRANCH   9  10
ENDBRANCH   8   9
ENDBRANCH   7   8
ENDBRANCH   6   7
ENDBRANCH   4   5
ENDBRANCH   3   4
ENDBRANCH   1   2
BRANCH   1  12
HETATM   12  C12 UNL     1       8.082  33.047   5.548  1.00  0.00    -0.027 C 
HETATM   13  C13 UNL     1       7.985  34.001   4.686  1.00  0.00    -0.027 C 
BRANCH  13  14
HETATM   14  C14 UNL     1       8.952  34.318   3.650  1.00  0.00     0.053 C 
BRANCH  14  15
HETATM   15  C15 UNL     1       9.915  35.367   3.853  1.00  0.00    -0.027 C 
HETATM   16  C16 UNL     1      11.150  35.385   4.191  1.00  0.00    -0.030 C 
BRANCH  16  17
HETATM   17  C17 UNL     1      12.023  34.249   4.501  1.00  0.00     0.027 C 
BRANCH  17  18
HETATM   18  C18 UNL     1      12.365  34.241   5.968  1.00  0.00     0.014 C 
BRANCH  18  19
HETATM   19  C19 UNL     1      12.875  35.560   6.443  1.00  0.00     0.113 C 
BRANCH  19  20
HETATM   20  C20 UNL     1      13.562  35.375   7.745  1.00  0.00     0.172 C 
HETATM   21  O1  UNL     1      14.788  35.595   7.844  1.00  0.00    -0.648 OA
HETATM   22  O2  UNL     1      12.841  34.960   8.842  1.00  0.00    -0.648 OA
ENDBRANCH  19  20
ENDBRANCH  18  19
ENDBRANCH  17  18
ENDBRANCH  16  17
ENDBRANCH  14  15
ENDBRANCH  13  14
ENDBRANCH   1  12
TORSDOF 14
ENDMDL
