MODEL 7
REMARK VINA RESULT: -8.943814356      3.238      7.153
REMARK  10 active torsions:
REMARK  status: ('A' for Active; 'I' for Inactive)
REMARK    1  A    between atoms: N4_17  and  C9_18 
REMARK    2  A    between atoms: C9_18  and  C10_19 
REMARK    3  A    between atoms: C10_19  and  O3_20 
REMARK    4  A    between atoms: C10_19  and  C11_22 
REMARK    5  A    between atoms: C11_22  and  O4_23 
REMARK    6  A    between atoms: C11_22  and  C12_25 
REMARK    7  A    between atoms: C12_25  and  O5_26 
REMARK    8  A    between atoms: C12_25  and  C13_28 
REMARK    9  A    between atoms: C13_28  and  O6_29 
REMARK   10  A    between atoms: O6_29  and  P1_30 
ROOT
HETATM    1  C1  UNL     1      28.076  11.351  21.626  1.00  0.00     0.049 C 
HETATM    2  C2  UNL     1      27.446  10.882  22.883  1.00  0.00    -0.054 A 
HETATM    3  C3  UNL     1      27.925  11.289  24.110  1.00  0.00     0.039 A 
HETATM    4  C4  UNL     1      27.355  10.865  25.301  1.00  0.00     0.060 A 
HETATM    5  N1  UNL     1      27.862  11.299  26.469  1.00  0.00    -0.347 N 
ATOM      6  H1  UNL     1      28.662  11.932  26.466  1.00  0.00     0.166 HD
HETATM    7  C5  UNL     1      27.328  10.911  27.633  1.00  0.00     0.146 A 
HETATM    8  C6  UNL     1      27.817  11.335  28.874  1.00  0.00     0.280 A 
HETATM    9  O1  UNL     1      28.794  12.106  28.879  1.00  0.00    -0.265 OA
HETATM   10  N2  UNL     1      27.226  10.900  30.015  1.00  0.00    -0.273 N 
ATOM     11  H2  UNL     1      27.580  11.206  30.922  1.00  0.00     0.173 HD
HETATM   12  C7  UNL     1      26.173  10.066  29.951  1.00  0.00     0.328 A 
HETATM   13  O2  UNL     1      25.670   9.701  31.046  1.00  0.00    -0.247 OA
HETATM   14  N3  UNL     1      25.663   9.628  28.762  1.00  0.00    -0.292 N 
ATOM     15  H3  UNL     1      24.862   8.996  28.765  1.00  0.00     0.172 HD
HETATM   16  C8  UNL     1      26.193  10.014  27.592  1.00  0.00     0.145 A 
HETATM   17  N4  UNL     1      25.711   9.597  26.380  1.00  0.00    -0.327 N 
HETATM   18  C14 UNL     1      26.258   9.998  25.221  1.00  0.00     0.063 A 
HETATM   19  C15 UNL     1      25.772   9.585  23.996  1.00  0.00     0.039 A 
HETATM   20  C16 UNL     1      26.362  10.026  22.827  1.00  0.00    -0.054 A 
HETATM   21  C17 UNL     1      25.853   9.594  21.502  1.00  0.00     0.049 C 
ENDROOT
BRANCH  17  22
HETATM   22  C9  UNL     1      24.575   8.702  26.395  1.00  0.00     0.165 C 
BRANCH  22  23
HETATM   23  C10 UNL     1      23.308   9.550  26.216  1.00  0.00     0.167 C 
BRANCH  23  24
HETATM   24  O3  UNL     1      22.648   9.818  27.382  1.00  0.00    -0.391 OA
ATOM     25  H3  UNL     1      22.396  10.729  27.483  1.00  0.00     0.210 HD
ENDBRANCH  23  24
BRANCH  23  26
HETATM   26  C11 UNL     1      22.422   9.080  25.153  1.00  0.00     0.179 C 
BRANCH  26  27
HETATM   27  O4  UNL     1      22.474   7.687  25.056  1.00  0.00    -0.390 OA
ATOM     28  H4  UNL     1      23.336   7.370  25.302  1.00  0.00     0.210 HD
ENDBRANCH  26  27
BRANCH  26  29
HETATM   29  C12 UNL     1      22.395   9.681  23.818  1.00  0.00     0.173 C 
BRANCH  29  30
HETATM   30  O5  UNL     1      21.497  10.806  23.950  1.00  0.00    -0.391 OA
ATOM     31  H5  UNL     1      21.867  11.319  24.659  1.00  0.00     0.210 HD
ENDBRANCH  29  30
BRANCH  29  32
HETATM   32  C13 UNL     1      21.707   8.865  22.729  1.00  0.00     0.217 C 
BRANCH  32  33
HETATM   33  O6  UNL     1      22.616   7.867  22.267  1.00  0.00    -0.280 OA
BRANCH  33  34
HETATM   34  P1  UNL     1      21.782   6.449  21.919  1.00  0.00     0.422 P 
HETATM   35  O7  UNL     1      20.817   6.178  23.025  1.00  0.00    -0.617 OA
HETATM   36  O8  UNL     1      22.820   5.126  21.764  1.00  0.00    -0.617 OA
HETATM   37  O9  UNL     1      20.898   6.585  20.474  1.00  0.00    -0.617 OA
ENDBRANCH  33  34
ENDBRANCH  32  33
ENDBRANCH  29  32
ENDBRANCH  26  29
ENDBRANCH  23  26
ENDBRANCH  22  23
ENDBRANCH  17  22
TORSDOF 10
ENDMDL
