MODEL 1
REMARK VINA RESULT: -10.258710694      0.000      0.000
REMARK  10 active torsions:
REMARK  status: ('A' for Active; 'I' for Inactive)
REMARK    1  A    between atoms: N4_17  and  C9_18 
REMARK    2  A    between atoms: C9_18  and  C10_19 
REMARK    3  A    between atoms: C10_19  and  O3_20 
REMARK    4  A    between atoms: C10_19  and  C11_22 
REMARK    5  A    between atoms: C11_22  and  O4_23 
REMARK    6  A    between atoms: C11_22  and  C12_25 
REMARK    7  A    between atoms: C12_25  and  O5_26 
REMARK    8  A    between atoms: C12_25  and  C13_28 
REMARK    9  A    between atoms: C13_28  and  O6_29 
REMARK   10  A    between atoms: O6_29  and  P1_30 
ROOT
HETATM    1  C1  UNL     1      28.114  10.435  21.170  1.00  0.00     0.049 C 
HETATM    2  C2  UNL     1      26.986  10.038  22.047  1.00  0.00    -0.054 A 
HETATM    3  C3  UNL     1      26.139   9.012  21.689  1.00  0.00     0.039 A 
HETATM    4  C4  UNL     1      25.077   8.620  22.491  1.00  0.00     0.060 A 
HETATM    5  N1  UNL     1      24.286   7.608  22.093  1.00  0.00    -0.347 N 
ATOM      6  H1  UNL     1      24.473   7.141  21.205  1.00  0.00     0.166 HD
HETATM    7  C5  UNL     1      23.258   7.205  22.849  1.00  0.00     0.146 A 
HETATM    8  C6  UNL     1      22.406   6.157  22.481  1.00  0.00     0.280 A 
HETATM    9  O1  UNL     1      22.628   5.583  21.399  1.00  0.00    -0.265 OA
HETATM   10  N2  UNL     1      21.382   5.803  23.297  1.00  0.00    -0.273 N 
ATOM     11  H2  UNL     1      20.758   5.040  23.032  1.00  0.00     0.173 HD
HETATM   12  C7  UNL     1      21.188   6.458  24.455  1.00  0.00     0.328 A 
HETATM   13  O2  UNL     1      20.220   6.080  25.166  1.00  0.00    -0.247 OA
HETATM   14  N3  UNL     1      21.994   7.486  24.853  1.00  0.00    -0.292 N 
ATOM     15  H3  UNL     1      21.807   7.953  25.741  1.00  0.00     0.172 HD
HETATM   16  C8  UNL     1      23.027   7.894  24.101  1.00  0.00     0.145 A 
HETATM   17  N4  UNL     1      23.857   8.920  24.465  1.00  0.00    -0.327 N 
HETATM   18  C14 UNL     1      24.886   9.310  23.694  1.00  0.00     0.063 A 
HETATM   19  C15 UNL     1      25.730  10.340  24.060  1.00  0.00     0.039 A 
HETATM   20  C16 UNL     1      26.780  10.705  23.239  1.00  0.00    -0.054 A 
HETATM   21  C17 UNL     1      27.697  11.809  23.616  1.00  0.00     0.049 C 
ENDROOT
BRANCH  17  22
HETATM   22  C9  UNL     1      23.584   9.573  25.726  1.00  0.00     0.165 C 
BRANCH  22  23
HETATM   23  C10 UNL     1      24.514   8.961  26.782  1.00  0.00     0.167 C 
BRANCH  23  24
HETATM   24  O3  UNL     1      24.167   7.694  27.162  1.00  0.00    -0.391 OA
ATOM     25  H3  UNL     1      24.908   7.125  27.333  1.00  0.00     0.210 HD
ENDBRANCH  23  24
BRANCH  23  26
HETATM   26  C11 UNL     1      24.791   9.841  27.915  1.00  0.00     0.179 C 
BRANCH  26  27
HETATM   27  O4  UNL     1      25.182  11.105  27.465  1.00  0.00    -0.390 OA
ATOM     28  H4  UNL     1      25.654  11.568  28.148  1.00  0.00     0.210 HD
ENDBRANCH  26  27
BRANCH  26  29
HETATM   29  C12 UNL     1      25.614   9.432  29.055  1.00  0.00     0.173 C 
BRANCH  29  30
HETATM   30  O5  UNL     1      24.714   8.667  29.889  1.00  0.00    -0.391 OA
ATOM     31  H5  UNL     1      25.187   7.863  30.068  1.00  0.00     0.210 HD
ENDBRANCH  29  30
BRANCH  29  32
HETATM   32  C13 UNL     1      26.042  10.545  30.007  1.00  0.00     0.217 C 
BRANCH  32  33
HETATM   33  O6  UNL     1      27.414  10.346  30.348  1.00  0.00    -0.280 OA
BRANCH  33  34
HETATM   34  P1  UNL     1      28.367  11.505  29.587  1.00  0.00     0.422 P 
HETATM   35  O7  UNL     1      27.978  12.853  30.096  1.00  0.00    -0.617 OA
HETATM   36  O8  UNL     1      28.177  11.477  27.910  1.00  0.00    -0.617 OA
HETATM   37  O9  UNL     1      30.016  11.273  29.926  1.00  0.00    -0.617 OA
ENDBRANCH  33  34
ENDBRANCH  32  33
ENDBRANCH  29  32
ENDBRANCH  26  29
ENDBRANCH  23  26
ENDBRANCH  22  23
ENDBRANCH  17  22
TORSDOF 10
ENDMDL
