MODEL 6
REMARK VINA RESULT: -9.024901387      3.726      7.360
REMARK  10 active torsions:
REMARK  status: ('A' for Active; 'I' for Inactive)
REMARK    1  A    between atoms: N4_17  and  C9_18 
REMARK    2  A    between atoms: C9_18  and  C10_19 
REMARK    3  A    between atoms: C10_19  and  O3_20 
REMARK    4  A    between atoms: C10_19  and  C11_22 
REMARK    5  A    between atoms: C11_22  and  O4_23 
REMARK    6  A    between atoms: C11_22  and  C12_25 
REMARK    7  A    between atoms: C12_25  and  O5_26 
REMARK    8  A    between atoms: C12_25  and  C13_28 
REMARK    9  A    between atoms: C13_28  and  O6_29 
REMARK   10  A    between atoms: O6_29  and  P1_30 
ROOT
HETATM    1  C1  UNL     1      19.382  13.697  24.425  1.00  0.00     0.049 C 
HETATM    2  C2  UNL     1      20.617  13.004  24.864  1.00  0.00    -0.054 A 
HETATM    3  C3  UNL     1      20.782  12.612  26.174  1.00  0.00     0.039 A 
HETATM    4  C4  UNL     1      21.927  11.962  26.611  1.00  0.00     0.060 A 
HETATM    5  N1  UNL     1      22.029  11.598  27.902  1.00  0.00    -0.347 N 
ATOM      6  H1  UNL     1      21.266  11.806  28.546  1.00  0.00     0.166 HD
HETATM    7  C5  UNL     1      23.120  10.965  28.349  1.00  0.00     0.146 A 
HETATM    8  C6  UNL     1      23.276  10.564  29.682  1.00  0.00     0.280 A 
HETATM    9  O1  UNL     1      22.349  10.815  30.474  1.00  0.00    -0.265 OA
HETATM   10  N2  UNL     1      24.410   9.926  30.065  1.00  0.00    -0.273 N 
ATOM     11  H2  UNL     1      24.527   9.633  31.035  1.00  0.00     0.173 HD
HETATM   12  C7  UNL     1      25.380   9.681  29.166  1.00  0.00     0.328 A 
HETATM   13  O2  UNL     1      26.406   9.085  29.587  1.00  0.00    -0.247 OA
HETATM   14  N3  UNL     1      25.270  10.054  27.857  1.00  0.00    -0.292 N 
ATOM     15  H3  UNL     1      26.032   9.846  27.213  1.00  0.00     0.172 HD
HETATM   16  C8  UNL     1      24.179  10.688  27.402  1.00  0.00     0.145 A 
HETATM   17  N4  UNL     1      24.031  11.078  26.098  1.00  0.00    -0.327 N 
HETATM   18  C14 UNL     1      22.929  11.712  25.666  1.00  0.00     0.063 A 
HETATM   19  C15 UNL     1      22.773  12.102  24.350  1.00  0.00     0.039 A 
HETATM   20  C16 UNL     1      21.619  12.747  23.947  1.00  0.00    -0.054 A 
HETATM   21  C17 UNL     1      21.433  13.173  22.537  1.00  0.00     0.049 C 
ENDROOT
BRANCH  17  22
HETATM   22  C9  UNL     1      25.119  10.777  25.193  1.00  0.00     0.165 C 
BRANCH  22  23
HETATM   23  C10 UNL     1      24.757   9.490  24.439  1.00  0.00     0.167 C 
BRANCH  23  24
HETATM   24  O3  UNL     1      24.887   8.352  25.186  1.00  0.00    -0.391 OA
ATOM     25  H3  UNL     1      25.502   7.722  24.827  1.00  0.00     0.210 HD
ENDBRANCH  23  24
BRANCH  23  26
HETATM   26  C11 UNL     1      25.371   9.380  23.118  1.00  0.00     0.179 C 
BRANCH  26  27
HETATM   27  O4  UNL     1      25.425  10.632  22.500  1.00  0.00    -0.390 OA
ATOM     28  H4  UNL     1      25.708  10.544  21.597  1.00  0.00     0.210 HD
ENDBRANCH  26  27
BRANCH  26  29
HETATM   29  C12 UNL     1      24.988   8.352  22.147  1.00  0.00     0.173 C 
BRANCH  29  30
HETATM   30  O5  UNL     1      25.665   8.740  20.931  1.00  0.00    -0.391 OA
ATOM     31  H5  UNL     1      26.384   8.124  20.855  1.00  0.00     0.210 HD
ENDBRANCH  29  30
BRANCH  29  32
HETATM   32  C13 UNL     1      23.529   8.359  21.703  1.00  0.00     0.217 C 
BRANCH  32  33
HETATM   33  O6  UNL     1      22.910   7.157  22.161  1.00  0.00    -0.280 OA
BRANCH  33  34
HETATM   34  P1  UNL     1      21.653   7.527  23.216  1.00  0.00     0.422 P 
HETATM   35  O7  UNL     1      20.490   6.646  22.900  1.00  0.00    -0.617 OA
HETATM   36  O8  UNL     1      21.170   9.139  23.084  1.00  0.00    -0.617 OA
HETATM   37  O9  UNL     1      22.096   7.249  24.833  1.00  0.00    -0.617 OA
ENDBRANCH  33  34
ENDBRANCH  32  33
ENDBRANCH  29  32
ENDBRANCH  26  29
ENDBRANCH  23  26
ENDBRANCH  22  23
ENDBRANCH  17  22
TORSDOF 10
ENDMDL
