MODEL 4
REMARK VINA RESULT: -9.194599852      4.014      7.137
REMARK  10 active torsions:
REMARK  status: ('A' for Active; 'I' for Inactive)
REMARK    1  A    between atoms: N4_17  and  C9_18 
REMARK    2  A    between atoms: C9_18  and  C10_19 
REMARK    3  A    between atoms: C10_19  and  O3_20 
REMARK    4  A    between atoms: C10_19  and  C11_22 
REMARK    5  A    between atoms: C11_22  and  O4_23 
REMARK    6  A    between atoms: C11_22  and  C12_25 
REMARK    7  A    between atoms: C12_25  and  O5_26 
REMARK    8  A    between atoms: C12_25  and  C13_28 
REMARK    9  A    between atoms: C13_28  and  O6_29 
REMARK   10  A    between atoms: O6_29  and  P1_30 
ROOT
HETATM    1  C1  UNL     1      26.858  11.174  22.721  1.00  0.00     0.049 C 
HETATM    2  C2  UNL     1      26.580  10.875  24.147  1.00  0.00    -0.054 A 
HETATM    3  C3  UNL     1      27.435  11.302  25.139  1.00  0.00     0.039 A 
HETATM    4  C4  UNL     1      27.199  11.037  26.480  1.00  0.00     0.060 A 
HETATM    5  N1  UNL     1      28.067  11.484  27.405  1.00  0.00    -0.347 N 
ATOM      6  H1  UNL     1      28.891  12.009  27.112  1.00  0.00     0.166 HD
HETATM    7  C5  UNL     1      27.861  11.247  28.706  1.00  0.00     0.146 A 
HETATM    8  C6  UNL     1      28.733  11.690  29.708  1.00  0.00     0.280 A 
HETATM    9  O1  UNL     1      29.740  12.331  29.358  1.00  0.00    -0.265 OA
HETATM   10  N2  UNL     1      28.461  11.413  31.008  1.00  0.00    -0.273 N 
ATOM     11  H2  UNL     1      29.093  11.734  31.741  1.00  0.00     0.173 HD
HETATM   12  C7  UNL     1      27.357  10.716  31.331  1.00  0.00     0.328 A 
HETATM   13  O2  UNL     1      27.163  10.494  32.554  1.00  0.00    -0.247 OA
HETATM   14  N3  UNL     1      26.480  10.265  30.386  1.00  0.00    -0.292 N 
ATOM     15  H3  UNL     1      25.656   9.740  30.679  1.00  0.00     0.172 HD
HETATM   16  C8  UNL     1      26.679  10.498  29.080  1.00  0.00     0.145 A 
HETATM   17  N4  UNL     1      25.825  10.063  28.104  1.00  0.00    -0.327 N 
HETATM   18  C14 UNL     1      26.047  10.310  26.803  1.00  0.00     0.063 A 
HETATM   19  C15 UNL     1      25.183   9.879  25.814  1.00  0.00     0.039 A 
HETATM   20  C16 UNL     1      25.447  10.160  24.487  1.00  0.00    -0.054 A 
HETATM   21  C17 UNL     1      24.531   9.705  23.412  1.00  0.00     0.049 C 
ENDROOT
BRANCH  17  22
HETATM   22  C9  UNL     1      24.659   9.321  28.531  1.00  0.00     0.165 C 
BRANCH  22  23
HETATM   23  C10 UNL     1      23.636  10.328  29.074  1.00  0.00     0.167 C 
BRANCH  23  24
HETATM   24  O3  UNL     1      23.192  10.045  30.336  1.00  0.00    -0.391 OA
ATOM     25  H3  UNL     1      23.838   9.618  30.886  1.00  0.00     0.210 HD
ENDBRANCH  23  24
BRANCH  23  26
HETATM   26  C11 UNL     1      22.553  10.638  28.143  1.00  0.00     0.179 C 
BRANCH  26  27
HETATM   27  O4  UNL     1      22.490   9.676  27.132  1.00  0.00    -0.390 OA
ATOM     28  H4  UNL     1      23.112   9.878  26.443  1.00  0.00     0.210 HD
ENDBRANCH  26  27
BRANCH  26  29
HETATM   29  C12 UNL     1      22.345  11.975  27.584  1.00  0.00     0.173 C 
BRANCH  29  30
HETATM   30  O5  UNL     1      20.959  12.269  27.867  1.00  0.00    -0.391 OA
ATOM     31  H5  UNL     1      20.575  11.423  28.068  1.00  0.00     0.210 HD
ENDBRANCH  29  30
BRANCH  29  32
HETATM   32  C13 UNL     1      22.377  12.079  26.063  1.00  0.00     0.217 C 
BRANCH  32  33
HETATM   33  O6  UNL     1      21.879  13.363  25.686  1.00  0.00    -0.280 OA
BRANCH  33  34
HETATM   34  P1  UNL     1      20.639  13.189  24.563  1.00  0.00     0.422 P 
HETATM   35  O7  UNL     1      19.332  13.346  25.266  1.00  0.00    -0.617 OA
HETATM   36  O8  UNL     1      20.676  11.680  23.808  1.00  0.00    -0.617 OA
HETATM   37  O9  UNL     1      20.727  14.377  23.351  1.00  0.00    -0.617 OA
ENDBRANCH  33  34
ENDBRANCH  32  33
ENDBRANCH  29  32
ENDBRANCH  26  29
ENDBRANCH  23  26
ENDBRANCH  22  23
ENDBRANCH  17  22
TORSDOF 10
ENDMDL
