MODEL 7
REMARK VINA RESULT: -9.154114550      3.317      4.565
REMARK  5 active torsions:
REMARK  status: ('A' for Active; 'I' for Inactive)
REMARK    1  A    between atoms: C1_2  and  C2_6 
REMARK    2  A    between atoms: C5_9  and  C6_10 
REMARK    3  A    between atoms: N3_14  and  C9_15 
REMARK    4  A    between atoms: C9_15  and  C10_16 
REMARK    5  A    between atoms: C21_30  and  O5_31 
ROOT
HETATM    1  C6  UNL     1      13.887 -13.290  21.227  1.00  0.00     0.270 C 
HETATM    2  C7  UNL     1      15.363 -13.425  21.446  1.00  0.00     0.131 C 
HETATM    3  C8  UNL     1      16.114 -13.752  20.190  1.00  0.00     0.234 C 
HETATM    4  O1  UNL     1      15.701 -14.443  19.203  1.00  0.00    -0.272 OA
HETATM    5  N3  UNL     1      17.383 -13.127  20.335  1.00  0.00    -0.283 N 
HETATM    6  C17 UNL     1      17.172 -11.956  21.109  1.00  0.00     0.234 C 
HETATM    7  O4  UNL     1      18.002 -11.070  21.347  1.00  0.00    -0.272 OA
HETATM    8  C18 UNL     1      15.768 -11.962  21.598  1.00  0.00     0.127 C 
HETATM    9  C19 UNL     1      14.818 -11.269  20.645  1.00  0.00     0.240 C 
HETATM   10  C20 UNL     1      14.209 -10.119  21.410  1.00  0.00     0.070 C 
HETATM   11  C21 UNL     1      12.814 -10.072  20.867  1.00  0.00     0.148 C 
HETATM   12  C22 UNL     1      12.518 -11.517  20.515  1.00  0.00     0.305 C 
HETATM   13  N4  UNL     1      13.768 -12.192  20.318  1.00  0.00     0.106 N 
ENDROOT
BRANCH   1  14
HETATM   14  C5  UNL     1      13.327 -14.568  20.752  1.00  0.00    -0.024 A 
HETATM   15  C4  UNL     1      12.627 -14.584  19.573  1.00  0.00     0.010 A 
HETATM   16  C3  UNL     1      12.050 -15.720  19.021  1.00  0.00     0.015 A 
HETATM   17  C2  UNL     1      12.182 -16.917  19.693  1.00  0.00     0.004 A 
HETATM   18  C24 UNL     1      12.883 -16.922  20.883  1.00  0.00     0.015 A 
HETATM   19  C23 UNL     1      13.454 -15.766  21.415  1.00  0.00     0.010 A 
BRANCH  17  20
HETATM   20  C1  UNL     1      11.577 -18.113  19.118  1.00  0.00     0.120 C 
HETATM   21  N1  UNL     1      11.730 -19.362  19.809  1.00  0.00    -0.082 NA
HETATM   22  N2  UNL     1      10.905 -18.133  18.021  1.00  0.00    -0.387 N 
ATOM     23  H22 UNL     1      10.482 -18.970  17.619  1.00  0.00     0.157 HD
ATOM     24  H21 UNL     1      10.796 -17.246  17.531  1.00  0.00     0.157 HD
ENDBRANCH  17  20
ENDBRANCH   1  14
BRANCH   5  25
HETATM   25  C9  UNL     1      18.618 -13.613  19.787  1.00  0.00     0.173 C 
BRANCH  25  26
HETATM   26  C10 UNL     1      19.531 -14.188  20.805  1.00  0.00    -0.037 A 
HETATM   27  C11 UNL     1      19.382 -15.477  21.269  1.00  0.00     0.012 A 
HETATM   28  C12 UNL     1      20.221 -16.025  22.215  1.00  0.00     0.040 A 
HETATM   29  C13 UNL     1      21.263 -15.290  22.742  1.00  0.00     0.105 A 
HETATM   30  C14 UNL     1      21.430 -14.000  22.291  1.00  0.00     0.105 A 
HETATM   31  O3  UNL     1      22.237 -15.594  23.688  1.00  0.00    -0.323 OA
HETATM   32  C15 UNL     1      20.587 -13.455  21.346  1.00  0.00     0.048 A 
HETATM   33  O2  UNL     1      22.530 -13.508  22.979  1.00  0.00    -0.323 OA
HETATM   34  C16 UNL     1      22.822 -14.367  24.078  1.00  0.00     0.352 C 
ENDBRANCH  25  26
ENDBRANCH   5  25
BRANCH  11  35
HETATM   35  O5  UNL     1      12.657  -9.228  19.787  1.00  0.00    -0.394 OA
ATOM     36  H5  UNL     1      11.857  -9.372  19.295  1.00  0.00     0.210 HD
ENDBRANCH  11  35
TORSDOF 5
ENDMDL
