MODEL 5
REMARK VINA RESULT: -9.471624712      3.779      7.343
REMARK  5 active torsions:
REMARK  status: ('A' for Active; 'I' for Inactive)
REMARK    1  A    between atoms: C1_2  and  C2_6 
REMARK    2  A    between atoms: C5_9  and  C6_10 
REMARK    3  A    between atoms: N3_14  and  C9_15 
REMARK    4  A    between atoms: C9_15  and  C10_16 
REMARK    5  A    between atoms: C21_30  and  O5_31 
ROOT
HETATM    1  C6  UNL     1      17.048 -15.049  20.504  1.00  0.00     0.270 C 
HETATM    2  C7  UNL     1      16.313 -14.066  19.644  1.00  0.00     0.131 C 
HETATM    3  C8  UNL     1      15.129 -13.455  20.331  1.00  0.00     0.234 C 
HETATM    4  O1  UNL     1      14.376 -14.002  21.201  1.00  0.00    -0.272 OA
HETATM    5  N3  UNL     1      15.027 -12.138  19.808  1.00  0.00    -0.283 N 
HETATM    6  C17 UNL     1      16.348 -11.716  19.509  1.00  0.00     0.234 C 
HETATM    7  O4  UNL     1      16.700 -10.583  19.157  1.00  0.00    -0.272 OA
HETATM    8  C18 UNL     1      17.264 -12.874  19.690  1.00  0.00     0.127 C 
HETATM    9  C19 UNL     1      17.817 -12.962  21.095  1.00  0.00     0.240 C 
HETATM   10  C20 UNL     1      19.317 -12.853  20.972  1.00  0.00     0.070 C 
HETATM   11  C21 UNL     1      19.800 -13.763  22.058  1.00  0.00     0.148 C 
HETATM   12  C22 UNL     1      18.718 -14.823  22.143  1.00  0.00     0.305 C 
HETATM   13  N4  UNL     1      17.508 -14.266  21.610  1.00  0.00     0.106 N 
ENDROOT
BRANCH   1  14
HETATM   14  C5  UNL     1      16.165 -16.177  20.851  1.00  0.00    -0.024 A 
HETATM   15  C4  UNL     1      15.991 -16.496  22.173  1.00  0.00     0.010 A 
HETATM   16  C3  UNL     1      15.189 -17.535  22.628  1.00  0.00     0.015 A 
HETATM   17  C2  UNL     1      14.520 -18.304  21.699  1.00  0.00     0.004 A 
HETATM   18  C24 UNL     1      14.684 -17.999  20.363  1.00  0.00     0.015 A 
HETATM   19  C23 UNL     1      15.494 -16.948  19.932  1.00  0.00     0.010 A 
BRANCH  17  20
HETATM   20  C1  UNL     1      13.678 -19.398  22.171  1.00  0.00     0.120 C 
HETATM   21  N1  UNL     1      13.691 -19.722  23.569  1.00  0.00    -0.082 NA
HETATM   22  N2  UNL     1      12.913 -20.105  21.416  1.00  0.00    -0.387 N 
ATOM     23  H22 UNL     1      12.324 -20.870  21.747  1.00  0.00     0.157 HD
ATOM     24  H21 UNL     1      12.904 -19.875  20.423  1.00  0.00     0.157 HD
ENDBRANCH  17  20
ENDBRANCH   1  14
BRANCH   5  25
HETATM   25  C9  UNL     1      13.805 -11.404  19.633  1.00  0.00     0.173 C 
BRANCH  25  26
HETATM   26  C10 UNL     1      13.252 -10.865  20.900  1.00  0.00    -0.037 A 
HETATM   27  C11 UNL     1      12.167 -11.443  21.524  1.00  0.00     0.012 A 
HETATM   28  C12 UNL     1      11.641 -10.953  22.700  1.00  0.00     0.040 A 
HETATM   29  C13 UNL     1      12.193  -9.844  23.309  1.00  0.00     0.105 A 
HETATM   30  C14 UNL     1      13.278  -9.253  22.702  1.00  0.00     0.105 A 
HETATM   31  O3  UNL     1      11.865  -9.159  24.475  1.00  0.00    -0.323 OA
HETATM   32  C15 UNL     1      13.799  -9.745  21.526  1.00  0.00     0.048 A 
HETATM   33  O2  UNL     1      13.617  -8.182  23.518  1.00  0.00    -0.323 OA
HETATM   34  C16 UNL     1      12.550  -7.922  24.425  1.00  0.00     0.352 C 
ENDBRANCH  25  26
ENDBRANCH   5  25
BRANCH  11  35
HETATM   35  O5  UNL     1      20.013 -13.136  23.268  1.00  0.00    -0.394 OA
ATOM     36  H5  UNL     1      20.285 -13.720  23.966  1.00  0.00     0.210 HD
ENDBRANCH  11  35
TORSDOF 5
ENDMDL
