MODEL 1
REMARK VINA RESULT: -10.887613527      0.000      0.000
REMARK  5 active torsions:
REMARK  status: ('A' for Active; 'I' for Inactive)
REMARK    1  A    between atoms: C1_2  and  C2_6 
REMARK    2  A    between atoms: C5_9  and  C6_10 
REMARK    3  A    between atoms: N3_14  and  C9_15 
REMARK    4  A    between atoms: C9_15  and  C10_16 
REMARK    5  A    between atoms: C21_30  and  O5_31 
ROOT
HETATM    1  C6  UNL     1      16.239 -11.267  19.712  1.00  0.00     0.270 C 
HETATM    2  C7  UNL     1      17.397 -11.796  20.503  1.00  0.00     0.131 C 
HETATM    3  C8  UNL     1      17.208 -13.218  20.939  1.00  0.00     0.234 C 
HETATM    4  O1  UNL     1      16.112 -13.795  21.233  1.00  0.00    -0.272 OA
HETATM    5  N3  UNL     1      18.512 -13.784  20.954  1.00  0.00    -0.283 N 
HETATM    6  C17 UNL     1      19.249 -13.132  19.932  1.00  0.00     0.234 C 
HETATM    7  O4  UNL     1      20.384 -13.427  19.537  1.00  0.00    -0.272 OA
HETATM    8  C18 UNL     1      18.426 -12.014  19.398  1.00  0.00     0.127 C 
HETATM    9  C19 UNL     1      17.558 -12.437  18.234  1.00  0.00     0.240 C 
HETATM   10  C20 UNL     1      17.981 -11.592  17.057  1.00  0.00     0.070 C 
HETATM   11  C21 UNL     1      16.688 -11.375  16.332  1.00  0.00     0.148 C 
HETATM   12  C22 UNL     1      15.652 -11.385  17.439  1.00  0.00     0.305 C 
HETATM   13  N4  UNL     1      16.198 -12.105  18.553  1.00  0.00     0.106 N 
ENDROOT
BRANCH   1  14
HETATM   14  C5  UNL     1      15.019 -11.270  20.539  1.00  0.00    -0.024 A 
HETATM   15  C4  UNL     1      14.808 -10.229  21.407  1.00  0.00     0.010 A 
HETATM   16  C3  UNL     1      13.702 -10.117  22.240  1.00  0.00     0.015 A 
HETATM   17  C2  UNL     1      12.747 -11.111  22.200  1.00  0.00     0.004 A 
HETATM   18  C24 UNL     1      12.941 -12.167  21.333  1.00  0.00     0.015 A 
HETATM   19  C23 UNL     1      14.061 -12.255  20.506  1.00  0.00     0.010 A 
BRANCH  17  20
HETATM   20  C1  UNL     1      11.583 -10.999  23.074  1.00  0.00     0.120 C 
HETATM   21  N1  UNL     1      11.394  -9.785  23.815  1.00  0.00    -0.082 NA
HETATM   22  N2  UNL     1      10.701 -11.922  23.232  1.00  0.00    -0.387 N 
ATOM     23  H22 UNL     1       9.887 -11.843  23.843  1.00  0.00     0.157 HD
ATOM     24  H21 UNL     1      10.835 -12.784  22.705  1.00  0.00     0.157 HD
ENDBRANCH  17  20
ENDBRANCH   1  14
BRANCH   5  25
HETATM   25  C9  UNL     1      18.960 -14.819  21.843  1.00  0.00     0.173 C 
BRANCH  25  26
HETATM   26  C10 UNL     1      19.953 -14.353  22.841  1.00  0.00    -0.037 A 
HETATM   27  C11 UNL     1      19.575 -13.675  23.980  1.00  0.00     0.012 A 
HETATM   28  C12 UNL     1      20.486 -13.233  24.916  1.00  0.00     0.040 A 
HETATM   29  C13 UNL     1      21.836 -13.460  24.744  1.00  0.00     0.105 A 
HETATM   30  C14 UNL     1      22.235 -14.137  23.614  1.00  0.00     0.105 A 
HETATM   31  O3  UNL     1      22.944 -13.129  25.519  1.00  0.00    -0.323 OA
HETATM   32  C15 UNL     1      21.321 -14.574  22.680  1.00  0.00     0.048 A 
HETATM   33  O2  UNL     1      23.617 -14.219  23.703  1.00  0.00    -0.323 OA
HETATM   34  C16 UNL     1      24.082 -13.312  24.698  1.00  0.00     0.352 C 
ENDBRANCH  25  26
ENDBRANCH   5  25
BRANCH  11  35
HETATM   35  O5  UNL     1      16.422 -12.315  15.359  1.00  0.00    -0.394 OA
ATOM     36  H5  UNL     1      16.849 -13.152  15.499  1.00  0.00     0.210 HD
ENDBRANCH  11  35
TORSDOF 5
ENDMDL
