MODEL 6
REMARK VINA RESULT: -9.400559477      4.907      8.232
REMARK  5 active torsions:
REMARK  status: ('A' for Active; 'I' for Inactive)
REMARK    1  A    between atoms: C1_2  and  C2_6 
REMARK    2  A    between atoms: C5_9  and  C6_10 
REMARK    3  A    between atoms: N3_14  and  C9_15 
REMARK    4  A    between atoms: C9_15  and  C10_16 
REMARK    5  A    between atoms: C21_30  and  O5_31 
ROOT
HETATM    1  C6  UNL     1      14.390 -16.447  19.105  1.00  0.00     0.270 C 
HETATM    2  C7  UNL     1      14.712 -14.989  18.984  1.00  0.00     0.131 C 
HETATM    3  C8  UNL     1      13.547 -14.102  19.306  1.00  0.00     0.234 C 
HETATM    4  O1  UNL     1      12.313 -14.348  19.107  1.00  0.00    -0.272 OA
HETATM    5  N3  UNL     1      14.111 -12.931  19.882  1.00  0.00    -0.283 N 
HETATM    6  C17 UNL     1      15.287 -13.341  20.564  1.00  0.00     0.234 C 
HETATM    7  O4  UNL     1      15.993 -12.642  21.301  1.00  0.00    -0.272 OA
HETATM    8  C18 UNL     1      15.541 -14.771  20.246  1.00  0.00     0.127 C 
HETATM    9  C19 UNL     1      14.877 -15.710  21.229  1.00  0.00     0.240 C 
HETATM   10  C20 UNL     1      15.985 -16.511  21.869  1.00  0.00     0.070 C 
HETATM   11  C21 UNL     1      15.345 -17.851  22.063  1.00  0.00     0.148 C 
HETATM   12  C22 UNL     1      14.360 -17.947  20.914  1.00  0.00     0.305 C 
HETATM   13  N4  UNL     1      14.048 -16.615  20.484  1.00  0.00     0.106 N 
ENDROOT
BRANCH   1  14
HETATM   14  C5  UNL     1      13.335 -16.813  18.142  1.00  0.00    -0.024 A 
HETATM   15  C4  UNL     1      13.599 -16.703  16.801  1.00  0.00     0.010 A 
HETATM   16  C3  UNL     1      12.690 -17.013  15.797  1.00  0.00     0.015 A 
HETATM   17  C2  UNL     1      11.438 -17.462  16.160  1.00  0.00     0.004 A 
HETATM   18  C24 UNL     1      11.153 -17.579  17.506  1.00  0.00     0.015 A 
HETATM   19  C23 UNL     1      12.084 -17.262  18.495  1.00  0.00     0.010 A 
BRANCH  17  20
HETATM   20  C1  UNL     1      10.480 -17.788  15.110  1.00  0.00     0.120 C 
HETATM   21  N1  UNL     1      10.492 -17.012  13.903  1.00  0.00    -0.082 NA
HETATM   22  N2  UNL     1       9.610 -18.734  15.186  1.00  0.00    -0.387 N 
ATOM     23  H22 UNL     1       8.940 -18.962  14.451  1.00  0.00     0.157 HD
ATOM     24  H21 UNL     1       9.602 -19.285  16.043  1.00  0.00     0.157 HD
ENDBRANCH  17  20
ENDBRANCH   1  14
BRANCH   5  25
HETATM   25  C9  UNL     1      13.567 -11.607  19.777  1.00  0.00     0.173 C 
BRANCH  25  26
HETATM   26  C10 UNL     1      13.039 -11.080  21.059  1.00  0.00    -0.037 A 
HETATM   27  C11 UNL     1      12.037 -11.725  21.751  1.00  0.00     0.012 A 
HETATM   28  C12 UNL     1      11.534 -11.248  22.943  1.00  0.00     0.040 A 
HETATM   29  C13 UNL     1      12.027 -10.084  23.498  1.00  0.00     0.105 A 
HETATM   30  C14 UNL     1      13.029  -9.425  22.823  1.00  0.00     0.105 A 
HETATM   31  O3  UNL     1      11.705  -9.397  24.665  1.00  0.00    -0.323 OA
HETATM   32  C15 UNL     1      13.527  -9.905  21.631  1.00  0.00     0.048 A 
HETATM   33  O2  UNL     1      13.324  -8.311  23.597  1.00  0.00    -0.323 OA
HETATM   34  C16 UNL     1      12.287  -8.112  24.553  1.00  0.00     0.352 C 
ENDBRANCH  25  26
ENDBRANCH   5  25
BRANCH  11  35
HETATM   35  O5  UNL     1      14.735 -18.014  23.290  1.00  0.00    -0.394 OA
ATOM     36  H5  UNL     1      14.514 -18.914  23.498  1.00  0.00     0.210 HD
ENDBRANCH  11  35
TORSDOF 5
ENDMDL
