MODEL 1
REMARK VINA RESULT: -6.854970052      0.000      0.000
REMARK  9 active torsions:
REMARK  status: ('A' for Active; 'I' for Inactive)
REMARK       I    between atoms: C2_2  and  N1_4 
REMARK    1  A    between atoms: N1_4  and  C3_6 
REMARK    2  A    between atoms: C4_7  and  O2_8 
REMARK    3  A    between atoms: C6_11  and  C7_12 
REMARK    4  A    between atoms: C8_16  and  C9_17 
REMARK    5  A    between atoms: C9_17  and  O6_18 
REMARK    6  A    between atoms: C9_17  and  C10_20 
REMARK    7  A    between atoms: C10_20  and  O7_21 
REMARK    8  A    between atoms: C10_20  and  C11_23 
REMARK    9  A    between atoms: C11_23  and  O8_24 
ROOT
HETATM    1  C3  UNL     1     -23.862  24.132 156.209  1.00  0.00     0.149 C 
HETATM    2  C4  UNL     1     -24.134  23.977 157.683  1.00  0.00     0.169 C 
HETATM    3  C5  UNL     1     -25.600  23.937 157.867  1.00  0.00     0.050 C 
HETATM    4  C6  UNL     1     -26.383  23.484 156.913  1.00  0.00     0.144 C 
HETATM    5  O5  UNL     1     -25.886  23.031 155.712  1.00  0.00    -0.335 OA
HETATM    6  C8  UNL     1     -24.516  23.025 155.391  1.00  0.00     0.186 C 
ENDROOT
BRANCH   6   7
HETATM    7  C9  UNL     1     -24.237  23.358 153.965  1.00  0.00     0.180 C 
BRANCH   7   8
HETATM    8  O6  UNL     1     -24.225  24.729 153.775  1.00  0.00    -0.390 OA
ATOM      9  H6  UNL     1     -23.692  24.959 153.023  1.00  0.00     0.210 HD
ENDBRANCH   7   8
BRANCH   7  10
HETATM   10  C10 UNL     1     -25.112  22.679 152.973  1.00  0.00     0.173 C 
BRANCH  10  11
HETATM   11  O7  UNL     1     -25.228  21.329 153.383  1.00  0.00    -0.391 OA
ATOM     12  H7  UNL     1     -26.152  21.161 153.520  1.00  0.00     0.210 HD
ENDBRANCH  10  11
BRANCH  10  13
HETATM   13  C11 UNL     1     -24.487  22.620 151.586  1.00  0.00     0.198 C 
BRANCH  13  14
HETATM   14  O8  UNL     1     -23.213  23.180 151.605  1.00  0.00    -0.398 OA
ATOM     15  H8  UNL     1     -22.708  22.829 152.329  1.00  0.00     0.209 HD
ENDBRANCH  13  14
ENDBRANCH  10  13
ENDBRANCH   7  10
ENDBRANCH   6   7
BRANCH   1  16
HETATM   16  N1  UNL     1     -22.434  24.015 156.002  1.00  0.00    -0.351 N 
HETATM   17  C2  UNL     1     -21.550  25.122 155.976  1.00  0.00     0.214 C 
HETATM   18  C1  UNL     1     -20.074  24.943 155.757  1.00  0.00     0.117 C 
HETATM   19  O1  UNL     1     -22.028  26.266 156.142  1.00  0.00    -0.274 OA
ATOM     20  H1  UNL     1     -22.041  23.083 155.867  1.00  0.00     0.163 HD
ENDBRANCH   1  16
BRANCH   2  21
HETATM   21  O2  UNL     1     -23.649  25.120 158.316  1.00  0.00    -0.389 OA
ATOM     22  H2  UNL     1     -23.391  24.869 159.194  1.00  0.00     0.210 HD
ENDBRANCH   2  21
BRANCH   4  23
HETATM   23  C7  UNL     1     -27.839  23.469 157.158  1.00  0.00     0.233 C 
HETATM   24  O3  UNL     1     -28.415  22.468 157.609  1.00  0.00    -0.642 OA
HETATM   25  O4  UNL     1     -28.613  24.592 156.887  1.00  0.00    -0.642 OA
ENDBRANCH   4  23
TORSDOF 9
ENDMDL
