MODEL 4
REMARK VINA RESULT: -6.494441491      2.041      2.277
REMARK  9 active torsions:
REMARK  status: ('A' for Active; 'I' for Inactive)
REMARK       I    between atoms: C2_2  and  N1_4 
REMARK    1  A    between atoms: N1_4  and  C3_6 
REMARK    2  A    between atoms: C4_7  and  O2_8 
REMARK    3  A    between atoms: C6_11  and  C7_12 
REMARK    4  A    between atoms: C8_16  and  C9_17 
REMARK    5  A    between atoms: C9_17  and  O6_18 
REMARK    6  A    between atoms: C9_17  and  C10_20 
REMARK    7  A    between atoms: C10_20  and  O7_21 
REMARK    8  A    between atoms: C10_20  and  C11_23 
REMARK    9  A    between atoms: C11_23  and  O8_24 
ROOT
HETATM    1  C3  UNL     1     -24.443  23.472 156.261  1.00  0.00     0.149 C 
HETATM    2  C4  UNL     1     -25.389  22.692 157.135  1.00  0.00     0.169 C 
HETATM    3  C5  UNL     1     -26.668  22.558 156.406  1.00  0.00     0.050 C 
HETATM    4  C6  UNL     1     -26.691  22.552 155.091  1.00  0.00     0.144 C 
HETATM    5  O5  UNL     1     -25.545  22.669 154.338  1.00  0.00    -0.335 OA
HETATM    6  C8  UNL     1     -24.262  22.818 154.896  1.00  0.00     0.186 C 
ENDROOT
BRANCH   6   7
HETATM    7  C9  UNL     1     -23.379  23.738 154.122  1.00  0.00     0.180 C 
BRANCH   7   8
HETATM    8  O6  UNL     1     -23.830  25.044 154.215  1.00  0.00    -0.390 OA
ATOM      9  H6  UNL     1     -23.416  25.590 153.558  1.00  0.00     0.210 HD
ENDBRANCH   7   8
BRANCH   7  10
HETATM   10  C10 UNL     1     -23.139  23.345 152.708  1.00  0.00     0.173 C 
BRANCH  10  11
HETATM   11  O7  UNL     1     -23.345  21.947 152.630  1.00  0.00    -0.391 OA
ATOM     12  H7  UNL     1     -22.659  21.599 152.072  1.00  0.00     0.210 HD
ENDBRANCH  10  11
BRANCH  10  13
HETATM   13  C11 UNL     1     -21.694  23.558 152.280  1.00  0.00     0.198 C 
BRANCH  13  14
HETATM   14  O8  UNL     1     -21.003  24.281 153.248  1.00  0.00    -0.398 OA
ATOM     15  H8  UNL     1     -20.439  24.926 152.840  1.00  0.00     0.209 HD
ENDBRANCH  13  14
ENDBRANCH  10  13
ENDBRANCH   7  10
ENDBRANCH   6   7
BRANCH   1  16
HETATM   16  N1  UNL     1     -23.141  23.472 156.898  1.00  0.00    -0.351 N 
HETATM   17  C2  UNL     1     -22.692  24.499 157.764  1.00  0.00     0.214 C 
HETATM   18  C1  UNL     1     -21.331  24.450 158.400  1.00  0.00     0.117 C 
HETATM   19  O1  UNL     1     -23.460  25.460 157.995  1.00  0.00    -0.274 OA
ATOM     20  H1  UNL     1     -22.514  22.690 156.712  1.00  0.00     0.163 HD
ENDBRANCH   1  16
BRANCH   2  21
HETATM   21  O2  UNL     1     -25.621  23.455 158.279  1.00  0.00    -0.389 OA
ATOM     22  H2  UNL     1     -25.573  24.369 158.022  1.00  0.00     0.210 HD
ENDBRANCH   2  21
BRANCH   4  23
HETATM   23  C7  UNL     1     -28.000  22.416 154.420  1.00  0.00     0.233 C 
HETATM   24  O3  UNL     1     -28.661  21.369 154.486  1.00  0.00    -0.642 OA
HETATM   25  O4  UNL     1     -28.531  23.471 153.687  1.00  0.00    -0.642 OA
ENDBRANCH   4  23
TORSDOF 9
ENDMDL
