MODEL 2
REMARK VINA RESULT: -6.693944615      2.249      4.594
REMARK  9 active torsions:
REMARK  status: ('A' for Active; 'I' for Inactive)
REMARK       I    between atoms: C2_2  and  N1_4 
REMARK    1  A    between atoms: N1_4  and  C3_6 
REMARK    2  A    between atoms: C4_7  and  O2_8 
REMARK    3  A    between atoms: C6_11  and  C7_12 
REMARK    4  A    between atoms: C8_16  and  C9_17 
REMARK    5  A    between atoms: C9_17  and  O6_18 
REMARK    6  A    between atoms: C9_17  and  C10_20 
REMARK    7  A    between atoms: C10_20  and  O7_21 
REMARK    8  A    between atoms: C10_20  and  C11_23 
REMARK    9  A    between atoms: C11_23  and  O8_24 
ROOT
HETATM    1  C3  UNL     1     -25.265  22.547 156.080  1.00  0.00     0.149 C 
HETATM    2  C4  UNL     1     -25.823  23.276 157.275  1.00  0.00     0.169 C 
HETATM    3  C5  UNL     1     -24.702  23.975 157.937  1.00  0.00     0.050 C 
HETATM    4  C6  UNL     1     -23.655  24.370 157.244  1.00  0.00     0.144 C 
HETATM    5  O5  UNL     1     -23.552  24.154 155.889  1.00  0.00    -0.335 OA
HETATM    6  C8  UNL     1     -24.533  23.489 155.131  1.00  0.00     0.186 C 
ENDROOT
BRANCH   6   7
HETATM    7  C9  UNL     1     -23.969  22.622 154.057  1.00  0.00     0.180 C 
BRANCH   7   8
HETATM    8  O6  UNL     1     -22.724  22.138 154.420  1.00  0.00    -0.390 OA
ATOM      9  H6  UNL     1     -22.105  22.235 153.707  1.00  0.00     0.210 HD
ENDBRANCH   7   8
BRANCH   7  10
HETATM   10  C10 UNL     1     -23.941  23.231 152.701  1.00  0.00     0.173 C 
BRANCH  10  11
HETATM   11  O7  UNL     1     -23.114  24.377 152.782  1.00  0.00    -0.391 OA
ATOM     12  H7  UNL     1     -23.663  25.092 153.081  1.00  0.00     0.210 HD
ENDBRANCH  10  11
BRANCH  10  13
HETATM   13  C11 UNL     1     -25.303  23.755 152.268  1.00  0.00     0.198 C 
BRANCH  13  14
HETATM   14  O8  UNL     1     -26.256  22.743 152.334  1.00  0.00    -0.398 OA
ATOM     15  H8  UNL     1     -27.042  23.055 152.765  1.00  0.00     0.209 HD
ENDBRANCH  13  14
ENDBRANCH  10  13
ENDBRANCH   7  10
ENDBRANCH   6   7
BRANCH   1  16
HETATM   16  N1  UNL     1     -26.377  21.989 155.336  1.00  0.00    -0.351 N 
HETATM   17  C2  UNL     1     -26.741  20.621 155.378  1.00  0.00     0.214 C 
HETATM   18  C1  UNL     1     -27.905  20.094 154.586  1.00  0.00     0.117 C 
HETATM   19  O1  UNL     1     -26.068  19.849 156.096  1.00  0.00    -0.274 OA
ATOM     20  H1  UNL     1     -26.928  22.617 154.751  1.00  0.00     0.163 HD
ENDBRANCH   1  16
BRANCH   2  21
HETATM   21  O2  UNL     1     -26.312  22.312 158.155  1.00  0.00    -0.389 OA
ATOM     22  H2  UNL     1     -27.059  22.692 158.602  1.00  0.00     0.210 HD
ENDBRANCH   2  21
BRANCH   4  23
HETATM   23  C7  UNL     1     -22.568  25.064 157.963  1.00  0.00     0.233 C 
HETATM   24  O3  UNL     1     -22.531  26.300 158.055  1.00  0.00    -0.642 OA
HETATM   25  O4  UNL     1     -21.544  24.340 158.564  1.00  0.00    -0.642 OA
ENDBRANCH   4  23
TORSDOF 9
ENDMDL
