MODEL 3
REMARK VINA RESULT: -6.523828674      2.301      4.601
REMARK  9 active torsions:
REMARK  status: ('A' for Active; 'I' for Inactive)
REMARK       I    between atoms: C2_2  and  N1_4 
REMARK    1  A    between atoms: N1_4  and  C3_6 
REMARK    2  A    between atoms: C4_7  and  O2_8 
REMARK    3  A    between atoms: C6_11  and  C7_12 
REMARK    4  A    between atoms: C8_16  and  C9_17 
REMARK    5  A    between atoms: C9_17  and  O6_18 
REMARK    6  A    between atoms: C9_17  and  C10_20 
REMARK    7  A    between atoms: C10_20  and  O7_21 
REMARK    8  A    between atoms: C10_20  and  C11_23 
REMARK    9  A    between atoms: C11_23  and  O8_24 
ROOT
HETATM    1  C3  UNL     1     -25.158  22.682 156.049  1.00  0.00     0.149 C 
HETATM    2  C4  UNL     1     -25.711  23.342 157.285  1.00  0.00     0.169 C 
HETATM    3  C5  UNL     1     -24.597  24.048 157.954  1.00  0.00     0.050 C 
HETATM    4  C6  UNL     1     -23.579  24.503 157.257  1.00  0.00     0.144 C 
HETATM    5  O5  UNL     1     -23.498  24.348 155.892  1.00  0.00    -0.335 OA
HETATM    6  C8  UNL     1     -24.475  23.686 155.127  1.00  0.00     0.186 C 
ENDROOT
BRANCH   6   7
HETATM    7  C9  UNL     1     -23.908  22.883 154.005  1.00  0.00     0.180 C 
BRANCH   7   8
HETATM    8  O6  UNL     1     -23.094  21.873 154.487  1.00  0.00    -0.390 OA
ATOM      9  H6  UNL     1     -22.687  22.132 155.305  1.00  0.00     0.210 HD
ENDBRANCH   7   8
BRANCH   7  10
HETATM   10  C10 UNL     1     -23.229  23.670 152.943  1.00  0.00     0.173 C 
BRANCH  10  11
HETATM   11  O7  UNL     1     -23.664  23.146 151.702  1.00  0.00    -0.391 OA
ATOM     12  H7  UNL     1     -23.544  23.832 151.056  1.00  0.00     0.210 HD
ENDBRANCH  10  11
BRANCH  10  13
HETATM   13  C11 UNL     1     -21.719  23.475 152.947  1.00  0.00     0.198 C 
BRANCH  13  14
HETATM   14  O8  UNL     1     -21.148  24.127 154.036  1.00  0.00    -0.398 OA
ATOM     15  H8  UNL     1     -21.133  23.555 154.794  1.00  0.00     0.209 HD
ENDBRANCH  13  14
ENDBRANCH  10  13
ENDBRANCH   7  10
ENDBRANCH   6   7
BRANCH   1  16
HETATM   16  N1  UNL     1     -26.268  22.122 155.305  1.00  0.00    -0.351 N 
HETATM   17  C2  UNL     1     -26.629  20.753 155.347  1.00  0.00     0.214 C 
HETATM   18  C1  UNL     1     -27.792  20.223 154.555  1.00  0.00     0.117 C 
HETATM   19  O1  UNL     1     -25.955  19.982 156.066  1.00  0.00    -0.274 OA
ATOM     20  H1  UNL     1     -26.820  22.748 154.719  1.00  0.00     0.163 HD
ENDBRANCH   1  16
BRANCH   2  21
HETATM   21  O2  UNL     1     -26.152  22.327 158.133  1.00  0.00    -0.389 OA
ATOM     22  H2  UNL     1     -25.606  22.352 158.910  1.00  0.00     0.210 HD
ENDBRANCH   2  21
BRANCH   4  23
HETATM   23  C7  UNL     1     -22.497  25.200 157.983  1.00  0.00     0.233 C 
HETATM   24  O3  UNL     1     -22.437  26.437 158.034  1.00  0.00    -0.642 OA
HETATM   25  O4  UNL     1     -21.506  24.477 158.637  1.00  0.00    -0.642 OA
ENDBRANCH   4  23
TORSDOF 9
ENDMDL
