MODEL 5
REMARK VINA RESULT: -6.414300072      1.798      2.308
REMARK  9 active torsions:
REMARK  status: ('A' for Active; 'I' for Inactive)
REMARK       I    between atoms: C2_2  and  N1_4 
REMARK    1  A    between atoms: N1_4  and  C3_6 
REMARK    2  A    between atoms: C4_7  and  O2_8 
REMARK    3  A    between atoms: C6_11  and  C7_12 
REMARK    4  A    between atoms: C8_16  and  C9_17 
REMARK    5  A    between atoms: C9_17  and  O6_18 
REMARK    6  A    between atoms: C9_17  and  C10_20 
REMARK    7  A    between atoms: C10_20  and  O7_21 
REMARK    8  A    between atoms: C10_20  and  C11_23 
REMARK    9  A    between atoms: C11_23  and  O8_24 
ROOT
HETATM    1  C3  UNL     1     -23.968  23.496 154.942  1.00  0.00     0.149 C 
HETATM    2  C4  UNL     1     -24.702  23.004 156.162  1.00  0.00     0.169 C 
HETATM    3  C5  UNL     1     -26.113  22.786 155.779  1.00  0.00     0.050 C 
HETATM    4  C6  UNL     1     -26.431  22.475 154.541  1.00  0.00     0.144 C 
HETATM    5  O5  UNL     1     -25.481  22.340 153.554  1.00  0.00    -0.335 OA
HETATM    6  C8  UNL     1     -24.105  22.532 153.770  1.00  0.00     0.186 C 
ENDROOT
BRANCH   6   7
HETATM    7  C9  UNL     1     -23.409  23.187 152.625  1.00  0.00     0.180 C 
BRANCH   7   8
HETATM    8  O6  UNL     1     -23.727  24.533 152.563  1.00  0.00    -0.390 OA
ATOM      9  H6  UNL     1     -23.020  25.028 152.168  1.00  0.00     0.210 HD
ENDBRANCH   7   8
BRANCH   7  10
HETATM   10  C10 UNL     1     -23.593  22.523 151.307  1.00  0.00     0.173 C 
BRANCH  10  11
HETATM   11  O7  UNL     1     -24.976  22.582 151.008  1.00  0.00    -0.391 OA
ATOM     12  H7  UNL     1     -25.197  23.500 150.905  1.00  0.00     0.210 HD
ENDBRANCH  10  11
BRANCH  10  13
HETATM   13  C11 UNL     1     -23.260  21.039 151.350  1.00  0.00     0.198 C 
BRANCH  13  14
HETATM   14  O8  UNL     1     -24.426  20.281 151.412  1.00  0.00    -0.398 OA
ATOM     15  H8  UNL     1     -24.263  19.397 151.106  1.00  0.00     0.209 HD
ENDBRANCH  13  14
ENDBRANCH  10  13
ENDBRANCH   7  10
ENDBRANCH   6   7
BRANCH   1  16
HETATM   16  N1  UNL     1     -22.557  23.562 155.265  1.00  0.00    -0.351 N 
HETATM   17  C2  UNL     1     -21.907  24.739 155.711  1.00  0.00     0.214 C 
HETATM   18  C1  UNL     1     -20.440  24.752 156.033  1.00  0.00     0.117 C 
HETATM   19  O1  UNL     1     -22.588  25.781 155.836  1.00  0.00    -0.274 OA
ATOM     20  H1  UNL     1     -22.000  22.713 155.165  1.00  0.00     0.163 HD
ENDBRANCH   1  16
BRANCH   2  21
HETATM   21  O2  UNL     1     -24.663  24.027 157.109  1.00  0.00    -0.389 OA
ATOM     22  H2  UNL     1     -25.265  24.702 156.819  1.00  0.00     0.210 HD
ENDBRANCH   2  21
BRANCH   4  23
HETATM   23  C7  UNL     1     -27.858  22.270 154.221  1.00  0.00     0.233 C 
HETATM   24  O3  UNL     1     -28.492  23.072 153.519  1.00  0.00    -0.642 OA
HETATM   25  O4  UNL     1     -28.538  21.158 154.704  1.00  0.00    -0.642 OA
ENDBRANCH   4  23
TORSDOF 9
ENDMDL
