MODEL 9
REMARK VINA RESULT: -6.622868949      2.985      4.498
REMARK  13 active torsions:
REMARK  status: ('A' for Active; 'I' for Inactive)
REMARK    1  A    between atoms: C2_2  and  C3_3 
REMARK    2  A    between atoms: C3_3  and  C4_4 
REMARK    3  A    between atoms: C4_4  and  S1_5 
REMARK    4  A    between atoms: S1_5  and  N1_8 
REMARK    5  A    between atoms: N1_8  and  C5_10 
REMARK    6  A    between atoms: C5_10  and  C6_11 
REMARK    7  A    between atoms: C5_10  and  C7_14 
REMARK    8  A    between atoms: C6_11  and  O3_12 
REMARK       I    between atoms: C7_14  and  N2_16 
REMARK    9  A    between atoms: N2_16  and  C8_18 
REMARK   10  A    between atoms: C8_18  and  C10_20 
REMARK       I    between atoms: C10_20  and  N3_22 
REMARK   11  A    between atoms: N3_22  and  C11_24 
REMARK   12  A    between atoms: C11_24  and  C12_25 
REMARK   13  A    between atoms: C15_28  and  C16_29 
ROOT
HETATM    1  C8  UNL     1      28.855  10.849  31.335  1.00  0.00     0.172 C 
HETATM    2  C9  UNL     1      27.585  11.693  31.664  1.00  0.00     0.042 C 
ENDROOT
BRANCH   1   3
HETATM    3  N2  UNL     1      29.857  11.817  30.884  1.00  0.00    -0.346 N 
HETATM    4  C7  UNL     1      31.166  11.680  31.359  1.00  0.00     0.243 C 
HETATM    5  O4  UNL     1      31.442  10.746  32.158  1.00  0.00    -0.271 OA
ATOM      6  H2  UNL     1      29.607  12.571  30.243  1.00  0.00     0.163 HD
BRANCH   4   7
HETATM    7  C5  UNL     1      32.312  12.575  31.000  1.00  0.00     0.208 C 
BRANCH   7   8
HETATM    8  N1  UNL     1      31.978  13.946  31.139  1.00  0.00    -0.304 N 
ATOM      9  H1  UNL     1      32.032  14.593  30.351  1.00  0.00     0.173 HD
BRANCH   8  10
HETATM   10  S1  UNL     1      31.493  14.450  32.654  1.00  0.00     0.227 S 
HETATM   11  O1  UNL     1      30.042  14.197  32.962  1.00  0.00    -0.206 OA
HETATM   12  O2  UNL     1      32.260  13.672  33.716  1.00  0.00    -0.206 OA
BRANCH  10  13
HETATM   13  C4  UNL     1      31.820  16.174  32.970  1.00  0.00     0.163 C 
BRANCH  13  14
HETATM   14  C3  UNL     1      32.003  16.411  34.453  1.00  0.00     0.016 C 
BRANCH  14  15
HETATM   15  C2  UNL     1      30.733  16.944  35.072  1.00  0.00    -0.004 C 
HETATM   16  C1  UNL     1      31.027  17.568  36.422  1.00  0.00     0.005 C 
ENDBRANCH  14  15
ENDBRANCH  13  14
ENDBRANCH  10  13
ENDBRANCH   8  10
ENDBRANCH   7   8
BRANCH   7  17
HETATM   17  C6  UNL     1      32.743  12.202  29.604  1.00  0.00     0.199 C 
BRANCH  17  18
HETATM   18  O3  UNL     1      32.240  10.921  29.301  1.00  0.00    -0.398 OA
ATOM     19  H3  UNL     1      32.116  10.856  28.362  1.00  0.00     0.209 HD
ENDBRANCH  17  18
ENDBRANCH   7  17
ENDBRANCH   4   7
ENDBRANCH   1   3
BRANCH   1  20
HETATM   20  C10 UNL     1      28.534   9.909  30.261  1.00  0.00     0.240 C 
HETATM   21  O5  UNL     1      27.437   9.270  30.327  1.00  0.00    -0.271 OA
HETATM   22  N3  UNL     1      29.376   9.662  29.149  1.00  0.00    -0.355 N 
ATOM     23  H3  UNL     1      30.251  10.180  29.065  1.00  0.00     0.162 HD
BRANCH  22  24
HETATM   24  C11 UNL     1      29.027   8.696  28.128  1.00  0.00     0.161 C 
BRANCH  24  25
HETATM   25  C12 UNL     1      29.796   7.463  28.264  1.00  0.00    -0.040 A 
HETATM   26  C13 UNL     1      29.361   6.453  29.106  1.00  0.00     0.010 A 
HETATM   27  C14 UNL     1      30.120   5.301  29.177  1.00  0.00     0.015 A 
HETATM   28  C15 UNL     1      31.277   5.106  28.459  1.00  0.00     0.004 A 
HETATM   29  C17 UNL     1      31.685   6.112  27.639  1.00  0.00     0.015 A 
HETATM   30  C18 UNL     1      30.941   7.282  27.549  1.00  0.00     0.010 A 
BRANCH  28  31
HETATM   31  C16 UNL     1      31.996   3.868  28.590  1.00  0.00     0.120 C 
HETATM   32  N4  UNL     1      31.683   2.998  29.678  1.00  0.00    -0.082 NA
HETATM   33  N5  UNL     1      32.898   3.521  27.769  1.00  0.00    -0.387 N 
ATOM     34  H52 UNL     1      33.123   4.144  26.992  1.00  0.00     0.157 HD
ATOM     35  H51 UNL     1      33.409   2.643  27.863  1.00  0.00     0.157 HD
ENDBRANCH  28  31
ENDBRANCH  24  25
ENDBRANCH  22  24
ENDBRANCH   1  20
TORSDOF 13
ENDMDL
