MODEL 3
REMARK VINA RESULT: -7.206151022      0.811      1.018
REMARK  13 active torsions:
REMARK  status: ('A' for Active; 'I' for Inactive)
REMARK    1  A    between atoms: C2_2  and  C3_3 
REMARK    2  A    between atoms: C3_3  and  C4_4 
REMARK    3  A    between atoms: C4_4  and  S1_5 
REMARK    4  A    between atoms: S1_5  and  N1_8 
REMARK    5  A    between atoms: N1_8  and  C5_10 
REMARK    6  A    between atoms: C5_10  and  C6_11 
REMARK    7  A    between atoms: C5_10  and  C7_14 
REMARK    8  A    between atoms: C6_11  and  O3_12 
REMARK       I    between atoms: C7_14  and  N2_16 
REMARK    9  A    between atoms: N2_16  and  C8_18 
REMARK   10  A    between atoms: C8_18  and  C10_20 
REMARK       I    between atoms: C10_20  and  N3_22 
REMARK   11  A    between atoms: N3_22  and  C11_24 
REMARK   12  A    between atoms: C11_24  and  C12_25 
REMARK   13  A    between atoms: C15_28  and  C16_29 
ROOT
HETATM    1  C8  UNL     1      28.499  10.830  31.454  1.00  0.00     0.172 C 
HETATM    2  C9  UNL     1      27.220  11.702  31.651  1.00  0.00     0.042 C 
ENDROOT
BRANCH   1   3
HETATM    3  N2  UNL     1      29.471  11.709  30.801  1.00  0.00    -0.346 N 
HETATM    4  C7  UNL     1      30.828  11.508  31.073  1.00  0.00     0.243 C 
HETATM    5  O4  UNL     1      31.173  10.595  31.870  1.00  0.00    -0.271 OA
ATOM      6  H2  UNL     1      29.166  12.447  30.166  1.00  0.00     0.163 HD
BRANCH   4   7
HETATM    7  C5  UNL     1      31.952  12.309  30.492  1.00  0.00     0.208 C 
BRANCH   7   8
HETATM    8  N1  UNL     1      32.893  11.491  29.816  1.00  0.00    -0.304 N 
ATOM      9  H1  UNL     1      33.451  10.796  30.311  1.00  0.00     0.173 HD
BRANCH   8  10
HETATM   10  S1  UNL     1      33.043  11.725  28.170  1.00  0.00     0.227 S 
HETATM   11  O1  UNL     1      32.422  12.996  27.660  1.00  0.00    -0.206 OA
HETATM   12  O2  UNL     1      34.519  11.837  27.806  1.00  0.00    -0.206 OA
BRANCH  10  13
HETATM   13  C4  UNL     1      32.394  10.378  27.198  1.00  0.00     0.163 C 
BRANCH  13  14
HETATM   14  C3  UNL     1      31.138  10.810  26.474  1.00  0.00     0.016 C 
BRANCH  14  15
HETATM   15  C2  UNL     1      29.909  10.478  27.285  1.00  0.00    -0.004 C 
HETATM   16  C1  UNL     1      28.915  11.621  27.225  1.00  0.00     0.005 C 
ENDBRANCH  14  15
ENDBRANCH  13  14
ENDBRANCH  10  13
ENDBRANCH   8  10
ENDBRANCH   7   8
BRANCH   7  17
HETATM   17  C6  UNL     1      32.554  13.109  31.620  1.00  0.00     0.199 C 
BRANCH  17  18
HETATM   18  O3  UNL     1      31.585  13.265  32.631  1.00  0.00    -0.398 OA
ATOM     19  H3  UNL     1      31.467  14.193  32.799  1.00  0.00     0.209 HD
ENDBRANCH  17  18
ENDBRANCH   7  17
ENDBRANCH   4   7
ENDBRANCH   1   3
BRANCH   1  20
HETATM   20  C10 UNL     1      28.171   9.698  30.588  1.00  0.00     0.240 C 
HETATM   21  O5  UNL     1      27.002   9.638  30.090  1.00  0.00    -0.271 OA
HETATM   22  N3  UNL     1      29.077   8.656  30.273  1.00  0.00    -0.355 N 
ATOM     23  H3  UNL     1      30.027   8.695  30.645  1.00  0.00     0.162 HD
BRANCH  22  24
HETATM   24  C11 UNL     1      28.693   7.538  29.436  1.00  0.00     0.161 C 
BRANCH  24  25
HETATM   25  C12 UNL     1      29.831   6.681  29.121  1.00  0.00    -0.040 A 
HETATM   26  C13 UNL     1      29.809   5.335  29.443  1.00  0.00     0.010 A 
HETATM   27  C14 UNL     1      30.908   4.571  29.100  1.00  0.00     0.015 A 
HETATM   28  C15 UNL     1      32.015   5.075  28.459  1.00  0.00     0.004 A 
HETATM   29  C17 UNL     1      32.015   6.400  28.153  1.00  0.00     0.015 A 
HETATM   30  C18 UNL     1      30.924   7.193  28.486  1.00  0.00     0.010 A 
BRANCH  28  31
HETATM   31  C16 UNL     1      33.108   4.200  28.133  1.00  0.00     0.120 C 
HETATM   32  N4  UNL     1      34.436   4.726  28.123  1.00  0.00    -0.082 NA
HETATM   33  N5  UNL     1      32.933   2.974  27.859  1.00  0.00    -0.387 N 
ATOM     34  H52 UNL     1      31.985   2.598  27.867  1.00  0.00     0.157 HD
ATOM     35  H51 UNL     1      33.710   2.353  27.629  1.00  0.00     0.157 HD
ENDBRANCH  28  31
ENDBRANCH  24  25
ENDBRANCH  22  24
ENDBRANCH   1  20
TORSDOF 13
ENDMDL
