MODEL 1
REMARK VINA RESULT: -7.300908492      0.000      0.000
REMARK  13 active torsions:
REMARK  status: ('A' for Active; 'I' for Inactive)
REMARK    1  A    between atoms: C2_2  and  C3_3 
REMARK    2  A    between atoms: C3_3  and  C4_4 
REMARK    3  A    between atoms: C4_4  and  S1_5 
REMARK    4  A    between atoms: S1_5  and  N1_8 
REMARK    5  A    between atoms: N1_8  and  C5_10 
REMARK    6  A    between atoms: C5_10  and  C6_11 
REMARK    7  A    between atoms: C5_10  and  C7_14 
REMARK    8  A    between atoms: C6_11  and  O3_12 
REMARK       I    between atoms: C7_14  and  N2_16 
REMARK    9  A    between atoms: N2_16  and  C8_18 
REMARK   10  A    between atoms: C8_18  and  C10_20 
REMARK       I    between atoms: C10_20  and  N3_22 
REMARK   11  A    between atoms: N3_22  and  C11_24 
REMARK   12  A    between atoms: C11_24  and  C12_25 
REMARK   13  A    between atoms: C15_28  and  C16_29 
ROOT
HETATM    1  C8  UNL     1      28.513  10.958  31.141  1.00  0.00     0.172 C 
HETATM    2  C9  UNL     1      27.380  12.008  30.923  1.00  0.00     0.042 C 
ENDROOT
BRANCH   1   3
HETATM    3  N2  UNL     1      29.717  11.563  30.568  1.00  0.00    -0.346 N 
HETATM    4  C7  UNL     1      30.954  11.230  31.131  1.00  0.00     0.243 C 
HETATM    5  O4  UNL     1      30.997  10.439  32.110  1.00  0.00    -0.271 OA
ATOM      6  H2  UNL     1      29.655  12.208  29.780  1.00  0.00     0.163 HD
BRANCH   4   7
HETATM    7  C5  UNL     1      32.279  11.751  30.668  1.00  0.00     0.208 C 
BRANCH   7   8
HETATM    8  N1  UNL     1      32.747  11.067  29.517  1.00  0.00    -0.304 N 
ATOM      9  H1  UNL     1      32.670  10.053  29.429  1.00  0.00     0.173 HD
BRANCH   8  10
HETATM   10  S1  UNL     1      33.429  12.003  28.315  1.00  0.00     0.227 S 
HETATM   11  O1  UNL     1      33.133  13.473  28.425  1.00  0.00    -0.206 OA
HETATM   12  O2  UNL     1      34.948  11.902  28.396  1.00  0.00    -0.206 OA
BRANCH  10  13
HETATM   13  C4  UNL     1      32.985  11.482  26.670  1.00  0.00     0.163 C 
BRANCH  13  14
HETATM   14  C3  UNL     1      32.418  10.080  26.696  1.00  0.00     0.016 C 
BRANCH  14  15
HETATM   15  C2  UNL     1      31.053  10.040  26.051  1.00  0.00    -0.004 C 
HETATM   16  C1  UNL     1      29.983  10.403  27.062  1.00  0.00     0.005 C 
ENDBRANCH  14  15
ENDBRANCH  13  14
ENDBRANCH  10  13
ENDBRANCH   8  10
ENDBRANCH   7   8
BRANCH   7  17
HETATM   17  C6  UNL     1      33.222  11.662  31.842  1.00  0.00     0.199 C 
BRANCH  17  18
HETATM   18  O3  UNL     1      33.762  10.361  31.891  1.00  0.00    -0.398 OA
ATOM     19  H3  UNL     1      34.561  10.382  32.405  1.00  0.00     0.209 HD
ENDBRANCH  17  18
ENDBRANCH   7  17
ENDBRANCH   4   7
ENDBRANCH   1   3
BRANCH   1  20
HETATM   20  C10 UNL     1      28.166   9.731  30.424  1.00  0.00     0.240 C 
HETATM   21  O5  UNL     1      26.972   9.594  30.007  1.00  0.00    -0.271 OA
HETATM   22  N3  UNL     1      29.080   8.680  30.169  1.00  0.00    -0.355 N 
ATOM     23  H3  UNL     1      30.048   8.778  30.477  1.00  0.00     0.162 HD
BRANCH  22  24
HETATM   24  C11 UNL     1      28.678   7.469  29.483  1.00  0.00     0.161 C 
BRANCH  24  25
HETATM   25  C12 UNL     1      29.824   6.628  29.153  1.00  0.00    -0.040 A 
HETATM   26  C13 UNL     1      29.829   5.285  29.486  1.00  0.00     0.010 A 
HETATM   27  C14 UNL     1      30.933   4.535  29.129  1.00  0.00     0.015 A 
HETATM   28  C15 UNL     1      32.020   5.051  28.462  1.00  0.00     0.004 A 
HETATM   29  C17 UNL     1      31.993   6.374  28.146  1.00  0.00     0.015 A 
HETATM   30  C18 UNL     1      30.896   7.152  28.494  1.00  0.00     0.010 A 
BRANCH  28  31
HETATM   31  C16 UNL     1      33.121   4.191  28.123  1.00  0.00     0.120 C 
HETATM   32  N4  UNL     1      34.445   4.725  28.133  1.00  0.00    -0.082 NA
HETATM   33  N5  UNL     1      32.956   2.971  27.819  1.00  0.00    -0.387 N 
ATOM     34  H52 UNL     1      32.009   2.589  27.813  1.00  0.00     0.157 HD
ATOM     35  H51 UNL     1      33.737   2.361  27.579  1.00  0.00     0.157 HD
ENDBRANCH  28  31
ENDBRANCH  24  25
ENDBRANCH  22  24
ENDBRANCH   1  20
TORSDOF 13
ENDMDL
