MODEL 2
REMARK VINA RESULT: -7.221165512      1.147      1.627
REMARK  13 active torsions:
REMARK  status: ('A' for Active; 'I' for Inactive)
REMARK    1  A    between atoms: C2_2  and  C3_3 
REMARK    2  A    between atoms: C3_3  and  C4_4 
REMARK    3  A    between atoms: C4_4  and  S1_5 
REMARK    4  A    between atoms: S1_5  and  N1_8 
REMARK    5  A    between atoms: N1_8  and  C5_10 
REMARK    6  A    between atoms: C5_10  and  C6_11 
REMARK    7  A    between atoms: C5_10  and  C7_14 
REMARK    8  A    between atoms: C6_11  and  O3_12 
REMARK       I    between atoms: C7_14  and  N2_16 
REMARK    9  A    between atoms: N2_16  and  C8_18 
REMARK   10  A    between atoms: C8_18  and  C10_20 
REMARK       I    between atoms: C10_20  and  N3_22 
REMARK   11  A    between atoms: N3_22  and  C11_24 
REMARK   12  A    between atoms: C11_24  and  C12_25 
REMARK   13  A    between atoms: C15_28  and  C16_29 
ROOT
HETATM    1  C8  UNL     1      28.655  10.828  31.629  1.00  0.00     0.172 C 
HETATM    2  C9  UNL     1      27.447  11.805  31.776  1.00  0.00     0.042 C 
ENDROOT
BRANCH   1   3
HETATM    3  N2  UNL     1      29.747  11.642  31.090  1.00  0.00    -0.346 N 
HETATM    4  C7  UNL     1      31.058  11.301  31.443  1.00  0.00     0.243 C 
HETATM    5  O4  UNL     1      31.259  10.325  32.212  1.00  0.00    -0.271 OA
ATOM      6  H2  UNL     1      29.557  12.434  30.476  1.00  0.00     0.163 HD
BRANCH   4   7
HETATM    7  C5  UNL     1      32.288  12.019  30.982  1.00  0.00     0.208 C 
BRANCH   7   8
HETATM    8  N1  UNL     1      32.880  11.392  29.856  1.00  0.00    -0.304 N 
ATOM      9  H1  UNL     1      33.754  10.871  29.932  1.00  0.00     0.173 HD
BRANCH   8  10
HETATM   10  S1  UNL     1      32.076  11.548  28.402  1.00  0.00     0.227 S 
HETATM   11  O1  UNL     1      30.837  10.704  28.279  1.00  0.00    -0.206 OA
HETATM   12  O2  UNL     1      31.588  12.983  28.245  1.00  0.00    -0.206 OA
BRANCH  10  13
HETATM   13  C4  UNL     1      33.100  11.216  26.982  1.00  0.00     0.163 C 
BRANCH  13  14
HETATM   14  C3  UNL     1      32.454  10.171  26.100  1.00  0.00     0.016 C 
BRANCH  14  15
HETATM   15  C2  UNL     1      32.524  10.576  24.647  1.00  0.00    -0.004 C 
HETATM   16  C1  UNL     1      31.157  10.455  24.001  1.00  0.00     0.005 C 
ENDBRANCH  14  15
ENDBRANCH  13  14
ENDBRANCH  10  13
ENDBRANCH   8  10
ENDBRANCH   7   8
BRANCH   7  17
HETATM   17  C6  UNL     1      33.214  12.116  32.169  1.00  0.00     0.199 C 
BRANCH  17  18
HETATM   18  O3  UNL     1      32.490  12.622  33.268  1.00  0.00    -0.398 OA
ATOM     19  H3  UNL     1      32.930  12.362  34.068  1.00  0.00     0.209 HD
ENDBRANCH  17  18
ENDBRANCH   7  17
ENDBRANCH   4   7
ENDBRANCH   1   3
BRANCH   1  20
HETATM   20  C10 UNL     1      28.295   9.769  30.687  1.00  0.00     0.240 C 
HETATM   21  O5  UNL     1      27.097   9.722  30.261  1.00  0.00    -0.271 OA
HETATM   22  N3  UNL     1      29.200   8.784  30.222  1.00  0.00    -0.355 N 
ATOM     23  H3  UNL     1      30.171   8.815  30.534  1.00  0.00     0.162 HD
BRANCH  22  24
HETATM   24  C11 UNL     1      28.785   7.735  29.314  1.00  0.00     0.161 C 
BRANCH  24  25
HETATM   25  C12 UNL     1      29.884   6.828  28.996  1.00  0.00    -0.040 A 
HETATM   26  C13 UNL     1      31.029   7.300  28.380  1.00  0.00     0.010 A 
HETATM   27  C14 UNL     1      32.043   6.397  28.124  1.00  0.00     0.015 A 
HETATM   28  C15 UNL     1      31.973   5.063  28.447  1.00  0.00     0.004 A 
HETATM   29  C17 UNL     1      30.837   4.621  29.051  1.00  0.00     0.015 A 
HETATM   30  C18 UNL     1      29.802   5.507  29.320  1.00  0.00     0.010 A 
BRANCH  28  31
HETATM   31  C16 UNL     1      33.084   4.199  28.149  1.00  0.00     0.120 C 
HETATM   32  N4  UNL     1      34.405   4.741  28.161  1.00  0.00    -0.082 NA
HETATM   33  N5  UNL     1      32.929   2.970  27.880  1.00  0.00    -0.387 N 
ATOM     34  H52 UNL     1      31.985   2.583  27.871  1.00  0.00     0.157 HD
ATOM     35  H51 UNL     1      33.717   2.357  27.669  1.00  0.00     0.157 HD
ENDBRANCH  28  31
ENDBRANCH  24  25
ENDBRANCH  22  24
ENDBRANCH   1  20
TORSDOF 13
ENDMDL
