MODEL 17
REMARK VINA RESULT: -6.297777797      2.823      6.431
REMARK  13 active torsions:
REMARK  status: ('A' for Active; 'I' for Inactive)
REMARK    1  A    between atoms: C2_2  and  C3_3 
REMARK    2  A    between atoms: C3_3  and  C4_4 
REMARK    3  A    between atoms: C4_4  and  S1_5 
REMARK    4  A    between atoms: S1_5  and  N1_8 
REMARK    5  A    between atoms: N1_8  and  C5_10 
REMARK    6  A    between atoms: C5_10  and  C6_11 
REMARK    7  A    between atoms: C5_10  and  C7_14 
REMARK    8  A    between atoms: C6_11  and  O3_12 
REMARK       I    between atoms: C7_14  and  N2_16 
REMARK    9  A    between atoms: N2_16  and  C8_18 
REMARK   10  A    between atoms: C8_18  and  C10_20 
REMARK       I    between atoms: C10_20  and  N3_22 
REMARK   11  A    between atoms: N3_22  and  C11_24 
REMARK   12  A    between atoms: C11_24  and  C12_25 
REMARK   13  A    between atoms: C15_28  and  C16_29 
ROOT
HETATM    1  C8  UNL     1      33.042  11.472  31.455  1.00  0.00     0.172 C 
HETATM    2  C9  UNL     1      34.134  10.707  32.265  1.00  0.00     0.042 C 
ENDROOT
BRANCH   1   3
HETATM    3  N2  UNL     1      32.122  10.440  30.974  1.00  0.00    -0.346 N 
HETATM    4  C7  UNL     1      30.749  10.652  31.141  1.00  0.00     0.243 C 
HETATM    5  O4  UNL     1      30.347  11.706  31.703  1.00  0.00    -0.271 OA
ATOM      6  H2  UNL     1      32.472   9.590  30.531  1.00  0.00     0.163 HD
BRANCH   4   7
HETATM    7  C5  UNL     1      29.672   9.707  30.707  1.00  0.00     0.208 C 
BRANCH   7   8
HETATM    8  N1  UNL     1      29.476   9.733  29.303  1.00  0.00    -0.304 N 
ATOM      9  H1  UNL     1      29.387  10.611  28.791  1.00  0.00     0.173 HD
BRANCH   8  10
HETATM   10  S1  UNL     1      29.397   8.256  28.529  1.00  0.00     0.227 S 
HETATM   11  O1  UNL     1      28.004   7.717  28.351  1.00  0.00    -0.206 OA
HETATM   12  O2  UNL     1      29.947   8.395  27.115  1.00  0.00    -0.206 OA
BRANCH  10  13
HETATM   13  C4  UNL     1      30.370   6.987  29.317  1.00  0.00     0.163 C 
BRANCH  13  14
HETATM   14  C3  UNL     1      29.643   5.661  29.270  1.00  0.00     0.016 C 
BRANCH  14  15
HETATM   15  C2  UNL     1      30.285   4.732  28.268  1.00  0.00    -0.004 C 
HETATM   16  C1  UNL     1      31.777   4.990  28.193  1.00  0.00     0.005 C 
ENDBRANCH  14  15
ENDBRANCH  13  14
ENDBRANCH  10  13
ENDBRANCH   8  10
ENDBRANCH   7   8
BRANCH   7  17
HETATM   17  C6  UNL     1      28.432  10.059  31.491  1.00  0.00     0.199 C 
BRANCH  17  18
HETATM   18  O3  UNL     1      28.622   9.674  32.834  1.00  0.00    -0.398 OA
ATOM     19  H3  UNL     1      29.506   9.907  33.096  1.00  0.00     0.209 HD
ENDBRANCH  17  18
ENDBRANCH   7  17
ENDBRANCH   4   7
ENDBRANCH   1   3
BRANCH   1  20
HETATM   20  C10 UNL     1      33.679  12.154  30.328  1.00  0.00     0.240 C 
HETATM   21  O5  UNL     1      34.153  13.319  30.518  1.00  0.00    -0.271 OA
HETATM   22  N3  UNL     1      33.798  11.596  29.032  1.00  0.00    -0.355 N 
ATOM     23  H3  UNL     1      33.444  10.654  28.863  1.00  0.00     0.162 HD
BRANCH  22  24
HETATM   24  C11 UNL     1      34.409  12.326  27.940  1.00  0.00     0.161 C 
BRANCH  24  25
HETATM   25  C12 UNL     1      33.750  12.049  26.668  1.00  0.00    -0.040 A 
HETATM   26  C13 UNL     1      32.793  11.053  26.574  1.00  0.00     0.010 A 
HETATM   27  C14 UNL     1      32.189  10.852  25.348  1.00  0.00     0.015 A 
HETATM   28  C15 UNL     1      32.487  11.586  24.223  1.00  0.00     0.004 A 
HETATM   29  C17 UNL     1      33.432  12.558  24.339  1.00  0.00     0.015 A 
HETATM   30  C18 UNL     1      34.055  12.781  25.560  1.00  0.00     0.010 A 
BRANCH  28  31
HETATM   31  C16 UNL     1      31.800  11.311  22.991  1.00  0.00     0.120 C 
HETATM   32  N4  UNL     1      32.255  10.236  22.169  1.00  0.00    -0.082 NA
HETATM   33  N5  UNL     1      30.798  11.989  22.611  1.00  0.00    -0.387 N 
ATOM     34  H52 UNL     1      30.472  12.758  23.198  1.00  0.00     0.157 HD
ATOM     35  H51 UNL     1      30.310  11.794  21.737  1.00  0.00     0.157 HD
ENDBRANCH  28  31
ENDBRANCH  24  25
ENDBRANCH  22  24
ENDBRANCH   1  20
TORSDOF 13
ENDMDL
