MODEL 5
REMARK VINA RESULT: -6.931749953      1.236      1.521
REMARK  13 active torsions:
REMARK  status: ('A' for Active; 'I' for Inactive)
REMARK    1  A    between atoms: C2_2  and  C3_3 
REMARK    2  A    between atoms: C3_3  and  C4_4 
REMARK    3  A    between atoms: C4_4  and  S1_5 
REMARK    4  A    between atoms: S1_5  and  N1_8 
REMARK    5  A    between atoms: N1_8  and  C5_10 
REMARK    6  A    between atoms: C5_10  and  C6_11 
REMARK    7  A    between atoms: C5_10  and  C7_14 
REMARK    8  A    between atoms: C6_11  and  O3_12 
REMARK       I    between atoms: C7_14  and  N2_16 
REMARK    9  A    between atoms: N2_16  and  C8_18 
REMARK   10  A    between atoms: C8_18  and  C10_20 
REMARK       I    between atoms: C10_20  and  N3_22 
REMARK   11  A    between atoms: N3_22  and  C11_24 
REMARK   12  A    between atoms: C11_24  and  C12_25 
REMARK   13  A    between atoms: C15_28  and  C16_29 
ROOT
HETATM    1  C8  UNL     1      28.256  11.086  31.279  1.00  0.00     0.172 C 
HETATM    2  C9  UNL     1      27.139  12.174  31.244  1.00  0.00     0.042 C 
ENDROOT
BRANCH   1   3
HETATM    3  N2  UNL     1      29.478  11.771  30.853  1.00  0.00    -0.346 N 
HETATM    4  C7  UNL     1      30.703  11.290  31.328  1.00  0.00     0.243 C 
HETATM    5  O4  UNL     1      30.721  10.301  32.108  1.00  0.00    -0.271 OA
ATOM      6  H2  UNL     1      29.437  12.577  30.228  1.00  0.00     0.163 HD
BRANCH   4   7
HETATM    7  C5  UNL     1      32.043  11.866  30.992  1.00  0.00     0.208 C 
BRANCH   7   8
HETATM    8  N1  UNL     1      32.630  11.228  29.869  1.00  0.00    -0.304 N 
ATOM      9  H1  UNL     1      33.388  10.554  29.973  1.00  0.00     0.173 HD
BRANCH   8  10
HETATM   10  S1  UNL     1      32.017  11.636  28.371  1.00  0.00     0.227 S 
HETATM   11  O1  UNL     1      30.684  11.017  28.052  1.00  0.00    -0.206 OA
HETATM   12  O2  UNL     1      31.774  13.139  28.316  1.00  0.00    -0.206 OA
BRANCH  10  13
HETATM   13  C4  UNL     1      33.123  11.263  27.025  1.00  0.00     0.163 C 
BRANCH  13  14
HETATM   14  C3  UNL     1      32.529  10.191  26.137  1.00  0.00     0.016 C 
BRANCH  14  15
HETATM   15  C2  UNL     1      32.509  10.638  24.695  1.00  0.00    -0.004 C 
HETATM   16  C1  UNL     1      31.123  10.459  24.108  1.00  0.00     0.005 C 
ENDBRANCH  14  15
ENDBRANCH  13  14
ENDBRANCH  10  13
ENDBRANCH   8  10
ENDBRANCH   7   8
BRANCH   7  17
HETATM   17  C6  UNL     1      32.887  11.777  32.239  1.00  0.00     0.199 C 
BRANCH  17  18
HETATM   18  O3  UNL     1      32.332  12.621  33.223  1.00  0.00    -0.398 OA
ATOM     19  H3  UNL     1      33.020  12.888  33.820  1.00  0.00     0.209 HD
ENDBRANCH  17  18
ENDBRANCH   7  17
ENDBRANCH   4   7
ENDBRANCH   1   3
BRANCH   1  20
HETATM   20  C10 UNL     1      27.911  10.023  30.336  1.00  0.00     0.240 C 
HETATM   21  O5  UNL     1      26.682   9.818  30.081  1.00  0.00    -0.271 OA
HETATM   22  N3  UNL     1      28.865   9.200  29.689  1.00  0.00    -0.355 N 
ATOM     23  H3  UNL     1      29.858   9.360  29.863  1.00  0.00     0.162 HD
BRANCH  22  24
HETATM   24  C11 UNL     1      28.470   8.137  28.788  1.00  0.00     0.161 C 
BRANCH  24  25
HETATM   25  C12 UNL     1      29.558   7.192  28.555  1.00  0.00    -0.040 A 
HETATM   26  C13 UNL     1      29.584   5.975  29.212  1.00  0.00     0.010 A 
HETATM   27  C14 UNL     1      30.628   5.114  28.934  1.00  0.00     0.015 A 
HETATM   28  C15 UNL     1      31.636   5.402  28.043  1.00  0.00     0.004 A 
HETATM   29  C17 UNL     1      31.590   6.605  27.410  1.00  0.00     0.015 A 
HETATM   30  C18 UNL     1      30.552   7.491  27.671  1.00  0.00     0.010 A 
BRANCH  28  31
HETATM   31  C16 UNL     1      32.677   4.439  27.811  1.00  0.00     0.120 C 
HETATM   32  N4  UNL     1      32.603   3.168  28.459  1.00  0.00    -0.082 NA
HETATM   33  N5  UNL     1      33.660   4.678  27.046  1.00  0.00    -0.387 N 
ATOM     34  H52 UNL     1      33.714   5.586  26.584  1.00  0.00     0.157 HD
ATOM     35  H51 UNL     1      34.399   3.995  26.882  1.00  0.00     0.157 HD
ENDBRANCH  28  31
ENDBRANCH  24  25
ENDBRANCH  22  24
ENDBRANCH   1  20
TORSDOF 13
ENDMDL
