MODEL 4
REMARK VINA RESULT: -7.047207326      1.134      1.347
REMARK  13 active torsions:
REMARK  status: ('A' for Active; 'I' for Inactive)
REMARK    1  A    between atoms: C2_2  and  C3_3 
REMARK    2  A    between atoms: C3_3  and  C4_4 
REMARK    3  A    between atoms: C4_4  and  S1_5 
REMARK    4  A    between atoms: S1_5  and  N1_8 
REMARK    5  A    between atoms: N1_8  and  C5_10 
REMARK    6  A    between atoms: C5_10  and  C6_11 
REMARK    7  A    between atoms: C5_10  and  C7_14 
REMARK    8  A    between atoms: C6_11  and  O3_12 
REMARK       I    between atoms: C7_14  and  N2_16 
REMARK    9  A    between atoms: N2_16  and  C8_18 
REMARK   10  A    between atoms: C8_18  and  C10_20 
REMARK       I    between atoms: C10_20  and  N3_22 
REMARK   11  A    between atoms: N3_22  and  C11_24 
REMARK   12  A    between atoms: C11_24  and  C12_25 
REMARK   13  A    between atoms: C15_28  and  C16_29 
ROOT
HETATM    1  C8  UNL     1      29.124  10.755  31.363  1.00  0.00     0.172 C 
HETATM    2  C9  UNL     1      27.895  11.674  31.645  1.00  0.00     0.042 C 
ENDROOT
BRANCH   1   3
HETATM    3  N2  UNL     1      30.192  11.658  30.929  1.00  0.00    -0.346 N 
HETATM    4  C7  UNL     1      31.472  11.467  31.461  1.00  0.00     0.243 C 
HETATM    5  O4  UNL     1      31.667  10.544  32.294  1.00  0.00    -0.271 OA
ATOM      6  H2  UNL     1      30.007  12.405  30.259  1.00  0.00     0.163 HD
BRANCH   4   7
HETATM    7  C5  UNL     1      32.676  12.293  31.126  1.00  0.00     0.208 C 
BRANCH   7   8
HETATM    8  N1  UNL     1      33.515  11.651  30.180  1.00  0.00    -0.304 N 
ATOM      9  H1  UNL     1      34.020  10.794  30.407  1.00  0.00     0.173 HD
BRANCH   8  10
HETATM   10  S1  UNL     1      33.635  12.367  28.677  1.00  0.00     0.227 S 
HETATM   11  O1  UNL     1      33.596  13.871  28.697  1.00  0.00    -0.206 OA
HETATM   12  O2  UNL     1      34.982  12.019  28.056  1.00  0.00    -0.206 OA
BRANCH  10  13
HETATM   13  C4  UNL     1      32.398  11.809  27.521  1.00  0.00     0.163 C 
BRANCH  13  14
HETATM   14  C3  UNL     1      32.721  10.413  27.038  1.00  0.00     0.016 C 
BRANCH  14  15
HETATM   15  C2  UNL     1      32.382  10.258  25.575  1.00  0.00    -0.004 C 
HETATM   16  C1  UNL     1      30.902  10.502  25.350  1.00  0.00     0.005 C 
ENDBRANCH  14  15
ENDBRANCH  13  14
ENDBRANCH  10  13
ENDBRANCH   8  10
ENDBRANCH   7   8
BRANCH   7  17
HETATM   17  C6  UNL     1      33.372  12.607  32.427  1.00  0.00     0.199 C 
BRANCH  17  18
HETATM   18  O3  UNL     1      32.397  12.910  33.399  1.00  0.00    -0.398 OA
ATOM     19  H3  UNL     1      31.815  12.165  33.490  1.00  0.00     0.209 HD
ENDBRANCH  17  18
ENDBRANCH   7  17
ENDBRANCH   4   7
ENDBRANCH   1   3
BRANCH   1  20
HETATM   20  C10 UNL     1      28.780   9.820  30.292  1.00  0.00     0.240 C 
HETATM   21  O5  UNL     1      27.704   9.149  30.400  1.00  0.00    -0.271 OA
HETATM   22  N3  UNL     1      29.576   9.610  29.140  1.00  0.00    -0.355 N 
ATOM     23  H3  UNL     1      30.432  10.153  29.023  1.00  0.00     0.162 HD
BRANCH  22  24
HETATM   24  C11 UNL     1      29.208   8.647  28.123  1.00  0.00     0.161 C 
BRANCH  24  25
HETATM   25  C12 UNL     1      29.942   7.395  28.271  1.00  0.00    -0.040 A 
HETATM   26  C13 UNL     1      29.500   6.420  29.149  1.00  0.00     0.010 A 
HETATM   27  C14 UNL     1      30.226   5.247  29.230  1.00  0.00     0.015 A 
HETATM   28  C15 UNL     1      31.357   5.000  28.488  1.00  0.00     0.004 A 
HETATM   29  C17 UNL     1      31.774   5.973  27.633  1.00  0.00     0.015 A 
HETATM   30  C18 UNL     1      31.063   7.162  27.532  1.00  0.00     0.010 A 
BRANCH  28  31
HETATM   31  C16 UNL     1      32.043   3.745  28.633  1.00  0.00     0.120 C 
HETATM   32  N4  UNL     1      31.720   2.903  29.741  1.00  0.00    -0.082 NA
HETATM   33  N5  UNL     1      32.924   3.357  27.807  1.00  0.00    -0.387 N 
ATOM     34  H52 UNL     1      33.155   3.958  27.015  1.00  0.00     0.157 HD
ATOM     35  H51 UNL     1      33.410   2.466  27.910  1.00  0.00     0.157 HD
ENDBRANCH  28  31
ENDBRANCH  24  25
ENDBRANCH  22  24
ENDBRANCH   1  20
TORSDOF 13
ENDMDL
