MODEL 18
REMARK VINA RESULT: -6.287330795      3.021      7.497
REMARK  13 active torsions:
REMARK  status: ('A' for Active; 'I' for Inactive)
REMARK    1  A    between atoms: C2_2  and  C3_3 
REMARK    2  A    between atoms: C3_3  and  C4_4 
REMARK    3  A    between atoms: C4_4  and  S1_5 
REMARK    4  A    between atoms: S1_5  and  N1_8 
REMARK    5  A    between atoms: N1_8  and  C5_10 
REMARK    6  A    between atoms: C5_10  and  C6_11 
REMARK    7  A    between atoms: C5_10  and  C7_14 
REMARK    8  A    between atoms: C6_11  and  O3_12 
REMARK       I    between atoms: C7_14  and  N2_16 
REMARK    9  A    between atoms: N2_16  and  C8_18 
REMARK   10  A    between atoms: C8_18  and  C10_20 
REMARK       I    between atoms: C10_20  and  N3_22 
REMARK   11  A    between atoms: N3_22  and  C11_24 
REMARK   12  A    between atoms: C11_24  and  C12_25 
REMARK   13  A    between atoms: C15_28  and  C16_29 
ROOT
HETATM    1  C8  UNL     1      31.773   9.661  26.503  1.00  0.00     0.172 C 
HETATM    2  C9  UNL     1      31.099  10.211  25.207  1.00  0.00     0.042 C 
ENDROOT
BRANCH   1   3
HETATM    3  N2  UNL     1      30.680   9.481  27.461  1.00  0.00    -0.346 N 
HETATM    4  C7  UNL     1      30.235   8.178  27.715  1.00  0.00     0.243 C 
HETATM    5  O4  UNL     1      30.771   7.211  27.113  1.00  0.00    -0.271 OA
ATOM      6  H2  UNL     1      30.255  10.281  27.929  1.00  0.00     0.163 HD
BRANCH   4   7
HETATM    7  C5  UNL     1      29.135   7.813  28.663  1.00  0.00     0.208 C 
BRANCH   7   8
HETATM    8  N1  UNL     1      29.240   8.510  29.893  1.00  0.00    -0.304 N 
ATOM      9  H1  UNL     1      29.974   8.295  30.569  1.00  0.00     0.173 HD
BRANCH   8  10
HETATM   10  S1  UNL     1      28.105   9.700  30.181  1.00  0.00     0.227 S 
HETATM   11  O1  UNL     1      26.695   9.318  29.820  1.00  0.00    -0.206 OA
HETATM   12  O2  UNL     1      28.059  10.005  31.673  1.00  0.00    -0.206 OA
BRANCH  10  13
HETATM   13  C4  UNL     1      28.471  11.244  29.370  1.00  0.00     0.163 C 
BRANCH  13  14
HETATM   14  C3  UNL     1      29.690  11.889  29.993  1.00  0.00     0.016 C 
BRANCH  14  15
HETATM   15  C2  UNL     1      29.434  13.348  30.286  1.00  0.00    -0.004 C 
HETATM   16  C1  UNL     1      29.102  13.540  31.753  1.00  0.00     0.005 C 
ENDBRANCH  14  15
ENDBRANCH  13  14
ENDBRANCH  10  13
ENDBRANCH   8  10
ENDBRANCH   7   8
BRANCH   7  17
HETATM   17  C6  UNL     1      29.167   6.313  28.820  1.00  0.00     0.199 C 
BRANCH  17  18
HETATM   18  O3  UNL     1      28.360   5.956  29.919  1.00  0.00    -0.398 OA
ATOM     19  H3  UNL     1      28.905   5.912  30.696  1.00  0.00     0.209 HD
ENDBRANCH  17  18
ENDBRANCH   7  17
ENDBRANCH   4   7
ENDBRANCH   1   3
BRANCH   1  20
HETATM   20  C10 UNL     1      32.727  10.653  26.998  1.00  0.00     0.240 C 
HETATM   21  O5  UNL     1      33.467  11.251  26.154  1.00  0.00    -0.271 OA
HETATM   22  N3  UNL     1      32.883  10.986  28.365  1.00  0.00    -0.355 N 
ATOM     23  H3  UNL     1      32.285  10.533  29.058  1.00  0.00     0.162 HD
BRANCH  22  24
HETATM   24  C11 UNL     1      33.867  11.952  28.808  1.00  0.00     0.161 C 
BRANCH  24  25
HETATM   25  C12 UNL     1      33.491  12.565  30.078  1.00  0.00    -0.040 A 
HETATM   26  C13 UNL     1      33.268  13.928  30.162  1.00  0.00     0.010 A 
HETATM   27  C14 UNL     1      32.895  14.447  31.387  1.00  0.00     0.015 A 
HETATM   28  C15 UNL     1      32.733  13.683  32.519  1.00  0.00     0.004 A 
HETATM   29  C17 UNL     1      32.959  12.346  32.413  1.00  0.00     0.015 A 
HETATM   30  C18 UNL     1      33.337  11.798  31.194  1.00  0.00     0.010 A 
BRANCH  28  31
HETATM   31  C16 UNL     1      32.333  14.311  33.749  1.00  0.00     0.120 C 
HETATM   32  N4  UNL     1      31.642  15.559  33.697  1.00  0.00    -0.082 NA
HETATM   33  N5  UNL     1      32.570  13.790  34.881  1.00  0.00    -0.387 N 
ATOM     34  H52 UNL     1      33.064  12.898  34.919  1.00  0.00     0.157 HD
ATOM     35  H51 UNL     1      32.285  14.235  35.754  1.00  0.00     0.157 HD
ENDBRANCH  28  31
ENDBRANCH  24  25
ENDBRANCH  22  24
ENDBRANCH   1  20
TORSDOF 13
ENDMDL
