MODEL 15
REMARK VINA RESULT: -6.752106615      3.258      5.824
REMARK  12 active torsions:
REMARK  status: ('A' for Active; 'I' for Inactive)
REMARK    1  A    between atoms: C2_2  and  N1_3 
REMARK    2  A    between atoms: C2_2  and  C13_23 
REMARK       I    between atoms: N1_3  and  C3_5 
REMARK    3  A    between atoms: C3_5  and  C4_7 
REMARK    4  A    between atoms: C4_7  and  C5_8 
REMARK    5  A    between atoms: C4_7  and  N2_11 
REMARK    6  A    between atoms: C5_8  and  O2_9 
REMARK    7  A    between atoms: N2_11  and  S1_13 
REMARK    8  A    between atoms: S1_13  and  C6_16 
REMARK    9  A    between atoms: C6_16  and  C7_17 
REMARK       I    between atoms: C13_23  and  N3_25 
REMARK   10  A    between atoms: N3_25  and  C14_27 
REMARK   11  A    between atoms: C14_27  and  C15_28 
REMARK   12  A    between atoms: C18_31  and  C19_32 
ROOT
HETATM    1  N1  UNL     1      30.041  12.828  30.456  1.00  0.00    -0.346 N 
ATOM      2  H1  UNL     1      30.602  13.443  29.865  1.00  0.00     0.163 HD
HETATM    3  C3  UNL     1      30.518  11.543  30.729  1.00  0.00     0.243 C 
HETATM    4  O1  UNL     1      29.833  10.797  31.444  1.00  0.00    -0.271 OA
ENDROOT
BRANCH   1   5
HETATM    5  C2  UNL     1      28.786  13.321  30.977  1.00  0.00     0.172 C 
HETATM    6  C1  UNL     1      28.947  14.369  32.022  1.00  0.00     0.042 C 
BRANCH   5   7
HETATM    7  C13 UNL     1      27.955  13.768  29.839  1.00  0.00     0.240 C 
HETATM    8  O5  UNL     1      27.266  14.801  29.933  1.00  0.00    -0.271 OA
HETATM    9  N3  UNL     1      27.937  13.026  28.638  1.00  0.00    -0.355 N 
ATOM     10  H3  UNL     1      28.507  12.180  28.595  1.00  0.00     0.162 HD
BRANCH   9  11
HETATM   11  C14 UNL     1      27.168  13.377  27.463  1.00  0.00     0.161 C 
BRANCH  11  12
HETATM   12  C15 UNL     1      26.062  12.375  27.269  1.00  0.00    -0.040 A 
HETATM   13  C16 UNL     1      24.817  12.692  26.815  1.00  0.00     0.010 A 
HETATM   14  C17 UNL     1      23.848  11.735  26.647  1.00  0.00     0.015 A 
HETATM   15  C18 UNL     1      24.101  10.389  26.938  1.00  0.00     0.004 A 
HETATM   16  C20 UNL     1      25.347  10.060  27.396  1.00  0.00     0.015 A 
HETATM   17  C21 UNL     1      26.311  11.054  27.556  1.00  0.00     0.010 A 
BRANCH  15  18
HETATM   18  C19 UNL     1      23.041   9.424  26.740  1.00  0.00     0.120 C 
HETATM   19  N4  UNL     1      23.116   8.159  27.381  1.00  0.00    -0.082 NA
HETATM   20  N5  UNL     1      22.029   9.663  26.008  1.00  0.00    -0.387 N 
ATOM     21  H52 UNL     1      21.974  10.571  25.548  1.00  0.00     0.157 HD
ATOM     22  H51 UNL     1      21.282   8.983  25.868  1.00  0.00     0.157 HD
ENDBRANCH  15  18
ENDBRANCH  11  12
ENDBRANCH   9  11
ENDBRANCH   5   7
ENDBRANCH   1   5
BRANCH   3  23
HETATM   23  C4  UNL     1      31.849  11.054  30.170  1.00  0.00     0.208 C 
BRANCH  23  24
HETATM   24  C5  UNL     1      32.655  10.711  31.390  1.00  0.00     0.199 C 
BRANCH  24  25
HETATM   25  O2  UNL     1      32.316  11.588  32.430  1.00  0.00    -0.398 OA
ATOM     26  H2  UNL     1      32.646  11.243  33.252  1.00  0.00     0.209 HD
ENDBRANCH  24  25
ENDBRANCH  23  24
BRANCH  23  27
HETATM   27  N2  UNL     1      31.531   9.968  29.313  1.00  0.00    -0.303 N 
ATOM     28  H2  UNL     1      31.456   9.015  29.670  1.00  0.00     0.173 HD
BRANCH  27  29
HETATM   29  S1  UNL     1      31.281  10.313  27.678  1.00  0.00     0.231 S 
HETATM   30  O3  UNL     1      29.949  11.062  27.589  1.00  0.00    -0.206 OA
HETATM   31  O4  UNL     1      32.331  11.232  27.106  1.00  0.00    -0.206 OA
BRANCH  29  32
HETATM   32  C6  UNL     1      31.117   8.910  26.617  1.00  0.00     0.201 C 
BRANCH  32  33
HETATM   33  C7  UNL     1      30.731   7.672  27.325  1.00  0.00    -0.043 A 
HETATM   34  C8  UNL     1      29.436   7.536  27.841  1.00  0.00     0.008 A 
HETATM   35  C9  UNL     1      29.030   6.396  28.498  1.00  0.00     0.001 A 
HETATM   36  C10 UNL     1      29.887   5.337  28.675  1.00  0.00     0.000 A 
HETATM   37  C11 UNL     1      31.165   5.448  28.176  1.00  0.00     0.001 A 
HETATM   38  C12 UNL     1      31.571   6.608  27.510  1.00  0.00     0.008 A 
ENDBRANCH  32  33
ENDBRANCH  29  32
ENDBRANCH  27  29
ENDBRANCH  23  27
ENDBRANCH   3  23
TORSDOF 12
ENDMDL
