MODEL 2
REMARK VINA RESULT: -7.496014688      1.253      1.602
REMARK  12 active torsions:
REMARK  status: ('A' for Active; 'I' for Inactive)
REMARK    1  A    between atoms: C2_2  and  N1_3 
REMARK    2  A    between atoms: C2_2  and  C13_23 
REMARK       I    between atoms: N1_3  and  C3_5 
REMARK    3  A    between atoms: C3_5  and  C4_7 
REMARK    4  A    between atoms: C4_7  and  C5_8 
REMARK    5  A    between atoms: C4_7  and  N2_11 
REMARK    6  A    between atoms: C5_8  and  O2_9 
REMARK    7  A    between atoms: N2_11  and  S1_13 
REMARK    8  A    between atoms: S1_13  and  C6_16 
REMARK    9  A    between atoms: C6_16  and  C7_17 
REMARK       I    between atoms: C13_23  and  N3_25 
REMARK   10  A    between atoms: N3_25  and  C14_27 
REMARK   11  A    between atoms: C14_27  and  C15_28 
REMARK   12  A    between atoms: C18_31  and  C19_32 
ROOT
HETATM    1  N1  UNL     1      29.477  11.849  30.373  1.00  0.00    -0.346 N 
ATOM      2  H1  UNL     1      29.543  12.628  29.717  1.00  0.00     0.163 HD
HETATM    3  C3  UNL     1      30.658  11.252  30.826  1.00  0.00     0.243 C 
HETATM    4  O1  UNL     1      30.576  10.305  31.620  1.00  0.00    -0.271 OA
ENDROOT
BRANCH   1   5
HETATM    5  C2  UNL     1      28.168  11.406  30.796  1.00  0.00     0.172 C 
HETATM    6  C1  UNL     1      27.226  12.523  31.080  1.00  0.00     0.042 C 
BRANCH   5   7
HETATM    7  C13 UNL     1      27.650  10.460  29.786  1.00  0.00     0.240 C 
HETATM    8  O5  UNL     1      26.476  10.556  29.380  1.00  0.00    -0.271 OA
HETATM    9  N3  UNL     1      28.482   9.440  29.273  1.00  0.00    -0.355 N 
ATOM     10  H3  UNL     1      29.436   9.384  29.631  1.00  0.00     0.162 HD
BRANCH   9  11
HETATM   11  C14 UNL     1      28.079   8.470  28.278  1.00  0.00     0.161 C 
BRANCH  11  12
HETATM   12  C15 UNL     1      29.213   7.515  28.020  1.00  0.00    -0.040 A 
HETATM   13  C16 UNL     1      30.355   7.849  27.357  1.00  0.00     0.010 A 
HETATM   14  C17 UNL     1      31.364   6.938  27.158  1.00  0.00     0.015 A 
HETATM   15  C18 UNL     1      31.257   5.625  27.631  1.00  0.00     0.004 A 
HETATM   16  C20 UNL     1      30.115   5.279  28.299  1.00  0.00     0.015 A 
HETATM   17  C21 UNL     1      29.108   6.225  28.485  1.00  0.00     0.010 A 
BRANCH  15  18
HETATM   18  C19 UNL     1      32.354   4.710  27.394  1.00  0.00     0.120 C 
HETATM   19  N4  UNL     1      32.448   3.517  28.157  1.00  0.00    -0.082 NA
HETATM   20  N5  UNL     1      33.248   4.930  26.517  1.00  0.00    -0.387 N 
ATOM     21  H52 UNL     1      33.181   5.788  25.969  1.00  0.00     0.157 HD
ATOM     22  H51 UNL     1      34.021   4.286  26.350  1.00  0.00     0.157 HD
ENDBRANCH  15  18
ENDBRANCH  11  12
ENDBRANCH   9  11
ENDBRANCH   5   7
ENDBRANCH   1   5
BRANCH   3  23
HETATM   23  C4  UNL     1      32.025  11.747  30.366  1.00  0.00     0.208 C 
BRANCH  23  24
HETATM   24  C5  UNL     1      32.903  11.570  31.572  1.00  0.00     0.199 C 
BRANCH  24  25
HETATM   25  O2  UNL     1      33.385  10.254  31.604  1.00  0.00    -0.398 OA
ATOM     26  H2  UNL     1      32.776   9.685  31.148  1.00  0.00     0.209 HD
ENDBRANCH  24  25
ENDBRANCH  23  24
BRANCH  23  27
HETATM   27  N2  UNL     1      32.360  10.955  29.236  1.00  0.00    -0.303 N 
ATOM     28  H2  UNL     1      32.488   9.947  29.315  1.00  0.00     0.173 HD
BRANCH  27  29
HETATM   29  S1  UNL     1      32.538  11.749  27.755  1.00  0.00     0.231 S 
HETATM   30  O3  UNL     1      32.390  13.245  28.041  1.00  0.00    -0.206 OA
HETATM   31  O4  UNL     1      33.906  11.559  27.149  1.00  0.00    -0.206 OA
BRANCH  29  32
HETATM   32  C6  UNL     1      31.319  11.370  26.534  1.00  0.00     0.201 C 
BRANCH  32  33
HETATM   33  C7  UNL     1      31.774  11.603  25.148  1.00  0.00    -0.043 A 
HETATM   34  C8  UNL     1      32.184  10.524  24.355  1.00  0.00     0.008 A 
HETATM   35  C9  UNL     1      32.605  10.695  23.055  1.00  0.00     0.001 A 
HETATM   36  C10 UNL     1      32.639  11.942  22.479  1.00  0.00     0.000 A 
HETATM   37  C11 UNL     1      32.240  13.017  23.240  1.00  0.00     0.001 A 
HETATM   38  C12 UNL     1      31.814  12.837  24.558  1.00  0.00     0.008 A 
ENDBRANCH  32  33
ENDBRANCH  29  32
ENDBRANCH  27  29
ENDBRANCH  23  27
ENDBRANCH   3  23
TORSDOF 12
ENDMDL
