MODEL 14
REMARK VINA RESULT: -6.798956880      2.771      7.214
REMARK  12 active torsions:
REMARK  status: ('A' for Active; 'I' for Inactive)
REMARK    1  A    between atoms: C2_2  and  N1_3 
REMARK    2  A    between atoms: C2_2  and  C13_23 
REMARK       I    between atoms: N1_3  and  C3_5 
REMARK    3  A    between atoms: C3_5  and  C4_7 
REMARK    4  A    between atoms: C4_7  and  C5_8 
REMARK    5  A    between atoms: C4_7  and  N2_11 
REMARK    6  A    between atoms: C5_8  and  O2_9 
REMARK    7  A    between atoms: N2_11  and  S1_13 
REMARK    8  A    between atoms: S1_13  and  C6_16 
REMARK    9  A    between atoms: C6_16  and  C7_17 
REMARK       I    between atoms: C13_23  and  N3_25 
REMARK   10  A    between atoms: N3_25  and  C14_27 
REMARK   11  A    between atoms: C14_27  and  C15_28 
REMARK   12  A    between atoms: C18_31  and  C19_32 
ROOT
HETATM    1  N1  UNL     1      31.303  10.036  26.779  1.00  0.00    -0.346 N 
ATOM      2  H1  UNL     1      30.870  10.873  27.170  1.00  0.00     0.163 HD
HETATM    3  C3  UNL     1      30.765   8.787  27.108  1.00  0.00     0.243 C 
HETATM    4  O1  UNL     1      31.294   7.771  26.635  1.00  0.00    -0.271 OA
ENDROOT
BRANCH   1   5
HETATM    5  C2  UNL     1      32.447  10.186  25.909  1.00  0.00     0.172 C 
HETATM    6  C1  UNL     1      32.083  10.513  24.502  1.00  0.00     0.042 C 
BRANCH   5   7
HETATM    7  C13 UNL     1      33.361  11.179  26.511  1.00  0.00     0.240 C 
HETATM    8  O5  UNL     1      34.009  11.957  25.786  1.00  0.00    -0.271 OA
HETATM    9  N3  UNL     1      33.504  11.253  27.914  1.00  0.00    -0.355 N 
ATOM     10  H3  UNL     1      32.965  10.598  28.480  1.00  0.00     0.162 HD
BRANCH   9  11
HETATM   11  C14 UNL     1      34.363  12.191  28.607  1.00  0.00     0.161 C 
BRANCH  11  12
HETATM   12  C15 UNL     1      33.670  12.682  29.849  1.00  0.00    -0.040 A 
HETATM   13  C16 UNL     1      33.593  13.993  30.211  1.00  0.00     0.010 A 
HETATM   14  C17 UNL     1      32.939  14.386  31.353  1.00  0.00     0.015 A 
HETATM   15  C18 UNL     1      32.324  13.450  32.193  1.00  0.00     0.004 A 
HETATM   16  C20 UNL     1      32.396  12.131  31.840  1.00  0.00     0.015 A 
HETATM   17  C21 UNL     1      33.066  11.762  30.675  1.00  0.00     0.010 A 
BRANCH  15  18
HETATM   18  C19 UNL     1      31.647  13.925  33.382  1.00  0.00     0.120 C 
HETATM   19  N4  UNL     1      30.368  14.531  33.265  1.00  0.00    -0.082 NA
HETATM   20  N5  UNL     1      32.154  13.820  34.543  1.00  0.00    -0.387 N 
ATOM     21  H52 UNL     1      33.072  13.384  34.628  1.00  0.00     0.157 HD
ATOM     22  H51 UNL     1      31.677  14.154  35.381  1.00  0.00     0.157 HD
ENDBRANCH  15  18
ENDBRANCH  11  12
ENDBRANCH   9  11
ENDBRANCH   5   7
ENDBRANCH   1   5
BRANCH   3  23
HETATM   23  C4  UNL     1      29.553   8.661  28.025  1.00  0.00     0.208 C 
BRANCH  23  24
HETATM   24  C5  UNL     1      30.146   8.518  29.397  1.00  0.00     0.199 C 
BRANCH  24  25
HETATM   25  O2  UNL     1      31.446   9.045  29.397  1.00  0.00    -0.398 OA
ATOM     26  H2  UNL     1      32.018   8.469  29.891  1.00  0.00     0.209 HD
ENDBRANCH  24  25
ENDBRANCH  23  24
BRANCH  23  27
HETATM   27  N2  UNL     1      28.780   9.830  27.804  1.00  0.00    -0.303 N 
ATOM     28  H2  UNL     1      28.734  10.269  26.884  1.00  0.00     0.173 HD
BRANCH  27  29
HETATM   29  S1  UNL     1      27.938  10.468  29.123  1.00  0.00     0.231 S 
HETATM   30  O3  UNL     1      26.882  11.415  28.549  1.00  0.00    -0.206 OA
HETATM   31  O4  UNL     1      27.194   9.417  29.907  1.00  0.00    -0.206 OA
BRANCH  29  32
HETATM   32  C6  UNL     1      28.898  11.439  30.244  1.00  0.00     0.201 C 
BRANCH  32  33
HETATM   33  C7  UNL     1      29.406  12.696  29.657  1.00  0.00    -0.043 A 
HETATM   34  C8  UNL     1      29.054  13.926  30.226  1.00  0.00     0.008 A 
HETATM   35  C9  UNL     1      29.514  15.121  29.718  1.00  0.00     0.001 A 
HETATM   36  C10 UNL     1      30.344  15.153  28.623  1.00  0.00     0.000 A 
HETATM   37  C11 UNL     1      30.703  13.955  28.048  1.00  0.00     0.001 A 
HETATM   38  C12 UNL     1      30.234  12.746  28.569  1.00  0.00     0.008 A 
ENDBRANCH  32  33
ENDBRANCH  29  32
ENDBRANCH  27  29
ENDBRANCH  23  27
ENDBRANCH   3  23
TORSDOF 12
ENDMDL
