MODEL 10
REMARK VINA RESULT: -6.940858598      2.622      7.227
REMARK  12 active torsions:
REMARK  status: ('A' for Active; 'I' for Inactive)
REMARK    1  A    between atoms: C2_2  and  N1_3 
REMARK    2  A    between atoms: C2_2  and  C13_23 
REMARK       I    between atoms: N1_3  and  C3_5 
REMARK    3  A    between atoms: C3_5  and  C4_7 
REMARK    4  A    between atoms: C4_7  and  C5_8 
REMARK    5  A    between atoms: C4_7  and  N2_11 
REMARK    6  A    between atoms: C5_8  and  O2_9 
REMARK    7  A    between atoms: N2_11  and  S1_13 
REMARK    8  A    between atoms: S1_13  and  C6_16 
REMARK    9  A    between atoms: C6_16  and  C7_17 
REMARK       I    between atoms: C13_23  and  N3_25 
REMARK   10  A    between atoms: N3_25  and  C14_27 
REMARK   11  A    between atoms: C14_27  and  C15_28 
REMARK   12  A    between atoms: C18_31  and  C19_32 
ROOT
HETATM    1  N1  UNL     1      31.349   9.791  26.981  1.00  0.00    -0.346 N 
ATOM      2  H1  UNL     1      30.834  10.597  27.336  1.00  0.00     0.163 HD
HETATM    3  C3  UNL     1      30.971   8.513  27.403  1.00  0.00     0.243 C 
HETATM    4  O1  UNL     1      31.601   7.536  26.972  1.00  0.00    -0.271 OA
ENDROOT
BRANCH   1   5
HETATM    5  C2  UNL     1      32.440  10.016  26.060  1.00  0.00     0.172 C 
HETATM    6  C1  UNL     1      31.999  10.190  24.648  1.00  0.00     0.042 C 
BRANCH   5   7
HETATM    7  C13 UNL     1      33.239  11.157  26.557  1.00  0.00     0.240 C 
HETATM    8  O5  UNL     1      33.649  12.027  25.766  1.00  0.00    -0.271 OA
HETATM    9  N3  UNL     1      33.541  11.266  27.931  1.00  0.00    -0.355 N 
ATOM     10  H3  UNL     1      33.196  10.534  28.552  1.00  0.00     0.162 HD
BRANCH   9  11
HETATM   11  C14 UNL     1      34.306  12.344  28.524  1.00  0.00     0.161 C 
BRANCH  11  12
HETATM   12  C15 UNL     1      33.633  12.800  29.790  1.00  0.00    -0.040 A 
HETATM   13  C16 UNL     1      33.849  14.011  30.374  1.00  0.00     0.010 A 
HETATM   14  C17 UNL     1      33.199  14.380  31.526  1.00  0.00     0.015 A 
HETATM   15  C18 UNL     1      32.285  13.521  32.148  1.00  0.00     0.004 A 
HETATM   16  C20 UNL     1      32.060  12.303  31.570  1.00  0.00     0.015 A 
HETATM   17  C21 UNL     1      32.735  11.956  30.400  1.00  0.00     0.010 A 
BRANCH  15  18
HETATM   18  C19 UNL     1      31.628  13.966  33.359  1.00  0.00     0.120 C 
HETATM   19  N4  UNL     1      30.322  14.517  33.286  1.00  0.00    -0.082 NA
HETATM   20  N5  UNL     1      32.177  13.881  34.503  1.00  0.00    -0.387 N 
ATOM     21  H52 UNL     1      33.115  13.486  34.556  1.00  0.00     0.157 HD
ATOM     22  H51 UNL     1      31.715  14.195  35.356  1.00  0.00     0.157 HD
ENDBRANCH  15  18
ENDBRANCH  11  12
ENDBRANCH   9  11
ENDBRANCH   5   7
ENDBRANCH   1   5
BRANCH   3  23
HETATM   23  C4  UNL     1      29.811   8.307  28.371  1.00  0.00     0.208 C 
BRANCH  23  24
HETATM   24  C5  UNL     1      29.917   6.862  28.767  1.00  0.00     0.199 C 
BRANCH  24  25
HETATM   25  O2  UNL     1      28.683   6.428  29.271  1.00  0.00    -0.398 OA
ATOM     26  H2  UNL     1      28.758   6.292  30.208  1.00  0.00     0.209 HD
ENDBRANCH  24  25
ENDBRANCH  23  24
BRANCH  23  27
HETATM   27  N2  UNL     1      30.009   9.250  29.414  1.00  0.00    -0.303 N 
ATOM     28  H2  UNL     1      30.942   9.460  29.768  1.00  0.00     0.173 HD
BRANCH  27  29
HETATM   29  S1  UNL     1      28.638  10.010  30.046  1.00  0.00     0.231 S 
HETATM   30  O3  UNL     1      27.535   8.950  30.095  1.00  0.00    -0.206 OA
HETATM   31  O4  UNL     1      28.836  10.491  31.462  1.00  0.00    -0.206 OA
BRANCH  29  32
HETATM   32  C6  UNL     1      27.988  11.339  29.080  1.00  0.00     0.201 C 
BRANCH  32  33
HETATM   33  C7  UNL     1      28.908  12.488  28.956  1.00  0.00    -0.043 A 
HETATM   34  C8  UNL     1      29.808  12.550  27.885  1.00  0.00     0.008 A 
HETATM   35  C9  UNL     1      30.676  13.607  27.724  1.00  0.00     0.001 A 
HETATM   36  C10 UNL     1      30.693  14.653  28.615  1.00  0.00     0.000 A 
HETATM   37  C11 UNL     1      29.816  14.613  29.676  1.00  0.00     0.001 A 
HETATM   38  C12 UNL     1      28.938  13.537  29.833  1.00  0.00     0.008 A 
ENDBRANCH  32  33
ENDBRANCH  29  32
ENDBRANCH  27  29
ENDBRANCH  23  27
ENDBRANCH   3  23
TORSDOF 12
ENDMDL
