MODEL 1
REMARK VINA RESULT: -7.674264987      0.000      0.000
REMARK  12 active torsions:
REMARK  status: ('A' for Active; 'I' for Inactive)
REMARK    1  A    between atoms: C2_2  and  N1_3 
REMARK    2  A    between atoms: C2_2  and  C13_23 
REMARK       I    between atoms: N1_3  and  C3_5 
REMARK    3  A    between atoms: C3_5  and  C4_7 
REMARK    4  A    between atoms: C4_7  and  C5_8 
REMARK    5  A    between atoms: C4_7  and  N2_11 
REMARK    6  A    between atoms: C5_8  and  O2_9 
REMARK    7  A    between atoms: N2_11  and  S1_13 
REMARK    8  A    between atoms: S1_13  and  C6_16 
REMARK    9  A    between atoms: C6_16  and  C7_17 
REMARK       I    between atoms: C13_23  and  N3_25 
REMARK   10  A    between atoms: N3_25  and  C14_27 
REMARK   11  A    between atoms: C14_27  and  C15_28 
REMARK   12  A    between atoms: C18_31  and  C19_32 
ROOT
HETATM    1  N1  UNL     1      30.770  11.745  30.321  1.00  0.00    -0.346 N 
ATOM      2  H1  UNL     1      30.964  11.461  29.361  1.00  0.00     0.163 HD
HETATM    3  C3  UNL     1      31.841  12.121  31.139  1.00  0.00     0.243 C 
HETATM    4  O1  UNL     1      31.603  12.463  32.306  1.00  0.00    -0.271 OA
ENDROOT
BRANCH   1   5
HETATM    5  C2  UNL     1      29.401  11.742  30.784  1.00  0.00     0.172 C 
HETATM    6  C1  UNL     1      28.670  13.004  30.481  1.00  0.00     0.042 C 
BRANCH   5   7
HETATM    7  C13 UNL     1      28.729  10.544  30.238  1.00  0.00     0.240 C 
HETATM    8  O5  UNL     1      28.114   9.770  30.995  1.00  0.00    -0.271 OA
HETATM    9  N3  UNL     1      28.781  10.269  28.854  1.00  0.00    -0.355 N 
ATOM     10  H3  UNL     1      29.298  10.919  28.261  1.00  0.00     0.162 HD
BRANCH   9  11
HETATM   11  C14 UNL     1      28.153   9.132  28.215  1.00  0.00     0.161 C 
BRANCH  11  12
HETATM   12  C15 UNL     1      29.160   8.025  28.059  1.00  0.00    -0.040 A 
HETATM   13  C16 UNL     1      29.075   6.822  28.692  1.00  0.00     0.010 A 
HETATM   14  C17 UNL     1      30.019   5.843  28.505  1.00  0.00     0.015 A 
HETATM   15  C18 UNL     1      31.112   6.044  27.653  1.00  0.00     0.004 A 
HETATM   16  C20 UNL     1      31.207   7.248  27.012  1.00  0.00     0.015 A 
HETATM   17  C21 UNL     1      30.234   8.223  27.222  1.00  0.00     0.010 A 
BRANCH  15  18
HETATM   18  C19 UNL     1      32.074   4.974  27.494  1.00  0.00     0.120 C 
HETATM   19  N4  UNL     1      31.993   3.829  28.331  1.00  0.00    -0.082 NA
HETATM   20  N5  UNL     1      33.001   5.013  26.624  1.00  0.00    -0.387 N 
ATOM     21  H52 UNL     1      33.059   5.835  26.023  1.00  0.00     0.157 HD
ATOM     22  H51 UNL     1      33.679   4.259  26.513  1.00  0.00     0.157 HD
ENDBRANCH  15  18
ENDBRANCH  11  12
ENDBRANCH   9  11
ENDBRANCH   5   7
ENDBRANCH   1   5
BRANCH   3  23
HETATM   23  C4  UNL     1      33.275  12.120  30.620  1.00  0.00     0.208 C 
BRANCH  23  24
HETATM   24  C5  UNL     1      34.002  11.201  31.560  1.00  0.00     0.199 C 
BRANCH  24  25
HETATM   25  O2  UNL     1      33.235  10.046  31.765  1.00  0.00    -0.398 OA
ATOM     26  H2  UNL     1      33.778   9.279  31.621  1.00  0.00     0.209 HD
ENDBRANCH  24  25
ENDBRANCH  23  24
BRANCH  23  27
HETATM   27  N2  UNL     1      33.195  11.687  29.271  1.00  0.00    -0.303 N 
ATOM     28  H2  UNL     1      32.698  10.834  29.017  1.00  0.00     0.173 HD
BRANCH  27  29
HETATM   29  S1  UNL     1      33.957  12.640  28.102  1.00  0.00     0.231 S 
HETATM   30  O3  UNL     1      34.515  13.863  28.832  1.00  0.00    -0.206 OA
HETATM   31  O4  UNL     1      35.133  11.948  27.458  1.00  0.00    -0.206 OA
BRANCH  29  32
HETATM   32  C6  UNL     1      32.907  13.274  26.830  1.00  0.00     0.201 C 
BRANCH  32  33
HETATM   33  C7  UNL     1      32.799  12.389  25.652  1.00  0.00    -0.043 A 
HETATM   34  C8  UNL     1      32.228  11.117  25.783  1.00  0.00     0.008 A 
HETATM   35  C9  UNL     1      32.098  10.264  24.710  1.00  0.00     0.001 A 
HETATM   36  C10 UNL     1      32.527  10.630  23.457  1.00  0.00     0.000 A 
HETATM   37  C11 UNL     1      33.092  11.876  23.305  1.00  0.00     0.001 A 
HETATM   38  C12 UNL     1      33.220  12.737  24.398  1.00  0.00     0.008 A 
ENDBRANCH  32  33
ENDBRANCH  29  32
ENDBRANCH  27  29
ENDBRANCH  23  27
ENDBRANCH   3  23
TORSDOF 12
ENDMDL
