MODEL 8
REMARK VINA RESULT: -7.001364346      1.079      1.762
REMARK  12 active torsions:
REMARK  status: ('A' for Active; 'I' for Inactive)
REMARK    1  A    between atoms: C2_2  and  N1_3 
REMARK    2  A    between atoms: C2_2  and  C13_23 
REMARK       I    between atoms: N1_3  and  C3_5 
REMARK    3  A    between atoms: C3_5  and  C4_7 
REMARK    4  A    between atoms: C4_7  and  C5_8 
REMARK    5  A    between atoms: C4_7  and  N2_11 
REMARK    6  A    between atoms: C5_8  and  O2_9 
REMARK    7  A    between atoms: N2_11  and  S1_13 
REMARK    8  A    between atoms: S1_13  and  C6_16 
REMARK    9  A    between atoms: C6_16  and  C7_17 
REMARK       I    between atoms: C13_23  and  N3_25 
REMARK   10  A    between atoms: N3_25  and  C14_27 
REMARK   11  A    between atoms: C14_27  and  C15_28 
REMARK   12  A    between atoms: C18_31  and  C19_32 
ROOT
HETATM    1  N1  UNL     1      30.389  11.428  29.592  1.00  0.00    -0.346 N 
ATOM      2  H1  UNL     1      30.886  10.920  28.860  1.00  0.00     0.163 HD
HETATM    3  C3  UNL     1      31.134  12.099  30.568  1.00  0.00     0.243 C 
HETATM    4  O1  UNL     1      30.528  12.712  31.458  1.00  0.00    -0.271 OA
ENDROOT
BRANCH   1   5
HETATM    5  C2  UNL     1      28.944  11.425  29.581  1.00  0.00     0.172 C 
HETATM    6  C1  UNL     1      28.357  12.294  28.523  1.00  0.00     0.042 C 
BRANCH   5   7
HETATM    7  C13 UNL     1      28.483  10.024  29.494  1.00  0.00     0.240 C 
HETATM    8  O5  UNL     1      27.895   9.495  30.456  1.00  0.00    -0.271 OA
HETATM    9  N3  UNL     1      28.706   9.274  28.318  1.00  0.00    -0.355 N 
ATOM     10  H3  UNL     1      29.197   9.733  27.550  1.00  0.00     0.162 HD
BRANCH   9  11
HETATM   11  C14 UNL     1      28.290   7.901  28.124  1.00  0.00     0.161 C 
BRANCH  11  12
HETATM   12  C15 UNL     1      29.505   7.025  27.979  1.00  0.00    -0.040 A 
HETATM   13  C16 UNL     1      30.655   7.413  27.362  1.00  0.00     0.010 A 
HETATM   14  C17 UNL     1      31.738   6.573  27.267  1.00  0.00     0.015 A 
HETATM   15  C18 UNL     1      31.701   5.280  27.802  1.00  0.00     0.004 A 
HETATM   16  C20 UNL     1      30.550   4.880  28.423  1.00  0.00     0.015 A 
HETATM   17  C21 UNL     1      29.468   5.754  28.505  1.00  0.00     0.010 A 
BRANCH  15  18
HETATM   18  C19 UNL     1      32.874   4.442  27.673  1.00  0.00     0.120 C 
HETATM   19  N4  UNL     1      34.165   5.034  27.699  1.00  0.00    -0.082 NA
HETATM   20  N5  UNL     1      32.799   3.180  27.537  1.00  0.00    -0.387 N 
ATOM     21  H52 UNL     1      31.873   2.754  27.518  1.00  0.00     0.157 HD
ATOM     22  H51 UNL     1      33.626   2.589  27.445  1.00  0.00     0.157 HD
ENDBRANCH  15  18
ENDBRANCH  11  12
ENDBRANCH   9  11
ENDBRANCH   5   7
ENDBRANCH   1   5
BRANCH   3  23
HETATM   23  C4  UNL     1      32.658  12.087  30.549  1.00  0.00     0.208 C 
BRANCH  23  24
HETATM   24  C5  UNL     1      33.029  11.074  31.594  1.00  0.00     0.199 C 
BRANCH  24  25
HETATM   25  O2  UNL     1      32.615   9.803  31.174  1.00  0.00    -0.398 OA
ATOM     26  H2  UNL     1      33.379   9.279  30.960  1.00  0.00     0.209 HD
ENDBRANCH  24  25
ENDBRANCH  23  24
BRANCH  23  27
HETATM   27  N2  UNL     1      33.025  11.764  29.217  1.00  0.00    -0.303 N 
ATOM     28  H2  UNL     1      33.108  10.795  28.910  1.00  0.00     0.173 HD
BRANCH  27  29
HETATM   29  S1  UNL     1      33.319  13.048  28.157  1.00  0.00     0.231 S 
HETATM   30  O3  UNL     1      31.957  13.489  27.618  1.00  0.00    -0.206 OA
HETATM   31  O4  UNL     1      33.921  14.248  28.844  1.00  0.00    -0.206 OA
BRANCH  29  32
HETATM   32  C6  UNL     1      34.296  12.657  26.738  1.00  0.00     0.201 C 
BRANCH  32  33
HETATM   33  C7  UNL     1      33.552  11.938  25.684  1.00  0.00    -0.043 A 
HETATM   34  C8  UNL     1      33.598  12.393  24.361  1.00  0.00     0.008 A 
HETATM   35  C9  UNL     1      32.928  11.747  23.345  1.00  0.00     0.001 A 
HETATM   36  C10 UNL     1      32.182  10.620  23.593  1.00  0.00     0.000 A 
HETATM   37  C11 UNL     1      32.123  10.154  24.887  1.00  0.00     0.001 A 
HETATM   38  C12 UNL     1      32.805  10.815  25.913  1.00  0.00     0.008 A 
ENDBRANCH  32  33
ENDBRANCH  29  32
ENDBRANCH  27  29
ENDBRANCH  23  27
ENDBRANCH   3  23
TORSDOF 12
ENDMDL
