MODEL 10
REMARK VINA RESULT: -6.618224147      3.002      7.396
REMARK  12 active torsions:
REMARK  status: ('A' for Active; 'I' for Inactive)
REMARK    1  A    between atoms: C2_2  and  N1_3 
REMARK    2  A    between atoms: C2_2  and  C13_23 
REMARK       I    between atoms: N1_3  and  C3_5 
REMARK    3  A    between atoms: C3_5  and  C4_7 
REMARK    4  A    between atoms: C4_7  and  C5_8 
REMARK    5  A    between atoms: C4_7  and  N2_11 
REMARK    6  A    between atoms: C5_8  and  O2_9 
REMARK    7  A    between atoms: N2_11  and  S1_13 
REMARK    8  A    between atoms: S1_13  and  C6_16 
REMARK    9  A    between atoms: C6_16  and  C7_17 
REMARK       I    between atoms: C13_23  and  N3_25 
REMARK   10  A    between atoms: N3_25  and  C14_27 
REMARK   11  A    between atoms: C14_27  and  C15_28 
REMARK   12  A    between atoms: C18_31  and  N4_32 
REMARK       I    between atoms: N4_32  and  C19_34 
ROOT
HETATM    1  C1  UNL     1      30.979  10.330  25.178  1.00  0.00     0.042 C 
HETATM    2  C2  UNL     1      31.726   9.920  26.479  1.00  0.00     0.172 C 
ENDROOT
BRANCH   2   3
HETATM    3  N1  UNL     1      30.659   9.791  27.447  1.00  0.00    -0.346 N 
HETATM    4  C3  UNL     1      29.970   8.563  27.703  1.00  0.00     0.243 C 
HETATM    5  O1  UNL     1      30.386   7.581  27.042  1.00  0.00    -0.271 OA
ATOM      6  H1  UNL     1      30.383  10.619  27.976  1.00  0.00     0.163 HD
BRANCH   4   7
HETATM    7  C4  UNL     1      28.854   8.413  28.633  1.00  0.00     0.208 C 
BRANCH   7   8
HETATM    8  C5  UNL     1      29.011   6.969  29.280  1.00  0.00     0.199 C 
BRANCH   8   9
HETATM    9  O2  UNL     1      27.895   6.704  30.018  1.00  0.00    -0.398 OA
ATOM     10  H2  UNL     1      27.160   6.599  29.424  1.00  0.00     0.209 HD
ENDBRANCH   8   9
ENDBRANCH   7   8
BRANCH   7  11
HETATM   11  N2  UNL     1      29.020   9.344  29.689  1.00  0.00    -0.303 N 
ATOM     12  H2  UNL     1      29.962   9.496  30.048  1.00  0.00     0.173 HD
BRANCH  11  13
HETATM   13  S1  UNL     1      27.788  10.196  30.373  1.00  0.00     0.231 S 
HETATM   14  O3  UNL     1      27.925  10.010  31.916  1.00  0.00    -0.206 OA
HETATM   15  O4  UNL     1      26.403   9.607  30.015  1.00  0.00    -0.206 OA
BRANCH  13  16
HETATM   16  C6  UNL     1      27.616  11.919  30.136  1.00  0.00     0.201 C 
BRANCH  16  17
HETATM   17  C7  UNL     1      28.476  12.421  29.059  1.00  0.00    -0.043 A 
HETATM   18  C8  UNL     1      28.037  12.312  27.746  1.00  0.00     0.008 A 
HETATM   19  C9  UNL     1      28.745  12.825  26.686  1.00  0.00     0.001 A 
HETATM   20  C10 UNL     1      29.936  13.470  26.939  1.00  0.00     0.000 A 
HETATM   21  C11 UNL     1      30.389  13.588  28.247  1.00  0.00     0.001 A 
HETATM   22  C12 UNL     1      29.681  13.074  29.317  1.00  0.00     0.008 A 
ENDBRANCH  16  17
ENDBRANCH  13  16
ENDBRANCH  11  13
ENDBRANCH   7  11
ENDBRANCH   4   7
ENDBRANCH   2   3
BRANCH   2  23
HETATM   23  C13 UNL     1      32.739  10.918  26.771  1.00  0.00     0.240 C 
HETATM   24  O5  UNL     1      33.382  11.522  25.888  1.00  0.00    -0.271 OA
HETATM   25  N3  UNL     1      33.018  11.222  28.144  1.00  0.00    -0.355 N 
ATOM     26  H3  UNL     1      32.475  10.721  28.847  1.00  0.00     0.162 HD
BRANCH  25  27
HETATM   27  C14 UNL     1      33.987  12.160  28.619  1.00  0.00     0.161 C 
BRANCH  27  28
HETATM   28  C15 UNL     1      33.491  12.714  29.931  1.00  0.00    -0.040 A 
HETATM   29  C16 UNL     1      32.888  11.899  30.878  1.00  0.00     0.011 A 
HETATM   30  C17 UNL     1      32.417  12.366  32.069  1.00  0.00     0.030 A 
HETATM   31  C18 UNL     1      32.525  13.720  32.392  1.00  0.00     0.034 A 
HETATM   32  C20 UNL     1      33.130  14.536  31.449  1.00  0.00     0.030 A 
HETATM   33  C21 UNL     1      33.602  14.040  30.245  1.00  0.00     0.011 A 
BRANCH  31  34
HETATM   34  N4  UNL     1      31.996  14.185  33.624  1.00  0.00    -0.331 N 
HETATM   35  C19 UNL     1      30.832  14.977  33.731  1.00  0.00     0.186 C 
HETATM   36  N5  UNL     1      30.651  15.896  34.817  1.00  0.00    -0.064 NA
HETATM   37  N6  UNL     1      29.927  14.852  32.827  1.00  0.00    -0.373 N 
ATOM     38  H62 UNL     1      30.055  14.198  32.054  1.00  0.00     0.158 HD
ATOM     39  H61 UNL     1      29.086  15.423  32.905  1.00  0.00     0.158 HD
ATOM     40  H4  UNL     1      32.486  13.933  34.482  1.00  0.00     0.168 HD
ENDBRANCH  31  34
ENDBRANCH  27  28
ENDBRANCH  25  27
ENDBRANCH   2  23
TORSDOF 12
ENDMDL
