MODEL 3
REMARK VINA RESULT: -7.039890532      1.754      2.023
REMARK  12 active torsions:
REMARK  status: ('A' for Active; 'I' for Inactive)
REMARK    1  A    between atoms: C2_2  and  N1_3 
REMARK    2  A    between atoms: C2_2  and  C13_23 
REMARK       I    between atoms: N1_3  and  C3_5 
REMARK    3  A    between atoms: C3_5  and  C4_7 
REMARK    4  A    between atoms: C4_7  and  C5_8 
REMARK    5  A    between atoms: C4_7  and  N2_11 
REMARK    6  A    between atoms: C5_8  and  O2_9 
REMARK    7  A    between atoms: N2_11  and  S1_13 
REMARK    8  A    between atoms: S1_13  and  C6_16 
REMARK    9  A    between atoms: C6_16  and  C7_17 
REMARK       I    between atoms: C13_23  and  N3_25 
REMARK   10  A    between atoms: N3_25  and  C14_27 
REMARK   11  A    between atoms: C14_27  and  C15_28 
REMARK   12  A    between atoms: C18_31  and  N4_32 
REMARK       I    between atoms: N4_32  and  C19_34 
ROOT
HETATM    1  C1  UNL     1      26.947  12.938  30.821  1.00  0.00     0.042 C 
HETATM    2  C2  UNL     1      27.798  11.641  30.935  1.00  0.00     0.172 C 
ENDROOT
BRANCH   2   3
HETATM    3  N1  UNL     1      29.122  12.079  30.548  1.00  0.00    -0.346 N 
HETATM    4  C3  UNL     1      30.325  11.527  31.091  1.00  0.00     0.243 C 
HETATM    5  O1  UNL     1      30.150  10.597  31.915  1.00  0.00    -0.271 OA
ATOM      6  H1  UNL     1      29.202  12.820  29.851  1.00  0.00     0.163 HD
BRANCH   4   7
HETATM    7  C4  UNL     1      31.672  11.984  30.763  1.00  0.00     0.208 C 
BRANCH   7   8
HETATM    8  C5  UNL     1      32.604  11.502  31.957  1.00  0.00     0.199 C 
BRANCH   8   9
HETATM    9  O2  UNL     1      33.018  10.228  31.695  1.00  0.00    -0.398 OA
ATOM     10  H2  UNL     1      33.592   9.948  32.399  1.00  0.00     0.209 HD
ENDBRANCH   8   9
ENDBRANCH   7   8
BRANCH   7  11
HETATM   11  N2  UNL     1      32.114  11.291  29.607  1.00  0.00    -0.303 N 
ATOM     12  H2  UNL     1      32.572  10.389  29.738  1.00  0.00     0.173 HD
BRANCH  11  13
HETATM   13  S1  UNL     1      31.936  11.849  28.069  1.00  0.00     0.231 S 
HETATM   14  O3  UNL     1      32.435  13.327  28.074  1.00  0.00    -0.206 OA
HETATM   15  O4  UNL     1      30.449  11.925  27.645  1.00  0.00    -0.206 OA
BRANCH  13  16
HETATM   16  C6  UNL     1      32.748  11.099  26.716  1.00  0.00     0.201 C 
BRANCH  16  17
HETATM   17  C7  UNL     1      32.073  11.370  25.442  1.00  0.00    -0.043 A 
HETATM   18  C8  UNL     1      32.276  12.597  24.825  1.00  0.00     0.008 A 
HETATM   19  C9  UNL     1      31.743  12.903  23.595  1.00  0.00     0.001 A 
HETATM   20  C10 UNL     1      30.978  11.953  22.954  1.00  0.00     0.000 A 
HETATM   21  C11 UNL     1      30.765  10.719  23.559  1.00  0.00     0.001 A 
HETATM   22  C12 UNL     1      31.299  10.408  24.795  1.00  0.00     0.008 A 
ENDBRANCH  16  17
ENDBRANCH  13  16
ENDBRANCH  11  13
ENDBRANCH   7  11
ENDBRANCH   4   7
ENDBRANCH   2   3
BRANCH   2  23
HETATM   23  C13 UNL     1      27.196  10.612  30.105  1.00  0.00     0.240 C 
HETATM   24  O5  UNL     1      25.963  10.482  29.960  1.00  0.00    -0.271 OA
HETATM   25  N3  UNL     1      28.061   9.698  29.421  1.00  0.00    -0.355 N 
ATOM     26  H3  UNL     1      29.065   9.829  29.548  1.00  0.00     0.162 HD
BRANCH  25  27
HETATM   27  C14 UNL     1      27.650   8.619  28.578  1.00  0.00     0.161 C 
BRANCH  27  28
HETATM   28  C15 UNL     1      28.873   7.808  28.232  1.00  0.00    -0.040 A 
HETATM   29  C16 UNL     1      29.999   8.397  27.678  1.00  0.00     0.011 A 
HETATM   30  C17 UNL     1      31.118   7.695  27.342  1.00  0.00     0.030 A 
HETATM   31  C18 UNL     1      31.176   6.315  27.547  1.00  0.00     0.034 A 
HETATM   32  C20 UNL     1      30.053   5.723  28.103  1.00  0.00     0.030 A 
HETATM   33  C21 UNL     1      28.927   6.456  28.438  1.00  0.00     0.011 A 
BRANCH  31  34
HETATM   34  N4  UNL     1      32.339   5.603  27.157  1.00  0.00    -0.331 N 
HETATM   35  C19 UNL     1      33.070   4.757  28.019  1.00  0.00     0.186 C 
HETATM   36  N5  UNL     1      34.476   4.540  27.837  1.00  0.00    -0.064 NA
HETATM   37  N6  UNL     1      32.441   4.176  28.978  1.00  0.00    -0.373 N 
ATOM     38  H62 UNL     1      31.441   4.330  29.107  1.00  0.00     0.158 HD
ATOM     39  H61 UNL     1      32.969   3.565  29.600  1.00  0.00     0.158 HD
ATOM     40  H4  UNL     1      32.667   5.708  26.197  1.00  0.00     0.168 HD
ENDBRANCH  31  34
ENDBRANCH  27  28
ENDBRANCH  25  27
ENDBRANCH   2  23
TORSDOF 12
ENDMDL
