MODEL 5
REMARK VINA RESULT: -6.886439881      1.673      2.024
REMARK  12 active torsions:
REMARK  status: ('A' for Active; 'I' for Inactive)
REMARK    1  A    between atoms: C2_2  and  N1_3 
REMARK    2  A    between atoms: C2_2  and  C13_23 
REMARK       I    between atoms: N1_3  and  C3_5 
REMARK    3  A    between atoms: C3_5  and  C4_7 
REMARK    4  A    between atoms: C4_7  and  C5_8 
REMARK    5  A    between atoms: C4_7  and  N2_11 
REMARK    6  A    between atoms: C5_8  and  O2_9 
REMARK    7  A    between atoms: N2_11  and  S1_13 
REMARK    8  A    between atoms: S1_13  and  C6_16 
REMARK    9  A    between atoms: C6_16  and  C7_17 
REMARK       I    between atoms: C13_23  and  N3_25 
REMARK   10  A    between atoms: N3_25  and  C14_27 
REMARK   11  A    between atoms: C14_27  and  C15_28 
REMARK   12  A    between atoms: C18_31  and  N4_32 
REMARK       I    between atoms: N4_32  and  C19_34 
ROOT
HETATM    1  C1  UNL     1      26.935  12.848  30.794  1.00  0.00     0.042 C 
HETATM    2  C2  UNL     1      27.821  11.576  30.920  1.00  0.00     0.172 C 
ENDROOT
BRANCH   2   3
HETATM    3  N1  UNL     1      29.121  12.032  30.478  1.00  0.00    -0.346 N 
HETATM    4  C3  UNL     1      30.353  11.540  31.012  1.00  0.00     0.243 C 
HETATM    5  O1  UNL     1      30.228  10.645  31.882  1.00  0.00    -0.271 OA
ATOM      6  H1  UNL     1      29.161  12.742  29.746  1.00  0.00     0.163 HD
BRANCH   4   7
HETATM    7  C4  UNL     1      31.678  12.019  30.626  1.00  0.00     0.208 C 
BRANCH   7   8
HETATM    8  C5  UNL     1      32.652  11.629  31.820  1.00  0.00     0.199 C 
BRANCH   8   9
HETATM    9  O2  UNL     1      33.044  10.333  31.652  1.00  0.00    -0.398 OA
ATOM     10  H2  UNL     1      33.360  10.004  32.486  1.00  0.00     0.209 HD
ENDBRANCH   8   9
ENDBRANCH   7   8
BRANCH   7  11
HETATM   11  N2  UNL     1      32.114  11.279  29.497  1.00  0.00    -0.303 N 
ATOM     12  H2  UNL     1      32.536  10.365  29.660  1.00  0.00     0.173 HD
BRANCH  11  13
HETATM   13  S1  UNL     1      31.982  11.801  27.942  1.00  0.00     0.231 S 
HETATM   14  O3  UNL     1      33.044  11.008  27.118  1.00  0.00    -0.206 OA
HETATM   15  O4  UNL     1      32.381  13.289  27.790  1.00  0.00    -0.206 OA
BRANCH  13  16
HETATM   16  C6  UNL     1      30.495  11.642  27.039  1.00  0.00     0.201 C 
BRANCH  16  17
HETATM   17  C7  UNL     1      30.715  11.705  25.589  1.00  0.00    -0.043 A 
HETATM   18  C8  UNL     1      30.867  10.519  24.884  1.00  0.00     0.008 A 
HETATM   19  C9  UNL     1      31.001  10.485  23.516  1.00  0.00     0.001 A 
HETATM   20  C10 UNL     1      30.984  11.676  22.823  1.00  0.00     0.000 A 
HETATM   21  C11 UNL     1      30.833  12.872  23.514  1.00  0.00     0.001 A 
HETATM   22  C12 UNL     1      30.698  12.911  24.889  1.00  0.00     0.008 A 
ENDBRANCH  16  17
ENDBRANCH  13  16
ENDBRANCH  11  13
ENDBRANCH   7  11
ENDBRANCH   4   7
ENDBRANCH   2   3
BRANCH   2  23
HETATM   23  C13 UNL     1      27.219  10.507  30.143  1.00  0.00     0.240 C 
HETATM   24  O5  UNL     1      25.988  10.400  29.962  1.00  0.00    -0.271 OA
HETATM   25  N3  UNL     1      28.081   9.523  29.558  1.00  0.00    -0.355 N 
ATOM     26  H3  UNL     1      29.083   9.636  29.713  1.00  0.00     0.162 HD
BRANCH  25  27
HETATM   27  C14 UNL     1      27.668   8.398  28.778  1.00  0.00     0.161 C 
BRANCH  27  28
HETATM   28  C15 UNL     1      28.907   7.674  28.316  1.00  0.00    -0.040 A 
HETATM   29  C16 UNL     1      29.035   6.299  28.455  1.00  0.00     0.011 A 
HETATM   30  C17 UNL     1      30.144   5.611  28.061  1.00  0.00     0.030 A 
HETATM   31  C18 UNL     1      31.226   6.281  27.487  1.00  0.00     0.034 A 
HETATM   32  C20 UNL     1      31.100   7.654  27.345  1.00  0.00     0.030 A 
HETATM   33  C21 UNL     1      29.963   8.333  27.751  1.00  0.00     0.011 A 
BRANCH  31  34
HETATM   34  N4  UNL     1      32.382   5.546  27.117  1.00  0.00    -0.331 N 
HETATM   35  C19 UNL     1      33.112   4.729  28.007  1.00  0.00     0.186 C 
HETATM   36  N5  UNL     1      34.515   4.495  27.825  1.00  0.00    -0.064 NA
HETATM   37  N6  UNL     1      32.485   4.190  28.991  1.00  0.00    -0.373 N 
ATOM     38  H62 UNL     1      31.487   4.356  29.121  1.00  0.00     0.158 HD
ATOM     39  H61 UNL     1      33.013   3.599  29.633  1.00  0.00     0.158 HD
ATOM     40  H4  UNL     1      32.703   5.612  26.152  1.00  0.00     0.168 HD
ENDBRANCH  31  34
ENDBRANCH  27  28
ENDBRANCH  25  27
ENDBRANCH   2  23
TORSDOF 12
ENDMDL
