MODEL 8
REMARK VINA RESULT: -6.789526697      2.979      6.377
REMARK  12 active torsions:
REMARK  status: ('A' for Active; 'I' for Inactive)
REMARK    1  A    between atoms: C2_2  and  N1_3 
REMARK    2  A    between atoms: C2_2  and  C13_23 
REMARK       I    between atoms: N1_3  and  C3_5 
REMARK    3  A    between atoms: C3_5  and  C4_7 
REMARK    4  A    between atoms: C4_7  and  C5_8 
REMARK    5  A    between atoms: C4_7  and  N2_11 
REMARK    6  A    between atoms: C5_8  and  O2_9 
REMARK    7  A    between atoms: N2_11  and  S1_13 
REMARK    8  A    between atoms: S1_13  and  C6_16 
REMARK    9  A    between atoms: C6_16  and  C7_17 
REMARK       I    between atoms: C13_23  and  N3_25 
REMARK   10  A    between atoms: N3_25  and  C14_27 
REMARK   11  A    between atoms: C14_27  and  C15_28 
REMARK   12  A    between atoms: C18_31  and  N4_32 
REMARK       I    between atoms: N4_32  and  C19_34 
ROOT
HETATM    1  C1  UNL     1      34.137  10.625  32.111  1.00  0.00     0.042 C 
HETATM    2  C2  UNL     1      32.983  11.555  31.640  1.00  0.00     0.172 C 
ENDROOT
BRANCH   2   3
HETATM    3  N1  UNL     1      31.928  10.625  31.297  1.00  0.00    -0.346 N 
HETATM    4  C3  UNL     1      30.537  10.919  31.456  1.00  0.00     0.243 C 
HETATM    5  O1  UNL     1      30.290  12.070  31.889  1.00  0.00    -0.271 OA
ATOM      6  H1  UNL     1      32.190   9.713  30.922  1.00  0.00     0.163 HD
BRANCH   4   7
HETATM    7  C4  UNL     1      29.452   9.984  31.171  1.00  0.00     0.208 C 
BRANCH   7   8
HETATM    8  C5  UNL     1      28.145  10.615  31.822  1.00  0.00     0.199 C 
BRANCH   8   9
HETATM    9  O2  UNL     1      27.724   9.793  32.827  1.00  0.00    -0.398 OA
ATOM     10  H2  UNL     1      27.226  10.311  33.449  1.00  0.00     0.209 HD
ENDBRANCH   8   9
ENDBRANCH   7   8
BRANCH   7  11
HETATM   11  N2  UNL     1      29.230   9.963  29.771  1.00  0.00    -0.303 N 
ATOM     12  H2  UNL     1      29.932  10.396  29.171  1.00  0.00     0.173 HD
BRANCH  11  13
HETATM   13  S1  UNL     1      27.915   9.283  29.053  1.00  0.00     0.231 S 
HETATM   14  O3  UNL     1      27.537  10.209  27.855  1.00  0.00    -0.206 OA
HETATM   15  O4  UNL     1      26.675   9.292  29.979  1.00  0.00    -0.206 OA
BRANCH  13  16
HETATM   16  C6  UNL     1      27.961   7.670  28.382  1.00  0.00     0.201 C 
BRANCH  16  17
HETATM   17  C7  UNL     1      29.326   7.135  28.312  1.00  0.00    -0.043 A 
HETATM   18  C8  UNL     1      29.611   5.943  28.964  1.00  0.00     0.008 A 
HETATM   19  C9  UNL     1      30.842   5.335  28.886  1.00  0.00     0.001 A 
HETATM   20  C10 UNL     1      31.826   5.935  28.130  1.00  0.00     0.000 A 
HETATM   21  C11 UNL     1      31.556   7.129  27.471  1.00  0.00     0.001 A 
HETATM   22  C12 UNL     1      30.321   7.744  27.547  1.00  0.00     0.008 A 
ENDBRANCH  16  17
ENDBRANCH  13  16
ENDBRANCH  11  13
ENDBRANCH   7  11
ENDBRANCH   4   7
ENDBRANCH   2   3
BRANCH   2  23
HETATM   23  C13 UNL     1      33.471  12.396  30.561  1.00  0.00     0.240 C 
HETATM   24  O5  UNL     1      33.528  13.641  30.634  1.00  0.00    -0.271 OA
HETATM   25  N3  UNL     1      33.905  11.765  29.350  1.00  0.00    -0.355 N 
ATOM     26  H3  UNL     1      33.856  10.746  29.316  1.00  0.00     0.162 HD
BRANCH  25  27
HETATM   27  C14 UNL     1      34.398  12.429  28.184  1.00  0.00     0.161 C 
BRANCH  27  28
HETATM   28  C15 UNL     1      33.377  12.261  27.087  1.00  0.00    -0.040 A 
HETATM   29  C16 UNL     1      32.493  11.192  27.079  1.00  0.00     0.011 A 
HETATM   30  C17 UNL     1      31.566  11.001  26.099  1.00  0.00     0.030 A 
HETATM   31  C18 UNL     1      31.465  11.898  25.034  1.00  0.00     0.034 A 
HETATM   32  C20 UNL     1      32.345  12.969  25.041  1.00  0.00     0.030 A 
HETATM   33  C21 UNL     1      33.280  13.144  26.047  1.00  0.00     0.011 A 
BRANCH  31  34
HETATM   34  N4  UNL     1      30.514  11.657  24.009  1.00  0.00    -0.331 N 
HETATM   35  C19 UNL     1      30.848  11.195  22.718  1.00  0.00     0.186 C 
HETATM   36  N5  UNL     1      30.040  11.515  21.577  1.00  0.00    -0.064 NA
HETATM   37  N6  UNL     1      31.902  10.471  22.586  1.00  0.00    -0.373 N 
ATOM     38  H62 UNL     1      32.478  10.243  23.397  1.00  0.00     0.158 HD
ATOM     39  H61 UNL     1      32.144  10.137  21.653  1.00  0.00     0.158 HD
ATOM     40  H4  UNL     1      29.530  11.827  24.218  1.00  0.00     0.168 HD
ENDBRANCH  31  34
ENDBRANCH  27  28
ENDBRANCH  25  27
ENDBRANCH   2  23
TORSDOF 12
ENDMDL
