MODEL 13
REMARK VINA RESULT: -6.369035442      2.980      6.351
REMARK  12 active torsions:
REMARK  status: ('A' for Active; 'I' for Inactive)
REMARK    1  A    between atoms: C2_2  and  N1_3 
REMARK    2  A    between atoms: C2_2  and  C13_23 
REMARK       I    between atoms: N1_3  and  C3_5 
REMARK    3  A    between atoms: C3_5  and  C4_7 
REMARK    4  A    between atoms: C4_7  and  C5_8 
REMARK    5  A    between atoms: C4_7  and  N2_11 
REMARK    6  A    between atoms: C5_8  and  O2_9 
REMARK    7  A    between atoms: N2_11  and  S1_13 
REMARK    8  A    between atoms: S1_13  and  C6_16 
REMARK    9  A    between atoms: C6_16  and  C7_17 
REMARK       I    between atoms: C13_23  and  N3_25 
REMARK   10  A    between atoms: N3_25  and  C14_27 
REMARK   11  A    between atoms: C14_27  and  C15_28 
REMARK   12  A    between atoms: C18_31  and  N4_32 
REMARK       I    between atoms: N4_32  and  C19_34 
ROOT
HETATM    1  C1  UNL     1      32.602  10.944  31.912  1.00  0.00     0.042 C 
HETATM    2  C2  UNL     1      32.102  12.288  31.311  1.00  0.00     0.172 C 
ENDROOT
BRANCH   2   3
HETATM    3  N1  UNL     1      30.826  11.935  30.726  1.00  0.00    -0.346 N 
HETATM    4  C3  UNL     1      29.574  12.438  31.203  1.00  0.00     0.243 C 
HETATM    5  O1  UNL     1      29.663  13.246  32.158  1.00  0.00    -0.271 OA
ATOM      6  H1  UNL     1      30.819  11.294  29.932  1.00  0.00     0.163 HD
BRANCH   4   7
HETATM    7  C4  UNL     1      28.269  12.059  30.670  1.00  0.00     0.208 C 
BRANCH   7   8
HETATM    8  C5  UNL     1      27.619  13.395  30.106  1.00  0.00     0.199 C 
BRANCH   8   9
HETATM    9  O2  UNL     1      28.618  14.190  29.623  1.00  0.00    -0.398 OA
ATOM     10  H2  UNL     1      29.178  14.442  30.348  1.00  0.00     0.209 HD
ENDBRANCH   8   9
ENDBRANCH   7   8
BRANCH   7  11
HETATM   11  N2  UNL     1      28.467  11.208  29.553  1.00  0.00    -0.303 N 
ATOM     12  H2  UNL     1      28.614  11.643  28.642  1.00  0.00     0.173 HD
BRANCH  11  13
HETATM   13  S1  UNL     1      28.477   9.564  29.632  1.00  0.00     0.231 S 
HETATM   14  O3  UNL     1      27.243   9.156  30.495  1.00  0.00    -0.206 OA
HETATM   15  O4  UNL     1      29.706   9.025  30.401  1.00  0.00    -0.206 OA
BRANCH  13  16
HETATM   16  C6  UNL     1      28.376   8.572  28.198  1.00  0.00     0.201 C 
BRANCH  16  17
HETATM   17  C7  UNL     1      29.410   7.531  28.168  1.00  0.00    -0.043 A 
HETATM   18  C8  UNL     1      29.165   6.325  28.811  1.00  0.00     0.008 A 
HETATM   19  C9  UNL     1      30.047   5.272  28.767  1.00  0.00     0.001 A 
HETATM   20  C10 UNL     1      31.218   5.423  28.057  1.00  0.00     0.000 A 
HETATM   21  C11 UNL     1      31.478   6.624  27.408  1.00  0.00     0.001 A 
HETATM   22  C12 UNL     1      30.595   7.686  27.449  1.00  0.00     0.008 A 
ENDBRANCH  16  17
ENDBRANCH  13  16
ENDBRANCH  11  13
ENDBRANCH   7  11
ENDBRANCH   4   7
ENDBRANCH   2   3
BRANCH   2  23
HETATM   23  C13 UNL     1      33.108  12.794  30.394  1.00  0.00     0.240 C 
HETATM   24  O5  UNL     1      33.722  13.867  30.574  1.00  0.00    -0.271 OA
HETATM   25  N3  UNL     1      33.409  12.026  29.223  1.00  0.00    -0.355 N 
ATOM     26  H3  UNL     1      32.901  11.150  29.102  1.00  0.00     0.162 HD
BRANCH  25  27
HETATM   27  C14 UNL     1      34.354  12.373  28.208  1.00  0.00     0.161 C 
BRANCH  27  28
HETATM   28  C15 UNL     1      33.751  12.017  26.872  1.00  0.00    -0.040 A 
HETATM   29  C16 UNL     1      32.764  11.048  26.759  1.00  0.00     0.011 A 
HETATM   30  C17 UNL     1      32.205  10.691  25.568  1.00  0.00     0.030 A 
HETATM   31  C18 UNL     1      32.615  11.302  24.381  1.00  0.00     0.034 A 
HETATM   32  C20 UNL     1      33.599  12.272  24.492  1.00  0.00     0.030 A 
HETATM   33  C21 UNL     1      34.154  12.620  25.712  1.00  0.00     0.011 A 
BRANCH  31  34
HETATM   34  N4  UNL     1      32.041  10.888  23.152  1.00  0.00    -0.331 N 
HETATM   35  C19 UNL     1      30.769  11.299  22.700  1.00  0.00     0.186 C 
HETATM   36  N5  UNL     1      29.981  10.471  21.833  1.00  0.00    -0.064 NA
HETATM   37  N6  UNL     1      30.328  12.444  23.083  1.00  0.00    -0.373 N 
ATOM     38  H62 UNL     1      30.888  13.033  23.699  1.00  0.00     0.158 HD
ATOM     39  H61 UNL     1      29.409  12.741  22.756  1.00  0.00     0.158 HD
ATOM     40  H4  UNL     1      32.580  10.257  22.560  1.00  0.00     0.168 HD
ENDBRANCH  31  34
ENDBRANCH  27  28
ENDBRANCH  25  27
ENDBRANCH   2  23
TORSDOF 12
ENDMDL
