MODEL 1
REMARK VINA RESULT: -8.423551620      0.000      0.000
REMARK  4 active torsions:
REMARK  status: ('A' for Active; 'I' for Inactive)
REMARK    1  A    between atoms: N1_4  and  C4_5 
REMARK    2  A    between atoms: C6_7  and  O1_8 
REMARK    3  A    between atoms: C7_10  and  C8_11 
REMARK    4  A    between atoms: C8_11  and  O2_12 
ROOT
HETATM    1  C1  UNL     1      36.223  24.958  86.684  1.00  0.00     0.056 C 
HETATM    2  C2  UNL     1      35.109  24.192  86.066  1.00  0.00     0.022 A 
HETATM    3  C3  UNL     1      33.790  24.331  86.474  1.00  0.00     0.110 A 
HETATM    4  N1  UNL     1      32.782  23.658  85.937  1.00  0.00    -0.282 N 
HETATM    5  C9  UNL     1      33.059  22.793  84.943  1.00  0.00     0.331 A 
HETATM    6  O4  UNL     1      32.151  22.120  84.388  1.00  0.00    -0.246 OA
HETATM    7  N2  UNL     1      34.325  22.604  84.492  1.00  0.00    -0.275 N 
ATOM      8  H2  UNL     1      34.504  21.941  83.738  1.00  0.00     0.173 HD
HETATM    9  C10 UNL     1      35.359  23.300  85.048  1.00  0.00     0.256 A 
HETATM   10  O5  UNL     1      36.533  23.094  84.597  1.00  0.00    -0.267 OA
ENDROOT
BRANCH   4  11
HETATM   11  C4  UNL     1      31.437  23.812  86.366  1.00  0.00     0.235 C 
HETATM   12  C5  UNL     1      31.090  23.069  87.624  1.00  0.00     0.088 C 
HETATM   13  C6  UNL     1      29.908  23.888  88.148  1.00  0.00     0.153 C 
HETATM   14  C7  UNL     1      29.797  24.961  87.116  1.00  0.00     0.176 C 
HETATM   15  O3  UNL     1      31.138  25.143  86.741  1.00  0.00    -0.356 OA
BRANCH  13  16
HETATM   16  O1  UNL     1      28.744  23.136  88.142  1.00  0.00    -0.393 OA
ATOM     17  H1  UNL     1      28.195  23.356  88.886  1.00  0.00     0.210 HD
ENDBRANCH  13  16
BRANCH  14  18
HETATM   18  C8  UNL     1      29.180  26.234  87.624  1.00  0.00     0.198 C 
BRANCH  18  19
HETATM   19  O2  UNL     1      28.411  25.896  88.752  1.00  0.00    -0.398 OA
ATOM     20  H2  UNL     1      28.672  26.483  89.452  1.00  0.00     0.209 HD
ENDBRANCH  18  19
ENDBRANCH  14  18
ENDBRANCH   4  11
TORSDOF 4
ENDMDL
