MODEL 5
REMARK VINA RESULT: -7.059445642      1.706      5.985
REMARK  4 active torsions:
REMARK  status: ('A' for Active; 'I' for Inactive)
REMARK    1  A    between atoms: N1_4  and  C4_5 
REMARK    2  A    between atoms: C6_7  and  O1_8 
REMARK    3  A    between atoms: C7_10  and  C8_11 
REMARK    4  A    between atoms: C8_11  and  O2_12 
ROOT
HETATM    1  C1  UNL     1      28.257  22.881  89.242  1.00  0.00     0.056 C 
HETATM    2  C2  UNL     1      29.311  23.674  88.557  1.00  0.00     0.022 A 
HETATM    3  C3  UNL     1      30.384  23.084  87.905  1.00  0.00     0.110 A 
HETATM    4  N1  UNL     1      31.335  23.773  87.288  1.00  0.00    -0.282 N 
HETATM    5  C9  UNL     1      31.249  25.117  87.300  1.00  0.00     0.331 A 
HETATM    6  O4  UNL     1      32.117  25.833  86.734  1.00  0.00    -0.246 OA
HETATM    7  N2  UNL     1      30.228  25.763  87.918  1.00  0.00    -0.275 N 
ATOM      8  H2  UNL     1      30.191  26.782  87.910  1.00  0.00     0.173 HD
HETATM    9  C10 UNL     1      29.252  25.050  88.551  1.00  0.00     0.256 A 
HETATM   10  O5  UNL     1      28.311  25.693  89.120  1.00  0.00    -0.267 OA
ENDROOT
BRANCH   4  11
HETATM   11  C4  UNL     1      32.427  23.154  86.625  1.00  0.00     0.235 C 
HETATM   12  C5  UNL     1      32.143  22.721  85.216  1.00  0.00     0.088 C 
HETATM   13  C6  UNL     1      33.547  22.716  84.606  1.00  0.00     0.153 C 
HETATM   14  C7  UNL     1      34.383  23.163  85.760  1.00  0.00     0.176 C 
HETATM   15  O3  UNL     1      33.513  24.040  86.427  1.00  0.00    -0.356 OA
BRANCH  13  16
HETATM   16  O1  UNL     1      33.926  21.433  84.247  1.00  0.00    -0.393 OA
ATOM     17  H1  UNL     1      34.821  21.420  83.928  1.00  0.00     0.210 HD
ENDBRANCH  13  16
BRANCH  14  18
HETATM   18  C8  UNL     1      35.663  23.841  85.358  1.00  0.00     0.198 C 
BRANCH  18  19
HETATM   19  O2  UNL     1      36.302  22.996  84.434  1.00  0.00    -0.398 OA
ATOM     20  H2  UNL     1      36.174  23.379  83.574  1.00  0.00     0.209 HD
ENDBRANCH  18  19
ENDBRANCH  14  18
ENDBRANCH   4  11
TORSDOF 4
ENDMDL
