MODEL 10
REMARK VINA RESULT: -6.491012072      1.898      6.095
REMARK  4 active torsions:
REMARK  status: ('A' for Active; 'I' for Inactive)
REMARK    1  A    between atoms: N1_4  and  C4_5 
REMARK    2  A    between atoms: C6_7  and  O1_8 
REMARK    3  A    between atoms: C7_10  and  C8_11 
REMARK    4  A    between atoms: C8_11  and  O2_12 
ROOT
HETATM    1  C1  UNL     1      29.155  22.779  89.887  1.00  0.00     0.056 C 
HETATM    2  C2  UNL     1      29.522  23.827  88.898  1.00  0.00     0.022 A 
HETATM    3  C3  UNL     1      30.709  23.792  88.180  1.00  0.00     0.110 A 
HETATM    4  N1  UNL     1      31.056  24.716  87.294  1.00  0.00    -0.282 N 
HETATM    5  C9  UNL     1      30.207  25.740  87.085  1.00  0.00     0.331 A 
HETATM    6  O4  UNL     1      30.472  26.652  86.258  1.00  0.00    -0.246 OA
HETATM    7  N2  UNL     1      29.029  25.840  87.751  1.00  0.00    -0.275 N 
ATOM      8  H2  UNL     1      28.407  26.628  87.571  1.00  0.00     0.173 HD
HETATM    9  C10 UNL     1      28.676  24.886  88.661  1.00  0.00     0.256 A 
HETATM   10  O5  UNL     1      27.562  25.016  89.266  1.00  0.00    -0.267 OA
ENDROOT
BRANCH   4  11
HETATM   11  C4  UNL     1      32.274  24.667  86.567  1.00  0.00     0.235 C 
HETATM   12  C5  UNL     1      33.511  24.846  87.400  1.00  0.00     0.088 C 
HETATM   13  C6  UNL     1      34.563  24.138  86.542  1.00  0.00     0.153 C 
HETATM   14  C7  UNL     1      33.747  23.664  85.385  1.00  0.00     0.176 C 
HETATM   15  O3  UNL     1      32.510  23.395  85.992  1.00  0.00    -0.356 OA
BRANCH  13  16
HETATM   16  O1  UNL     1      35.514  25.036  86.085  1.00  0.00    -0.393 OA
ATOM     17  H1  UNL     1      35.692  24.900  85.162  1.00  0.00     0.210 HD
ENDBRANCH  13  16
BRANCH  14  18
HETATM   18  C8  UNL     1      34.310  22.451  84.699  1.00  0.00     0.198 C 
BRANCH  18  19
HETATM   19  O2  UNL     1      35.642  22.751  84.361  1.00  0.00    -0.398 OA
ATOM     20  H2  UNL     1      35.748  22.542  83.440  1.00  0.00     0.209 HD
ENDBRANCH  18  19
ENDBRANCH  14  18
ENDBRANCH   4  11
TORSDOF 4
ENDMDL
