MODEL 4
REMARK VINA RESULT: -7.067251017      1.231      1.390
REMARK  4 active torsions:
REMARK  status: ('A' for Active; 'I' for Inactive)
REMARK    1  A    between atoms: N1_4  and  C4_5 
REMARK    2  A    between atoms: C6_7  and  O1_8 
REMARK    3  A    between atoms: C7_10  and  C8_11 
REMARK    4  A    between atoms: C8_11  and  O2_12 
ROOT
HETATM    1  C1  UNL     1      36.539  25.356  86.395  1.00  0.00     0.056 C 
HETATM    2  C2  UNL     1      35.309  24.549  86.173  1.00  0.00     0.022 A 
HETATM    3  C3  UNL     1      34.170  24.695  86.951  1.00  0.00     0.110 A 
HETATM    4  N1  UNL     1      33.063  23.985  86.769  1.00  0.00    -0.282 N 
HETATM    5  C9  UNL     1      33.052  23.076  85.776  1.00  0.00     0.331 A 
HETATM    6  O4  UNL     1      32.036  22.369  85.547  1.00  0.00    -0.246 OA
HETATM    7  N2  UNL     1      34.130  22.879  84.975  1.00  0.00    -0.275 N 
ATOM      8  H2  UNL     1      34.091  22.183  84.231  1.00  0.00     0.173 HD
HETATM    9  C10 UNL     1      35.266  23.612  85.165  1.00  0.00     0.256 A 
HETATM   10  O5  UNL     1      36.256  23.396  84.393  1.00  0.00    -0.267 OA
ENDROOT
BRANCH   4  11
HETATM   11  C4  UNL     1      31.905  24.147  87.574  1.00  0.00     0.235 C 
HETATM   12  C5  UNL     1      31.940  25.332  88.495  1.00  0.00     0.088 C 
HETATM   13  C6  UNL     1      30.448  25.602  88.705  1.00  0.00     0.153 C 
HETATM   14  C7  UNL     1      29.823  24.542  87.858  1.00  0.00     0.176 C 
HETATM   15  O3  UNL     1      30.748  24.426  86.808  1.00  0.00    -0.356 OA
BRANCH  13  16
HETATM   16  O1  UNL     1      30.088  25.391  90.026  1.00  0.00    -0.393 OA
ATOM     17  H1  UNL     1      30.834  25.509  90.603  1.00  0.00     0.210 HD
ENDBRANCH  13  16
BRANCH  14  18
HETATM   18  C8  UNL     1      28.449  24.893  87.358  1.00  0.00     0.198 C 
BRANCH  18  19
HETATM   19  O2  UNL     1      27.580  24.823  88.460  1.00  0.00    -0.398 OA
ATOM     20  H2  UNL     1      27.918  25.420  89.118  1.00  0.00     0.209 HD
ENDBRANCH  18  19
ENDBRANCH  14  18
ENDBRANCH   4  11
TORSDOF 4
ENDMDL
