MODEL 8
REMARK VINA RESULT: -6.649012030      2.042      6.040
REMARK  4 active torsions:
REMARK  status: ('A' for Active; 'I' for Inactive)
REMARK    1  A    between atoms: N1_4  and  C4_5 
REMARK    2  A    between atoms: C6_7  and  O1_8 
REMARK    3  A    between atoms: C7_10  and  C8_11 
REMARK    4  A    between atoms: C8_11  and  O2_12 
ROOT
HETATM    1  C1  UNL     1      28.378  22.717  89.349  1.00  0.00     0.056 C 
HETATM    2  C2  UNL     1      29.224  23.729  88.661  1.00  0.00     0.022 A 
HETATM    3  C3  UNL     1      30.225  23.382  87.766  1.00  0.00     0.110 A 
HETATM    4  N1  UNL     1      30.990  24.268  87.143  1.00  0.00    -0.282 N 
HETATM    5  C9  UNL     1      30.779  25.573  87.397  1.00  0.00     0.331 A 
HETATM    6  O4  UNL     1      31.468  26.468  86.841  1.00  0.00    -0.246 OA
HETATM    7  N2  UNL     1      29.818  25.987  88.261  1.00  0.00    -0.275 N 
ATOM      8  H2  UNL     1      29.682  26.983  88.434  1.00  0.00     0.173 HD
HETATM    9  C10 UNL     1      29.033  25.071  88.900  1.00  0.00     0.256 A 
HETATM   10  O5  UNL     1      28.142  25.500  89.704  1.00  0.00    -0.267 OA
ENDROOT
BRANCH   4  11
HETATM   11  C4  UNL     1      32.011  23.897  86.229  1.00  0.00     0.235 C 
HETATM   12  C5  UNL     1      33.207  23.240  86.855  1.00  0.00     0.088 C 
HETATM   13  C6  UNL     1      33.762  22.429  85.682  1.00  0.00     0.153 C 
HETATM   14  C7  UNL     1      32.783  22.746  84.600  1.00  0.00     0.176 C 
HETATM   15  O3  UNL     1      31.588  22.895  85.323  1.00  0.00    -0.356 OA
BRANCH  13  16
HETATM   16  O1  UNL     1      35.012  22.893  85.307  1.00  0.00    -0.393 OA
ATOM     17  H1  UNL     1      35.150  22.781  84.374  1.00  0.00     0.210 HD
ENDBRANCH  13  16
BRANCH  14  18
HETATM   18  C8  UNL     1      32.671  21.678  83.547  1.00  0.00     0.198 C 
BRANCH  18  19
HETATM   19  O2  UNL     1      33.869  20.943  83.580  1.00  0.00    -0.398 OA
ATOM     20  H2  UNL     1      34.581  21.569  83.520  1.00  0.00     0.209 HD
ENDBRANCH  18  19
ENDBRANCH  14  18
ENDBRANCH   4  11
TORSDOF 4
ENDMDL
