MODEL 7
REMARK VINA RESULT: -5.305002848      8.484      9.277
REMARK  4 active torsions:
REMARK  status: ('A' for Active; 'I' for Inactive)
REMARK    1  A    between atoms: O1_1  and  C1_3 
REMARK    2  A    between atoms: C1_3  and  C2_4 
REMARK    3  A    between atoms: C4_8  and  O3_9 
REMARK    4  A    between atoms: C5_11  and  O4_12 
ROOT
HETATM    1  C2  UNL     1      -3.041   5.872  16.947  1.00  0.00     0.202 C 
HETATM    2  O2  UNL     1      -3.004   4.504  16.625  1.00  0.00    -0.276 OA
HETATM    3  N1  UNL     1      -2.096   3.953  17.487  1.00  0.00    -0.098 NA
HETATM    4  C3  UNL     1      -0.788   4.227  16.961  1.00  0.00     0.177 C 
HETATM    5  C4  UNL     1      -0.700   5.486  16.161  1.00  0.00     0.166 C 
HETATM    6  C5  UNL     1      -1.744   6.509  16.526  1.00  0.00     0.181 C 
ENDROOT
BRANCH   1   7
HETATM    7  C1  UNL     1      -4.234   6.479  16.252  1.00  0.00     0.200 C 
BRANCH   7   8
HETATM    8  O1  UNL     1      -5.190   6.906  17.164  1.00  0.00    -0.398 OA
ATOM      9  H1  UNL     1      -5.998   7.154  16.730  1.00  0.00     0.209 HD
ENDBRANCH   7   8
ENDBRANCH   1   7
BRANCH   6  10
HETATM   10  O4  UNL     1      -1.308   7.373  17.509  1.00  0.00    -0.390 OA
ATOM     11  H4  UNL     1      -0.393   7.206  17.700  1.00  0.00     0.210 HD
ENDBRANCH   6  10
BRANCH   5  12
HETATM   12  O3  UNL     1      -0.814   5.209  14.799  1.00  0.00    -0.392 OA
ATOM     13  H3  UNL     1      -0.138   5.663  14.309  1.00  0.00     0.210 HD
ENDBRANCH   5  12
TORSDOF 4
ENDMDL
