MODEL 13
REMARK VINA RESULT: -4.953020496      7.704      8.924
REMARK  4 active torsions:
REMARK  status: ('A' for Active; 'I' for Inactive)
REMARK    1  A    between atoms: O1_1  and  C1_3 
REMARK    2  A    between atoms: C1_3  and  C2_4 
REMARK    3  A    between atoms: C4_8  and  O3_9 
REMARK    4  A    between atoms: C5_11  and  O4_12 
ROOT
HETATM    1  C2  UNL     1      -2.358   4.926  16.386  1.00  0.00     0.202 C 
HETATM    2  O2  UNL     1      -3.101   5.392  17.484  1.00  0.00    -0.276 OA
HETATM    3  N1  UNL     1      -4.377   5.554  17.017  1.00  0.00    -0.098 NA
HETATM    4  C3  UNL     1      -4.418   6.807  16.315  1.00  0.00     0.177 C 
HETATM    5  C4  UNL     1      -3.118   7.205  15.694  1.00  0.00     0.166 C 
HETATM    6  C5  UNL     1      -2.214   6.039  15.384  1.00  0.00     0.181 C 
ENDROOT
BRANCH   1   7
HETATM    7  C1  UNL     1      -1.028   4.436  16.900  1.00  0.00     0.200 C 
BRANCH   7   8
HETATM    8  O1  UNL     1      -0.164   5.490  17.159  1.00  0.00    -0.398 OA
ATOM      9  H1  UNL     1       0.534   5.535  16.515  1.00  0.00     0.209 HD
ENDBRANCH   7   8
ENDBRANCH   1   7
BRANCH   6  10
HETATM   10  O4  UNL     1      -2.411   5.550  14.110  1.00  0.00    -0.390 OA
ATOM     11  H4  UNL     1      -2.131   6.196  13.471  1.00  0.00     0.210 HD
ENDBRANCH   6  10
BRANCH   5  12
HETATM   12  O3  UNL     1      -2.428   8.086  16.526  1.00  0.00    -0.392 OA
ATOM     13  H3  UNL     1      -2.271   7.689  17.375  1.00  0.00     0.210 HD
ENDBRANCH   5  12
TORSDOF 4
ENDMDL
