MODEL 9
REMARK VINA RESULT: -5.134176757      6.672      8.054
REMARK  4 active torsions:
REMARK  status: ('A' for Active; 'I' for Inactive)
REMARK    1  A    between atoms: O1_1  and  C1_3 
REMARK    2  A    between atoms: C1_3  and  C2_4 
REMARK    3  A    between atoms: C4_8  and  O3_9 
REMARK    4  A    between atoms: C5_11  and  O4_12 
ROOT
HETATM    1  C2  UNL     1      -2.911   6.655  16.500  1.00  0.00     0.202 C 
HETATM    2  O2  UNL     1      -2.190   5.628  15.867  1.00  0.00    -0.276 OA
HETATM    3  N1  UNL     1      -0.887   6.043  15.870  1.00  0.00    -0.098 NA
HETATM    4  C3  UNL     1      -0.733   6.971  14.785  1.00  0.00     0.177 C 
HETATM    5  C4  UNL     1      -1.975   7.731  14.447  1.00  0.00     0.166 C 
HETATM    6  C5  UNL     1      -2.937   7.861  15.599  1.00  0.00     0.181 C 
ENDROOT
BRANCH   1   7
HETATM    7  C1  UNL     1      -4.292   6.133  16.805  1.00  0.00     0.200 C 
BRANCH   7   8
HETATM    8  O1  UNL     1      -5.166   7.162  17.123  1.00  0.00    -0.398 OA
ATOM      9  H1  UNL     1      -5.359   7.702  16.365  1.00  0.00     0.209 HD
ENDBRANCH   7   8
ENDBRANCH   1   7
BRANCH   6  10
HETATM   10  O4  UNL     1      -2.714   9.002  16.339  1.00  0.00    -0.390 OA
ATOM     11  H4  UNL     1      -3.071   9.756  15.884  1.00  0.00     0.210 HD
ENDBRANCH   6  10
BRANCH   5  12
HETATM   12  O3  UNL     1      -2.643   7.127  13.382  1.00  0.00    -0.392 OA
ATOM     13  H3  UNL     1      -3.421   7.623  13.152  1.00  0.00     0.210 HD
ENDBRANCH   5  12
TORSDOF 4
ENDMDL
