MODEL 7
REMARK VINA RESULT: -6.588033214      2.228      5.618
REMARK  10 active torsions:
REMARK  status: ('A' for Active; 'I' for Inactive)
REMARK    1  A    between atoms: O1_1  and  C1_3 
REMARK    2  A    between atoms: C1_3  and  C2_4 
REMARK    3  A    between atoms: C3_6  and  O3_7 
REMARK    4  A    between atoms: O3_7  and  C4_8 
REMARK    5  A    between atoms: C5_9  and  O4_10 
REMARK    6  A    between atoms: C7_16  and  C8_17 
REMARK    7  A    between atoms: C8_17  and  O6_18 
REMARK    8  A    between atoms: C9_20  and  O7_21 
REMARK    9  A    between atoms: C10_23  and  O8_24 
REMARK   10  A    between atoms: C11_26  and  O9_27 
ROOT
HETATM    1  C2  UNL     1      58.374  47.511  37.497  1.00  0.00     0.179 C 
HETATM    2  O2  UNL     1      59.005  46.691  36.590  1.00  0.00    -0.348 OA
HETATM    3  C3  UNL     1      60.136  46.134  37.240  1.00  0.00     0.292 C 
HETATM    4  C9  UNL     1      60.824  47.119  38.106  1.00  0.00     0.204 C 
HETATM    5  C10 UNL     1      60.576  48.556  37.686  1.00  0.00     0.183 C 
HETATM    6  C11 UNL     1      59.104  48.839  37.521  1.00  0.00     0.180 C 
ENDROOT
BRANCH   3   7
HETATM    7  O3  UNL     1      60.909  45.634  36.180  1.00  0.00    -0.348 OA
BRANCH   7   8
HETATM    8  C4  UNL     1      60.855  44.276  36.086  1.00  0.00     0.188 C 
HETATM    9  C5  UNL     1      60.331  43.799  34.706  1.00  0.00     0.169 C 
HETATM   10  C6  UNL     1      60.859  42.396  34.452  1.00  0.00     0.180 C 
HETATM   11  N1  UNL     1      61.091  41.671  35.657  1.00  0.00    -0.299 N 
HETATM   12  O5  UNL     1      61.853  42.250  36.577  1.00  0.00    -0.275 OA
ATOM     13  H1  UNL     1      60.689  40.745  35.807  1.00  0.00     0.187 HD
HETATM   14  C7  UNL     1      62.174  43.565  36.235  1.00  0.00     0.206 C 
BRANCH   9  15
HETATM   15  O4  UNL     1      58.963  43.778  34.653  1.00  0.00    -0.391 OA
ATOM     16  H4  UNL     1      58.641  43.698  33.763  1.00  0.00     0.210 HD
ENDBRANCH   9  15
BRANCH  14  17
HETATM   17  C8  UNL     1      63.143  44.211  37.161  1.00  0.00     0.201 C 
BRANCH  17  18
HETATM   18  O6  UNL     1      63.859  45.167  36.460  1.00  0.00    -0.398 OA
ATOM     19  H6  UNL     1      63.421  46.006  36.552  1.00  0.00     0.209 HD
ENDBRANCH  17  18
ENDBRANCH  14  17
ENDBRANCH   7   8
ENDBRANCH   3   7
BRANCH   4  20
HETATM   20  O7  UNL     1      60.504  46.955  39.472  1.00  0.00    -0.388 OA
ATOM     21  H7  UNL     1      59.945  47.650  39.800  1.00  0.00     0.210 HD
ENDBRANCH   4  20
BRANCH   1  22
HETATM   22  C1  UNL     1      56.901  47.703  37.170  1.00  0.00     0.198 C 
BRANCH  22  23
HETATM   23  O1  UNL     1      56.372  46.452  36.912  1.00  0.00    -0.398 OA
ATOM     24  H1  UNL     1      57.089  45.830  36.950  1.00  0.00     0.209 HD
ENDBRANCH  22  23
ENDBRANCH   1  22
BRANCH   5  25
HETATM   25  O8  UNL     1      61.301  48.785  36.528  1.00  0.00    -0.390 OA
ATOM     26  H8  UNL     1      61.572  49.696  36.534  1.00  0.00     0.210 HD
ENDBRANCH   5  25
BRANCH   6  27
HETATM   27  O9  UNL     1      58.610  49.653  38.529  1.00  0.00    -0.390 OA
ATOM     28  H9  UNL     1      58.933  50.542  38.433  1.00  0.00     0.210 HD
ENDBRANCH   6  27
TORSDOF 10
ENDMDL
