MODEL 1
REMARK VINA RESULT: -7.117769051      0.000      0.000
REMARK  10 active torsions:
REMARK  status: ('A' for Active; 'I' for Inactive)
REMARK    1  A    between atoms: O1_1  and  C1_3 
REMARK    2  A    between atoms: C1_3  and  C2_4 
REMARK    3  A    between atoms: C3_6  and  O3_7 
REMARK    4  A    between atoms: O3_7  and  C4_8 
REMARK    5  A    between atoms: C5_9  and  O4_10 
REMARK    6  A    between atoms: C7_16  and  C8_17 
REMARK    7  A    between atoms: C8_17  and  O6_18 
REMARK    8  A    between atoms: C9_20  and  O7_21 
REMARK    9  A    between atoms: C10_23  and  O8_24 
REMARK   10  A    between atoms: C11_26  and  O9_27 
ROOT
HETATM    1  C2  UNL     1      60.816  42.994  35.619  1.00  0.00     0.179 C 
HETATM    2  O2  UNL     1      60.106  43.923  36.344  1.00  0.00    -0.348 OA
HETATM    3  C3  UNL     1      60.984  45.002  36.622  1.00  0.00     0.292 C 
HETATM    4  C9  UNL     1      62.351  44.538  36.955  1.00  0.00     0.204 C 
HETATM    5  C10 UNL     1      62.384  43.119  37.491  1.00  0.00     0.183 C 
HETATM    6  C11 UNL     1      61.640  42.167  36.587  1.00  0.00     0.180 C 
ENDROOT
BRANCH   3   7
HETATM    7  O3  UNL     1      60.328  45.701  37.648  1.00  0.00    -0.348 OA
BRANCH   7   8
HETATM    8  C4  UNL     1      59.634  46.779  37.186  1.00  0.00     0.188 C 
HETATM    9  C5  UNL     1      58.198  46.851  37.770  1.00  0.00     0.169 C 
HETATM   10  C6  UNL     1      57.737  48.300  37.728  1.00  0.00     0.180 C 
HETATM   11  N1  UNL     1      58.349  49.040  36.675  1.00  0.00    -0.299 N 
HETATM   12  O5  UNL     1      59.674  49.015  36.605  1.00  0.00    -0.275 OA
ATOM     13  H1  UNL     1      57.791  49.566  36.002  1.00  0.00     0.187 HD
HETATM   14  C7  UNL     1      60.227  48.122  37.523  1.00  0.00     0.206 C 
BRANCH   9  15
HETATM   15  O4  UNL     1      57.315  46.080  37.063  1.00  0.00    -0.391 OA
ATOM     16  H4  UNL     1      56.547  45.857  37.575  1.00  0.00     0.210 HD
ENDBRANCH   9  15
BRANCH  14  17
HETATM   17  C8  UNL     1      61.713  48.162  37.587  1.00  0.00     0.201 C 
BRANCH  17  18
HETATM   18  O6  UNL     1      62.215  48.133  36.297  1.00  0.00    -0.398 OA
ATOM     19  H6  UNL     1      62.563  47.266  36.123  1.00  0.00     0.209 HD
ENDBRANCH  17  18
ENDBRANCH  14  17
ENDBRANCH   7   8
ENDBRANCH   3   7
BRANCH   4  20
HETATM   20  O7  UNL     1      63.244  44.663  35.867  1.00  0.00    -0.388 OA
ATOM     21  H7  UNL     1      62.882  44.319  35.059  1.00  0.00     0.210 HD
ENDBRANCH   4  20
BRANCH   1  22
HETATM   22  C1  UNL     1      59.910  42.106  34.779  1.00  0.00     0.198 C 
BRANCH  22  23
HETATM   23  O1  UNL     1      60.715  41.442  33.872  1.00  0.00    -0.398 OA
ATOM     24  H1  UNL     1      61.287  42.090  33.476  1.00  0.00     0.209 HD
ENDBRANCH  22  23
ENDBRANCH   1  22
BRANCH   5  25
HETATM   25  O8  UNL     1      61.876  43.146  38.779  1.00  0.00    -0.390 OA
ATOM     26  H8  UNL     1      62.256  43.896  39.222  1.00  0.00     0.210 HD
ENDBRANCH   5  25
BRANCH   6  27
HETATM   27  O9  UNL     1      62.496  41.317  35.904  1.00  0.00    -0.390 OA
ATOM     28  H9  UNL     1      62.881  40.680  36.494  1.00  0.00     0.210 HD
ENDBRANCH   6  27
TORSDOF 10
ENDMDL
