MODEL 2
REMARK VINA RESULT: -6.894985451      1.201      2.122
REMARK  10 active torsions:
REMARK  status: ('A' for Active; 'I' for Inactive)
REMARK    1  A    between atoms: O1_1  and  C1_3 
REMARK    2  A    between atoms: C1_3  and  C2_4 
REMARK    3  A    between atoms: C3_6  and  O3_7 
REMARK    4  A    between atoms: O3_7  and  C4_8 
REMARK    5  A    between atoms: C5_9  and  O4_10 
REMARK    6  A    between atoms: C7_16  and  C8_17 
REMARK    7  A    between atoms: C8_17  and  O6_18 
REMARK    8  A    between atoms: C9_20  and  O7_21 
REMARK    9  A    between atoms: C10_23  and  O8_24 
REMARK   10  A    between atoms: C11_26  and  O9_27 
ROOT
HETATM    1  C2  UNL     1      61.347  42.150  37.549  1.00  0.00     0.179 C 
HETATM    2  O2  UNL     1      61.132  43.349  38.188  1.00  0.00    -0.348 OA
HETATM    3  C3  UNL     1      60.417  44.183  37.291  1.00  0.00     0.292 C 
HETATM    4  C9  UNL     1      60.896  44.045  35.896  1.00  0.00     0.204 C 
HETATM    5  C10 UNL     1      62.329  43.554  35.806  1.00  0.00     0.183 C 
HETATM    6  C11 UNL     1      62.543  42.310  36.630  1.00  0.00     0.180 C 
ENDROOT
BRANCH   3   7
HETATM    7  O3  UNL     1      60.566  45.465  37.846  1.00  0.00    -0.348 OA
BRANCH   7   8
HETATM    8  C4  UNL     1      59.659  46.356  37.357  1.00  0.00     0.188 C 
HETATM    9  C5  UNL     1      58.557  46.705  38.392  1.00  0.00     0.169 C 
HETATM   10  C6  UNL     1      57.993  48.074  38.047  1.00  0.00     0.180 C 
HETATM   11  N1  UNL     1      58.089  48.373  36.656  1.00  0.00    -0.299 N 
HETATM   12  O5  UNL     1      59.283  48.251  36.090  1.00  0.00    -0.275 OA
ATOM     13  H1  UNL     1      57.273  48.667  36.119  1.00  0.00     0.187 HD
HETATM   14  C7  UNL     1      60.220  47.697  36.963  1.00  0.00     0.206 C 
BRANCH   9  15
HETATM   15  O4  UNL     1      57.539  45.789  38.388  1.00  0.00    -0.391 OA
ATOM     16  H4  UNL     1      57.372  45.438  39.255  1.00  0.00     0.210 HD
ENDBRANCH   9  15
BRANCH  14  17
HETATM   17  C8  UNL     1      61.607  47.673  36.426  1.00  0.00     0.201 C 
BRANCH  17  18
HETATM   18  O6  UNL     1      62.490  47.926  37.462  1.00  0.00    -0.398 OA
ATOM     19  H6  UNL     1      63.185  48.490  37.141  1.00  0.00     0.209 HD
ENDBRANCH  17  18
ENDBRANCH  14  17
ENDBRANCH   7   8
ENDBRANCH   3   7
BRANCH   4  20
HETATM   20  O7  UNL     1      60.055  43.222  35.115  1.00  0.00    -0.388 OA
ATOM     21  H7  UNL     1      59.797  43.636  34.299  1.00  0.00     0.210 HD
ENDBRANCH   4  20
BRANCH   1  22
HETATM   22  C1  UNL     1      61.562  41.006  38.529  1.00  0.00     0.198 C 
BRANCH  22  23
HETATM   23  O1  UNL     1      62.907  40.688  38.499  1.00  0.00    -0.398 OA
ATOM     24  H1  UNL     1      63.192  40.585  39.399  1.00  0.00     0.209 HD
ENDBRANCH  22  23
ENDBRANCH   1  22
BRANCH   5  25
HETATM   25  O8  UNL     1      63.154  44.600  36.185  1.00  0.00    -0.390 OA
ATOM     26  H8  UNL     1      63.689  44.296  36.910  1.00  0.00     0.210 HD
ENDBRANCH   5  25
BRANCH   6  27
HETATM   27  O9  UNL     1      62.713  41.182  35.843  1.00  0.00    -0.390 OA
ATOM     28  H9  UNL     1      63.323  40.576  36.249  1.00  0.00     0.210 HD
ENDBRANCH   6  27
TORSDOF 10
ENDMDL
