MODEL 1
REMARK VINA RESULT: -6.666111305      0.000      0.000
REMARK  16 active torsions:
REMARK  status: ('A' for Active; 'I' for Inactive)
REMARK    1  A    between atoms: O1_1  and  C1_3 
REMARK    2  A    between atoms: C1_3  and  C2_4 
REMARK    3  A    between atoms: C3_6  and  O3_7 
REMARK    4  A    between atoms: O3_7  and  C4_8 
REMARK    5  A    between atoms: C5_9  and  C6_10 
REMARK    6  A    between atoms: C6_10  and  O4_11 
REMARK    7  A    between atoms: C7_14  and  O6_15 
REMARK    8  A    between atoms: O6_15  and  C8_16 
REMARK    9  A    between atoms: C9_17  and  O7_18 
REMARK   10  A    between atoms: C11_23  and  C12_24 
REMARK   11  A    between atoms: C12_24  and  O9_25 
REMARK   12  A    between atoms: C13_27  and  O10_28 
REMARK   13  A    between atoms: C14_30  and  O11_31 
REMARK   14  A    between atoms: C15_33  and  O12_34 
REMARK   15  A    between atoms: C16_36  and  O13_37 
REMARK   16  A    between atoms: C17_39  and  O14_40 
ROOT
HETATM    1  C4  UNL     1      62.392  41.522  38.460  1.00  0.00     0.187 C 
HETATM    2  C5  UNL     1      60.913  41.624  38.291  1.00  0.00     0.180 C 
HETATM    3  O5  UNL     1      60.644  42.991  38.033  1.00  0.00    -0.348 OA
HETATM    4  C7  UNL     1      60.832  43.142  36.648  1.00  0.00     0.292 C 
HETATM    5  C13 UNL     1      62.192  42.645  36.224  1.00  0.00     0.204 C 
HETATM    6  C14 UNL     1      63.089  42.353  37.402  1.00  0.00     0.183 C 
ENDROOT
BRANCH   1   7
HETATM    7  O3  UNL     1      62.791  40.209  38.445  1.00  0.00    -0.348 OA
BRANCH   7   8
HETATM    8  C3  UNL     1      63.740  39.883  39.414  1.00  0.00     0.292 C 
HETATM    9  O2  UNL     1      64.929  39.716  38.787  1.00  0.00    -0.348 OA
HETATM   10  C2  UNL     1      65.325  38.513  38.379  1.00  0.00     0.179 C 
HETATM   11  C17 UNL     1      64.698  37.315  39.011  1.00  0.00     0.180 C 
HETATM   12  C16 UNL     1      64.259  37.649  40.411  1.00  0.00     0.183 C 
HETATM   13  C15 UNL     1      63.235  38.778  40.243  1.00  0.00     0.204 C 
BRANCH  10  14
HETATM   14  C1  UNL     1      65.128  38.396  36.880  1.00  0.00     0.198 C 
BRANCH  14  15
HETATM   15  O1  UNL     1      64.211  37.369  36.664  1.00  0.00    -0.398 OA
ATOM     16  H1  UNL     1      64.529  36.859  35.928  1.00  0.00     0.209 HD
ENDBRANCH  14  15
ENDBRANCH  10  14
BRANCH  11  17
HETATM   17  O14 UNL     1      65.615  36.263  39.085  1.00  0.00    -0.390 OA
ATOM     18  H14 UNL     1      65.350  35.549  38.518  1.00  0.00     0.210 HD
ENDBRANCH  11  17
BRANCH  12  19
HETATM   19  O13 UNL     1      63.705  36.577  41.069  1.00  0.00    -0.390 OA
ATOM     20  H13 UNL     1      64.379  36.017  41.434  1.00  0.00     0.210 HD
ENDBRANCH  12  19
BRANCH  13  21
HETATM   21  O12 UNL     1      62.927  39.187  41.540  1.00  0.00    -0.388 OA
ATOM     22  H12 UNL     1      62.189  38.711  41.902  1.00  0.00     0.210 HD
ENDBRANCH  13  21
ENDBRANCH   7   8
ENDBRANCH   1   7
BRANCH   2  23
HETATM   23  C6  UNL     1      60.113  41.242  39.501  1.00  0.00     0.198 C 
BRANCH  23  24
HETATM   24  O4  UNL     1      60.940  41.391  40.623  1.00  0.00    -0.398 OA
ATOM     25  H4  UNL     1      61.015  40.541  41.040  1.00  0.00     0.209 HD
ENDBRANCH  23  24
ENDBRANCH   2  23
BRANCH   6  26
HETATM   26  O11 UNL     1      63.579  43.547  37.887  1.00  0.00    -0.390 OA
ATOM     27  H11 UNL     1      64.041  43.453  38.711  1.00  0.00     0.210 HD
ENDBRANCH   6  26
BRANCH   5  28
HETATM   28  O10 UNL     1      62.116  41.511  35.418  1.00  0.00    -0.388 OA
ATOM     29  H10 UNL     1      62.853  41.440  34.822  1.00  0.00     0.210 HD
ENDBRANCH   5  28
BRANCH   4  30
HETATM   30  O6  UNL     1      60.594  44.450  36.247  1.00  0.00    -0.348 OA
BRANCH  30  31
HETATM   31  C8  UNL     1      60.434  45.328  37.302  1.00  0.00     0.187 C 
HETATM   32  C9  UNL     1      61.539  46.379  37.331  1.00  0.00     0.166 C 
HETATM   33  C10 UNL     1      61.474  47.137  36.023  1.00  0.00     0.177 C 
HETATM   34  N1  UNL     1      60.116  47.582  35.796  1.00  0.00    -0.098 NA
HETATM   35  O8  UNL     1      59.321  47.416  36.873  1.00  0.00    -0.276 OA
HETATM   36  C11 UNL     1      59.127  46.097  37.211  1.00  0.00     0.202 C 
BRANCH  32  37
HETATM   37  O7  UNL     1      61.230  47.229  38.400  1.00  0.00    -0.392 OA
ATOM     38  H7  UNL     1      60.937  46.663  39.105  1.00  0.00     0.210 HD
ENDBRANCH  32  37
BRANCH  36  39
HETATM   39  C12 UNL     1      58.477  46.058  38.580  1.00  0.00     0.200 C 
BRANCH  39  40
HETATM   40  O9  UNL     1      59.092  45.134  39.415  1.00  0.00    -0.398 OA
ATOM     41  H9  UNL     1      58.458  44.587  39.864  1.00  0.00     0.209 HD
ENDBRANCH  39  40
ENDBRANCH  36  39
ENDBRANCH  30  31
ENDBRANCH   4  30
TORSDOF 16
ENDMDL
