MODEL 2
REMARK VINA RESULT: -6.643966542      2.487      8.350
REMARK  16 active torsions:
REMARK  status: ('A' for Active; 'I' for Inactive)
REMARK    1  A    between atoms: O1_1  and  C1_3 
REMARK    2  A    between atoms: C1_3  and  C2_4 
REMARK    3  A    between atoms: C3_6  and  O3_7 
REMARK    4  A    between atoms: O3_7  and  C4_8 
REMARK    5  A    between atoms: C5_9  and  C6_10 
REMARK    6  A    between atoms: C6_10  and  O4_11 
REMARK    7  A    between atoms: C7_14  and  O6_15 
REMARK    8  A    between atoms: O6_15  and  C8_16 
REMARK    9  A    between atoms: C9_17  and  O7_18 
REMARK   10  A    between atoms: C11_23  and  C12_24 
REMARK   11  A    between atoms: C12_24  and  O9_25 
REMARK   12  A    between atoms: C13_27  and  O10_28 
REMARK   13  A    between atoms: C14_30  and  O11_31 
REMARK   14  A    between atoms: C15_33  and  O12_34 
REMARK   15  A    between atoms: C16_36  and  O13_37 
REMARK   16  A    between atoms: C17_39  and  O14_40 
ROOT
HETATM    1  C4  UNL     1      62.202  44.056  36.391  1.00  0.00     0.187 C 
HETATM    2  C5  UNL     1      61.677  42.744  35.915  1.00  0.00     0.180 C 
HETATM    3  O5  UNL     1      62.778  41.853  35.938  1.00  0.00    -0.348 OA
HETATM    4  C7  UNL     1      62.830  41.375  37.259  1.00  0.00     0.292 C 
HETATM    5  C13 UNL     1      62.879  42.512  38.249  1.00  0.00     0.204 C 
HETATM    6  C14 UNL     1      63.113  43.845  37.582  1.00  0.00     0.183 C 
ENDROOT
BRANCH   1   7
HETATM    7  O3  UNL     1      61.168  44.918  36.664  1.00  0.00    -0.348 OA
BRANCH   7   8
HETATM    8  C3  UNL     1      61.456  45.872  37.641  1.00  0.00     0.292 C 
HETATM    9  O2  UNL     1      60.421  45.894  38.514  1.00  0.00    -0.348 OA
HETATM   10  C2  UNL     1      59.411  46.747  38.359  1.00  0.00     0.179 C 
HETATM   11  C17 UNL     1      59.641  47.962  37.523  1.00  0.00     0.180 C 
HETATM   12  C16 UNL     1      61.095  48.346  37.570  1.00  0.00     0.183 C 
HETATM   13  C15 UNL     1      61.840  47.136  36.994  1.00  0.00     0.204 C 
BRANCH  10  14
HETATM   14  C1  UNL     1      58.213  46.016  37.787  1.00  0.00     0.198 C 
BRANCH  14  15
HETATM   15  O1  UNL     1      57.669  46.830  36.795  1.00  0.00    -0.398 OA
ATOM     16  H1  UNL     1      58.032  46.543  35.965  1.00  0.00     0.209 HD
ENDBRANCH  14  15
ENDBRANCH  10  14
BRANCH  11  17
HETATM   17  O14 UNL     1      58.894  49.039  38.006  1.00  0.00    -0.390 OA
ATOM     18  H14 UNL     1      59.345  49.858  37.843  1.00  0.00     0.210 HD
ENDBRANCH  11  17
BRANCH  12  19
HETATM   19  O13 UNL     1      61.373  49.482  36.850  1.00  0.00    -0.390 OA
ATOM     20  H13 UNL     1      61.240  50.260  37.378  1.00  0.00     0.210 HD
ENDBRANCH  12  19
BRANCH  13  21
HETATM   21  O12 UNL     1      63.193  47.427  37.162  1.00  0.00    -0.388 OA
ATOM     22  H12 UNL     1      63.559  47.885  36.415  1.00  0.00     0.210 HD
ENDBRANCH  13  21
ENDBRANCH   7   8
ENDBRANCH   1   7
BRANCH   2  23
HETATM   23  C6  UNL     1      61.149  42.747  34.511  1.00  0.00     0.198 C 
BRANCH  23  24
HETATM   24  O4  UNL     1      61.242  41.438  34.018  1.00  0.00    -0.398 OA
ATOM     25  H4  UNL     1      61.654  41.482  33.163  1.00  0.00     0.209 HD
ENDBRANCH  23  24
ENDBRANCH   2  23
BRANCH   6  26
HETATM   26  O11 UNL     1      64.451  43.948  37.265  1.00  0.00    -0.390 OA
ATOM     27  H11 UNL     1      64.898  44.631  37.751  1.00  0.00     0.210 HD
ENDBRANCH   6  26
BRANCH   5  28
HETATM   28  O10 UNL     1      61.725  42.590  39.027  1.00  0.00    -0.388 OA
ATOM     29  H10 UNL     1      61.450  43.487  39.179  1.00  0.00     0.210 HD
ENDBRANCH   5  28
BRANCH   4  30
HETATM   30  O6  UNL     1      63.875  40.475  37.430  1.00  0.00    -0.348 OA
BRANCH  30  31
HETATM   31  C8  UNL     1      63.510  39.333  38.117  1.00  0.00     0.187 C 
HETATM   32  C9  UNL     1      64.163  38.089  37.522  1.00  0.00     0.166 C 
HETATM   33  C10 UNL     1      65.661  38.280  37.610  1.00  0.00     0.177 C 
HETATM   34  N1  UNL     1      66.016  38.657  38.962  1.00  0.00    -0.098 NA
HETATM   35  O8  UNL     1      64.992  38.527  39.830  1.00  0.00    -0.276 OA
HETATM   36  C11 UNL     1      63.944  39.380  39.572  1.00  0.00     0.202 C 
BRANCH  32  37
HETATM   37  O7  UNL     1      63.761  37.022  38.336  1.00  0.00    -0.392 OA
ATOM     38  H7  UNL     1      64.247  37.118  39.147  1.00  0.00     0.210 HD
ENDBRANCH  32  37
BRANCH  36  39
HETATM   39  C12 UNL     1      62.764  38.937  40.414  1.00  0.00     0.200 C 
BRANCH  39  40
HETATM   40  O9  UNL     1      61.663  39.763  40.233  1.00  0.00    -0.398 OA
ATOM     41  H9  UNL     1      61.154  39.510  39.472  1.00  0.00     0.209 HD
ENDBRANCH  39  40
ENDBRANCH  36  39
ENDBRANCH  30  31
ENDBRANCH   4  30
TORSDOF 16
ENDMDL
