MODEL 3
REMARK VINA RESULT: -6.401436346      2.386      8.132
REMARK  16 active torsions:
REMARK  status: ('A' for Active; 'I' for Inactive)
REMARK    1  A    between atoms: O1_1  and  C1_3 
REMARK    2  A    between atoms: C1_3  and  C2_4 
REMARK    3  A    between atoms: C3_6  and  O3_7 
REMARK    4  A    between atoms: O3_7  and  C4_8 
REMARK    5  A    between atoms: C5_9  and  C6_10 
REMARK    6  A    between atoms: C6_10  and  O4_11 
REMARK    7  A    between atoms: C7_14  and  O6_15 
REMARK    8  A    between atoms: O6_15  and  C8_16 
REMARK    9  A    between atoms: C9_17  and  O7_18 
REMARK   10  A    between atoms: C11_23  and  C12_24 
REMARK   11  A    between atoms: C12_24  and  O9_25 
REMARK   12  A    between atoms: C13_27  and  O10_28 
REMARK   13  A    between atoms: C14_30  and  O11_31 
REMARK   14  A    between atoms: C15_33  and  O12_34 
REMARK   15  A    between atoms: C16_36  and  O13_37 
REMARK   16  A    between atoms: C17_39  and  O14_40 
ROOT
HETATM    1  C4  UNL     1      61.196  43.351  37.329  1.00  0.00     0.187 C 
HETATM    2  C5  UNL     1      61.443  42.475  38.510  1.00  0.00     0.180 C 
HETATM    3  O5  UNL     1      61.780  41.202  37.988  1.00  0.00    -0.348 OA
HETATM    4  C7  UNL     1      63.160  41.271  37.726  1.00  0.00     0.292 C 
HETATM    5  C13 UNL     1      63.490  42.454  36.850  1.00  0.00     0.204 C 
HETATM    6  C14 UNL     1      62.257  43.106  36.276  1.00  0.00     0.183 C 
ENDROOT
BRANCH   1   7
HETATM    7  O3  UNL     1      61.127  44.668  37.710  1.00  0.00    -0.348 OA
BRANCH   7   8
HETATM    8  C3  UNL     1      60.174  45.419  37.021  1.00  0.00     0.292 C 
HETATM    9  O2  UNL     1      60.809  46.072  36.018  1.00  0.00    -0.348 OA
HETATM   10  C2  UNL     1      61.269  47.308  36.189  1.00  0.00     0.179 C 
HETATM   11  C17 UNL     1      60.689  48.128  37.294  1.00  0.00     0.180 C 
HETATM   12  C16 UNL     1      59.276  47.689  37.565  1.00  0.00     0.183 C 
HETATM   13  C15 UNL     1      59.393  46.217  37.979  1.00  0.00     0.204 C 
BRANCH  10  14
HETATM   14  C1  UNL     1      62.771  47.266  36.390  1.00  0.00     0.198 C 
BRANCH  14  15
HETATM   15  O1  UNL     1      63.057  48.023  37.525  1.00  0.00    -0.398 OA
ATOM     16  H1  UNL     1      62.387  48.694  37.591  1.00  0.00     0.209 HD
ENDBRANCH  14  15
ENDBRANCH  10  14
BRANCH  11  17
HETATM   17  O14 UNL     1      60.662  49.479  36.940  1.00  0.00    -0.390 OA
ATOM     18  H14 UNL     1      61.182  49.630  36.159  1.00  0.00     0.210 HD
ENDBRANCH  11  17
BRANCH  12  19
HETATM   19  O13 UNL     1      58.665  48.428  38.549  1.00  0.00    -0.390 OA
ATOM     20  H13 UNL     1      57.738  48.532  38.370  1.00  0.00     0.210 HD
ENDBRANCH  12  19
BRANCH  13  21
HETATM   21  O12 UNL     1      58.080  45.765  38.098  1.00  0.00    -0.388 OA
ATOM     22  H12 UNL     1      57.669  46.058  38.902  1.00  0.00     0.210 HD
ENDBRANCH  13  21
ENDBRANCH   7   8
ENDBRANCH   1   7
BRANCH   2  23
HETATM   23  C6  UNL     1      60.258  42.278  39.409  1.00  0.00     0.198 C 
BRANCH  23  24
HETATM   24  O4  UNL     1      60.056  40.898  39.549  1.00  0.00    -0.398 OA
ATOM     25  H4  UNL     1      60.489  40.624  40.348  1.00  0.00     0.209 HD
ENDBRANCH  23  24
ENDBRANCH   2  23
BRANCH   6  26
HETATM   26  O11 UNL     1      61.806  42.339  35.221  1.00  0.00    -0.390 OA
ATOM     27  H11 UNL     1      62.507  41.911  34.745  1.00  0.00     0.210 HD
ENDBRANCH   6  26
BRANCH   5  28
HETATM   28  O10 UNL     1      64.243  43.417  37.519  1.00  0.00    -0.388 OA
ATOM     29  H10 UNL     1      64.920  43.795  36.968  1.00  0.00     0.210 HD
ENDBRANCH   5  28
BRANCH   4  30
HETATM   30  O6  UNL     1      63.635  40.074  37.206  1.00  0.00    -0.348 OA
BRANCH  30  31
HETATM   31  C8  UNL     1      63.566  39.022  38.098  1.00  0.00     0.187 C 
HETATM   32  C9  UNL     1      64.181  37.752  37.517  1.00  0.00     0.166 C 
HETATM   33  C10 UNL     1      65.629  38.057  37.199  1.00  0.00     0.177 C 
HETATM   34  N1  UNL     1      66.258  38.650  38.359  1.00  0.00    -0.098 NA
HETATM   35  O8  UNL     1      65.493  38.577  39.468  1.00  0.00    -0.276 OA
HETATM   36  C11 UNL     1      64.331  39.309  39.379  1.00  0.00     0.202 C 
BRANCH  32  37
HETATM   37  O7  UNL     1      64.100  36.790  38.531  1.00  0.00    -0.392 OA
ATOM     38  H7  UNL     1      64.623  36.055  38.233  1.00  0.00     0.210 HD
ENDBRANCH  32  37
BRANCH  36  39
HETATM   39  C12 UNL     1      63.442  38.913  40.541  1.00  0.00     0.200 C 
BRANCH  39  40
HETATM   40  O9  UNL     1      62.149  39.396  40.387  1.00  0.00    -0.398 OA
ATOM     41  H9  UNL     1      61.675  39.405  41.210  1.00  0.00     0.209 HD
ENDBRANCH  39  40
ENDBRANCH  36  39
ENDBRANCH  30  31
ENDBRANCH   4  30
TORSDOF 16
ENDMDL
