MODEL 4
REMARK VINA RESULT: -6.215497454      3.085      6.244
REMARK  6 active torsions:
REMARK  status: ('A' for Active; 'I' for Inactive)
REMARK    1  A    between atoms: N1_5  and  C4_6 
REMARK    2  A    between atoms: C5_8  and  C6_9 
REMARK    3  A    between atoms: C6_9  and  O3_10 
REMARK    4  A    between atoms: C7_12  and  O4_13 
REMARK    5  A    between atoms: O4_13  and  P1_14 
REMARK    6  A    between atoms: C8_18  and  O8_19 
ROOT
HETATM    1  C4  UNL     1      37.397   0.610  13.493  1.00  0.00     0.264 C 
HETATM    2  O2  UNL     1      38.565  -0.048  13.772  1.00  0.00    -0.353 OA
HETATM    3  C5  UNL     1      38.315  -1.376  13.380  1.00  0.00     0.180 C 
HETATM    4  C7  UNL     1      37.786  -1.138  11.988  1.00  0.00     0.199 C 
HETATM    5  C8  UNL     1      36.772  -0.051  12.281  1.00  0.00     0.199 C 
ENDROOT
BRANCH   1   6
HETATM    6  N1  UNL     1      37.568   2.002  13.184  1.00  0.00    -0.280 N 
HETATM    7  C3  UNL     1      38.796   2.416  12.821  1.00  0.00     0.104 A 
HETATM    8  C2  UNL     1      39.081   3.724  12.502  1.00  0.00     0.092 A 
HETATM    9  C1  UNL     1      38.056   4.646  12.560  1.00  0.00     0.250 A 
HETATM   10  O1  UNL     1      38.328   5.836  12.267  1.00  0.00    -0.268 OA
HETATM   11  N2  UNL     1      36.835   4.230  12.921  1.00  0.00    -0.275 N 
HETATM   12  C9  UNL     1      36.593   2.923  13.231  1.00  0.00     0.331 A 
ATOM     13  H2  UNL     1      36.071   4.904  12.967  1.00  0.00     0.173 HD
HETATM   14  O9  UNL     1      35.440   2.556  13.568  1.00  0.00    -0.246 OA
ENDBRANCH   1   6
BRANCH   5  15
HETATM   15  O8  UNL     1      36.670   0.787  11.196  1.00  0.00    -0.388 OA
ATOM     16  H8  UNL     1      35.992   0.527  10.582  1.00  0.00     0.210 HD
ENDBRANCH   5  15
BRANCH   3  17
HETATM   17  C6  UNL     1      39.549  -2.223  13.440  1.00  0.00     0.198 C 
BRANCH  17  18
HETATM   18  O3  UNL     1      39.807  -2.706  12.137  1.00  0.00    -0.398 OA
ATOM     19  H3  UNL     1      40.649  -3.145  12.149  1.00  0.00     0.209 HD
ENDBRANCH  17  18
ENDBRANCH   3  17
BRANCH   4  20
HETATM   20  O4  UNL     1      37.252  -2.248  11.389  1.00  0.00    -0.272 OA
BRANCH  20  21
HETATM   21  P1  UNL     1      36.091  -3.028  12.013  1.00  0.00     0.422 P 
HETATM   22  O5  UNL     1      37.095  -4.341  12.163  1.00  0.00    -0.617 OA
HETATM   23  O6  UNL     1      34.925  -3.777  12.667  1.00  0.00    -0.617 OA
HETATM   24  O7  UNL     1      35.231  -2.874  10.612  1.00  0.00    -0.617 OA
ENDBRANCH  20  21
ENDBRANCH   4  20
TORSDOF 6
ENDMDL
