MODEL 3
REMARK VINA RESULT: -6.388567308      1.022      1.394
REMARK  6 active torsions:
REMARK  status: ('A' for Active; 'I' for Inactive)
REMARK    1  A    between atoms: N1_5  and  C4_6 
REMARK    2  A    between atoms: C5_8  and  C6_9 
REMARK    3  A    between atoms: C6_9  and  O3_10 
REMARK    4  A    between atoms: C7_12  and  O4_13 
REMARK    5  A    between atoms: O4_13  and  P1_14 
REMARK    6  A    between atoms: C8_18  and  O8_19 
ROOT
HETATM    1  C4  UNL     1      37.281  -1.516  11.524  1.00  0.00     0.264 C 
HETATM    2  O2  UNL     1      38.612  -1.435  11.839  1.00  0.00    -0.353 OA
HETATM    3  C5  UNL     1      38.788  -0.104  12.256  1.00  0.00     0.180 C 
HETATM    4  C7  UNL     1      37.670   0.000  13.263  1.00  0.00     0.199 C 
HETATM    5  C8  UNL     1      36.532  -0.572  12.442  1.00  0.00     0.199 C 
ENDROOT
BRANCH   1   6
HETATM    6  N1  UNL     1      36.716  -2.825  11.698  1.00  0.00    -0.280 N 
HETATM    7  C3  UNL     1      37.440  -3.733  12.378  1.00  0.00     0.104 A 
HETATM    8  C2  UNL     1      37.003  -5.018  12.608  1.00  0.00     0.092 A 
HETATM    9  C1  UNL     1      35.767  -5.383  12.115  1.00  0.00     0.250 A 
HETATM   10  O1  UNL     1      35.379  -6.557  12.330  1.00  0.00    -0.268 OA
HETATM   11  N2  UNL     1      35.050  -4.476  11.438  1.00  0.00    -0.275 N 
HETATM   12  C9  UNL     1      35.518  -3.211  11.231  1.00  0.00     0.331 A 
ATOM     13  H2  UNL     1      34.135  -4.736  11.070  1.00  0.00     0.173 HD
HETATM   14  O9  UNL     1      34.829  -2.377  10.593  1.00  0.00    -0.246 OA
ENDBRANCH   1   6
BRANCH   5  15
HETATM   15  O8  UNL     1      35.642  -1.212  13.273  1.00  0.00    -0.388 OA
ATOM     16  H8  UNL     1      34.864  -0.699  13.458  1.00  0.00     0.210 HD
ENDBRANCH   5  15
BRANCH   3  17
HETATM   17  C6  UNL     1      40.155   0.135  12.819  1.00  0.00     0.198 C 
BRANCH  17  18
HETATM   18  O3  UNL     1      40.410   1.524  12.765  1.00  0.00    -0.398 OA
ATOM     19  H3  UNL     1      40.192   1.894  13.612  1.00  0.00     0.209 HD
ENDBRANCH  17  18
ENDBRANCH   3  17
BRANCH   4  20
HETATM   20  O4  UNL     1      37.439   1.269  13.723  1.00  0.00    -0.272 OA
BRANCH  20  21
HETATM   21  P1  UNL     1      36.879   2.371  12.819  1.00  0.00     0.422 P 
HETATM   22  O5  UNL     1      38.148   3.341  13.267  1.00  0.00    -0.617 OA
HETATM   23  O6  UNL     1      36.319   3.445  11.879  1.00  0.00    -0.617 OA
HETATM   24  O7  UNL     1      35.507   2.429  13.734  1.00  0.00    -0.617 OA
ENDBRANCH  20  21
ENDBRANCH   4  20
TORSDOF 6
ENDMDL
