MODEL 1
REMARK VINA RESULT: -6.936136741      0.000      0.000
REMARK  6 active torsions:
REMARK  status: ('A' for Active; 'I' for Inactive)
REMARK    1  A    between atoms: N1_5  and  C4_6 
REMARK    2  A    between atoms: C5_8  and  C6_9 
REMARK    3  A    between atoms: C6_9  and  O3_10 
REMARK    4  A    between atoms: C7_12  and  O4_13 
REMARK    5  A    between atoms: O4_13  and  P1_14 
REMARK    6  A    between atoms: C8_18  and  O8_19 
ROOT
HETATM    1  C4  UNL     1      37.313  -1.556  11.373  1.00  0.00     0.264 C 
HETATM    2  O2  UNL     1      38.521  -1.300  11.965  1.00  0.00    -0.353 OA
HETATM    3  C5  UNL     1      38.708   0.082  11.785  1.00  0.00     0.180 C 
HETATM    4  C7  UNL     1      37.385   0.591  12.300  1.00  0.00     0.199 C 
HETATM    5  C8  UNL     1      36.446  -0.326  11.542  1.00  0.00     0.199 C 
ENDROOT
BRANCH   1   6
HETATM    6  N1  UNL     1      36.603  -2.666  11.946  1.00  0.00    -0.280 N 
HETATM    7  C3  UNL     1      37.069  -3.177  13.100  1.00  0.00     0.104 A 
HETATM    8  C2  UNL     1      36.473  -4.239  13.741  1.00  0.00     0.092 A 
HETATM    9  C1  UNL     1      35.348  -4.798  13.169  1.00  0.00     0.250 A 
HETATM   10  O1  UNL     1      34.814  -5.766  13.764  1.00  0.00    -0.268 OA
HETATM   11  N2  UNL     1      34.888  -4.286  12.021  1.00  0.00    -0.275 N 
HETATM   12  C9  UNL     1      35.508  -3.231  11.415  1.00  0.00     0.331 A 
ATOM     13  H2  UNL     1      34.057  -4.691  11.590  1.00  0.00     0.173 HD
HETATM   14  O9  UNL     1      35.059  -2.767  10.338  1.00  0.00    -0.246 OA
ENDBRANCH   1   6
BRANCH   5  15
HETATM   15  O8  UNL     1      35.319  -0.553  12.296  1.00  0.00    -0.388 OA
ATOM     16  H8  UNL     1      34.952   0.238  12.674  1.00  0.00     0.210 HD
ENDBRANCH   5  15
BRANCH   3  17
HETATM   17  C6  UNL     1      39.903   0.592  12.530  1.00  0.00     0.198 C 
BRANCH  17  18
HETATM   18  O3  UNL     1      40.236   1.859  12.001  1.00  0.00    -0.398 OA
ATOM     19  H3  UNL     1      39.888   2.521  12.587  1.00  0.00     0.209 HD
ENDBRANCH  17  18
ENDBRANCH   3  17
BRANCH   4  20
HETATM   20  O4  UNL     1      37.165   1.922  12.073  1.00  0.00    -0.272 OA
BRANCH  20  21
HETATM   21  P1  UNL     1      36.994   2.925  13.219  1.00  0.00     0.422 P 
HETATM   22  O5  UNL     1      35.461   2.339  13.462  1.00  0.00    -0.617 OA
HETATM   23  O6  UNL     1      36.861   3.911  14.385  1.00  0.00    -0.617 OA
HETATM   24  O7  UNL     1      37.180   4.175  12.157  1.00  0.00    -0.617 OA
ENDBRANCH  20  21
ENDBRANCH   4  20
TORSDOF 6
ENDMDL
