MODEL 8
REMARK VINA RESULT: -5.867427043      3.886      5.818
REMARK  6 active torsions:
REMARK  status: ('A' for Active; 'I' for Inactive)
REMARK    1  A    between atoms: N1_5  and  C4_6 
REMARK    2  A    between atoms: C5_8  and  C6_9 
REMARK    3  A    between atoms: C6_9  and  O3_10 
REMARK    4  A    between atoms: C7_12  and  O4_13 
REMARK    5  A    between atoms: O4_13  and  P1_14 
REMARK    6  A    between atoms: C8_18  and  O8_19 
ROOT
HETATM    1  C4  UNL     1      34.524  -5.235  12.357  1.00  0.00     0.264 C 
HETATM    2  O2  UNL     1      34.808  -4.239  11.461  1.00  0.00    -0.353 OA
HETATM    3  C5  UNL     1      35.401  -3.232  12.242  1.00  0.00     0.180 C 
HETATM    4  C7  UNL     1      36.446  -4.047  12.963  1.00  0.00     0.199 C 
HETATM    5  C8  UNL     1      35.587  -5.202  13.436  1.00  0.00     0.199 C 
ENDROOT
BRANCH   1   6
HETATM    6  N1  UNL     1      34.530  -6.554  11.787  1.00  0.00    -0.280 N 
HETATM    7  C3  UNL     1      35.155  -6.723  10.608  1.00  0.00     0.104 A 
HETATM    8  C2  UNL     1      35.225  -7.939   9.966  1.00  0.00     0.092 A 
HETATM    9  C1  UNL     1      34.627  -9.028  10.567  1.00  0.00     0.250 A 
HETATM   10  O1  UNL     1      34.698 -10.131   9.972  1.00  0.00    -0.268 OA
HETATM   11  N2  UNL     1      34.007  -8.856  11.741  1.00  0.00    -0.275 N 
HETATM   12  C9  UNL     1      33.958  -7.633  12.346  1.00  0.00     0.331 A 
ATOM     13  H2  UNL     1      33.562  -9.654  12.193  1.00  0.00     0.173 HD
HETATM   14  O9  UNL     1      33.371  -7.494  13.447  1.00  0.00    -0.246 OA
ENDBRANCH   1   6
BRANCH   5  15
HETATM   15  O8  UNL     1      36.346  -6.347  13.489  1.00  0.00    -0.388 OA
ATOM     16  H8  UNL     1      37.144  -6.247  13.996  1.00  0.00     0.210 HD
ENDBRANCH   5  15
BRANCH   3  17
HETATM   17  C6  UNL     1      35.952  -2.119  11.403  1.00  0.00     0.198 C 
BRANCH  17  18
HETATM   18  O3  UNL     1      37.321  -2.384  11.176  1.00  0.00    -0.398 OA
ATOM     19  H3  UNL     1      37.823  -1.902  11.823  1.00  0.00     0.209 HD
ENDBRANCH  17  18
ENDBRANCH   3  17
BRANCH   4  20
HETATM   20  O4  UNL     1      37.084  -3.380  13.974  1.00  0.00    -0.272 OA
BRANCH  20  21
HETATM   21  P1  UNL     1      38.544  -3.664  14.340  1.00  0.00     0.422 P 
HETATM   22  O5  UNL     1      38.762  -4.322  12.832  1.00  0.00    -0.617 OA
HETATM   23  O6  UNL     1      40.011  -3.904  14.716  1.00  0.00    -0.617 OA
HETATM   24  O7  UNL     1      38.049  -4.668  15.552  1.00  0.00    -0.617 OA
ENDBRANCH  20  21
ENDBRANCH   4  20
TORSDOF 6
ENDMDL
