MODEL 10
REMARK VINA RESULT: -5.767379917      2.878      4.832
REMARK  6 active torsions:
REMARK  status: ('A' for Active; 'I' for Inactive)
REMARK    1  A    between atoms: N1_5  and  C4_6 
REMARK    2  A    between atoms: C5_8  and  C6_9 
REMARK    3  A    between atoms: C6_9  and  O3_10 
REMARK    4  A    between atoms: C7_12  and  O4_13 
REMARK    5  A    between atoms: O4_13  and  P1_14 
REMARK    6  A    between atoms: C8_18  and  O8_19 
ROOT
HETATM    1  C4  UNL     1      38.818  -1.956  12.748  1.00  0.00     0.264 C 
HETATM    2  O2  UNL     1      37.943  -1.937  11.695  1.00  0.00    -0.353 OA
HETATM    3  C5  UNL     1      36.881  -1.132  12.144  1.00  0.00     0.180 C 
HETATM    4  C7  UNL     1      37.654   0.069  12.627  1.00  0.00     0.199 C 
HETATM    5  C8  UNL     1      38.710  -0.626  13.463  1.00  0.00     0.199 C 
ENDROOT
BRANCH   1   6
HETATM    6  N1  UNL     1      40.192  -2.129  12.364  1.00  0.00    -0.280 N 
HETATM    7  C3  UNL     1      40.523  -1.862  11.088  1.00  0.00     0.104 A 
HETATM    8  C2  UNL     1      41.806  -1.990  10.605  1.00  0.00     0.092 A 
HETATM    9  C1  UNL     1      42.790  -2.412  11.476  1.00  0.00     0.250 A 
HETATM   10  O1  UNL     1      43.956  -2.525  11.025  1.00  0.00    -0.268 OA
HETATM   11  N2  UNL     1      42.456  -2.676  12.746  1.00  0.00    -0.275 N 
HETATM   12  C9  UNL     1      41.172  -2.537  13.186  1.00  0.00     0.331 A 
ATOM     13  H2  UNL     1      43.176  -2.988  13.397  1.00  0.00     0.173 HD
HETATM   14  O9  UNL     1      40.882  -2.791  14.381  1.00  0.00    -0.246 OA
ENDBRANCH   1   6
BRANCH   5  15
HETATM   15  O8  UNL     1      39.874   0.105  13.434  1.00  0.00    -0.388 OA
ATOM     16  H8  UNL     1      40.328   0.124  14.269  1.00  0.00     0.210 HD
ENDBRANCH   5  15
BRANCH   3  17
HETATM   17  C6  UNL     1      35.895  -0.840  11.055  1.00  0.00     0.198 C 
BRANCH  17  18
HETATM   18  O3  UNL     1      36.444   0.171  10.233  1.00  0.00    -0.398 OA
ATOM     19  H3  UNL     1      37.052  -0.241   9.630  1.00  0.00     0.209 HD
ENDBRANCH  17  18
ENDBRANCH   3  17
BRANCH   4  20
HETATM   20  O4  UNL     1      36.906   0.980  13.323  1.00  0.00    -0.272 OA
BRANCH  20  21
HETATM   21  P1  UNL     1      36.886   2.467  12.954  1.00  0.00     0.422 P 
HETATM   22  O5  UNL     1      38.128   2.718  14.025  1.00  0.00    -0.617 OA
HETATM   23  O6  UNL     1      36.870   3.943  12.541  1.00  0.00    -0.617 OA
HETATM   24  O7  UNL     1      35.342   2.590  13.525  1.00  0.00    -0.617 OA
ENDBRANCH  20  21
ENDBRANCH   4  20
TORSDOF 6
ENDMDL
