MODEL 2
REMARK VINA RESULT: -6.568727225      1.006      1.457
REMARK  6 active torsions:
REMARK  status: ('A' for Active; 'I' for Inactive)
REMARK    1  A    between atoms: N1_5  and  C4_6 
REMARK    2  A    between atoms: C5_8  and  C6_9 
REMARK    3  A    between atoms: C6_9  and  O3_10 
REMARK    4  A    between atoms: C7_12  and  O4_13 
REMARK    5  A    between atoms: O4_13  and  P1_14 
REMARK    6  A    between atoms: C8_18  and  O8_19 
ROOT
HETATM    1  C4  UNL     1      37.404  -1.216  11.536  1.00  0.00     0.264 C 
HETATM    2  O2  UNL     1      38.603  -0.958  12.146  1.00  0.00    -0.353 OA
HETATM    3  C5  UNL     1      38.800   0.420  11.950  1.00  0.00     0.180 C 
HETATM    4  C7  UNL     1      37.471   0.943  12.436  1.00  0.00     0.199 C 
HETATM    5  C8  UNL     1      36.540   0.021  11.674  1.00  0.00     0.199 C 
ENDROOT
BRANCH   1   6
HETATM    6  N1  UNL     1      36.678  -2.314  12.111  1.00  0.00    -0.280 N 
HETATM    7  C3  UNL     1      35.916  -3.059  11.289  1.00  0.00     0.104 A 
HETATM    8  C2  UNL     1      35.177  -4.134  11.725  1.00  0.00     0.092 A 
HETATM    9  C1  UNL     1      35.224  -4.457  13.066  1.00  0.00     0.250 A 
HETATM   10  O1  UNL     1      34.545  -5.441  13.451  1.00  0.00    -0.268 OA
HETATM   11  N2  UNL     1      35.984  -3.714  13.880  1.00  0.00    -0.275 N 
HETATM   12  C9  UNL     1      36.703  -2.654  13.410  1.00  0.00     0.331 A 
ATOM     13  H2  UNL     1      36.026  -3.945  14.873  1.00  0.00     0.173 HD
HETATM   14  O9  UNL     1      37.408  -1.970  14.192  1.00  0.00    -0.246 OA
ENDBRANCH   1   6
BRANCH   5  15
HETATM   15  O8  UNL     1      35.399  -0.190  12.410  1.00  0.00    -0.388 OA
ATOM     16  H8  UNL     1      35.518  -0.040  13.341  1.00  0.00     0.210 HD
ENDBRANCH   5  15
BRANCH   3  17
HETATM   17  C6  UNL     1      39.985   0.934  12.710  1.00  0.00     0.198 C 
BRANCH  17  18
HETATM   18  O3  UNL     1      40.337   2.190  12.165  1.00  0.00    -0.398 OA
ATOM     19  H3  UNL     1      39.550   2.586  11.812  1.00  0.00     0.209 HD
ENDBRANCH  17  18
ENDBRANCH   3  17
BRANCH   4  20
HETATM   20  O4  UNL     1      37.261   2.272  12.187  1.00  0.00    -0.272 OA
BRANCH  20  21
HETATM   21  P1  UNL     1      37.005   3.280  13.312  1.00  0.00     0.422 P 
HETATM   22  O5  UNL     1      35.484   2.641  13.494  1.00  0.00    -0.617 OA
HETATM   23  O6  UNL     1      36.785   4.272  14.459  1.00  0.00    -0.617 OA
HETATM   24  O7  UNL     1      37.193   4.525  12.245  1.00  0.00    -0.617 OA
ENDBRANCH  20  21
ENDBRANCH   4  20
TORSDOF 6
ENDMDL
