MODEL 6
REMARK VINA RESULT: -5.998060359      1.471      1.900
REMARK  6 active torsions:
REMARK  status: ('A' for Active; 'I' for Inactive)
REMARK    1  A    between atoms: N1_5  and  C4_6 
REMARK    2  A    between atoms: C5_8  and  C6_9 
REMARK    3  A    between atoms: C6_9  and  O3_10 
REMARK    4  A    between atoms: C7_12  and  O4_13 
REMARK    5  A    between atoms: O4_13  and  P1_14 
REMARK    6  A    between atoms: C8_18  and  O8_19 
ROOT
HETATM    1  C4  UNL     1      37.834  -0.440  11.819  1.00  0.00     0.264 C 
HETATM    2  O2  UNL     1      38.994  -0.701  12.499  1.00  0.00    -0.353 OA
HETATM    3  C5  UNL     1      39.393   0.552  12.995  1.00  0.00     0.180 C 
HETATM    4  C7  UNL     1      38.107   0.991  13.650  1.00  0.00     0.199 C 
HETATM    5  C8  UNL     1      37.136   0.707  12.522  1.00  0.00     0.199 C 
ENDROOT
BRANCH   1   6
HETATM    6  N1  UNL     1      36.916  -1.544  11.780  1.00  0.00    -0.280 N 
HETATM    7  C3  UNL     1      37.159  -2.588  12.593  1.00  0.00     0.104 A 
HETATM    8  C2  UNL     1      36.352  -3.702  12.643  1.00  0.00     0.092 A 
HETATM    9  C1  UNL     1      35.244  -3.740  11.821  1.00  0.00     0.250 A 
HETATM   10  O1  UNL     1      34.515  -4.760  11.875  1.00  0.00    -0.268 OA
HETATM   11  N2  UNL     1      35.005  -2.698  11.013  1.00  0.00    -0.275 N 
HETATM   12  C9  UNL     1      35.831  -1.612  10.992  1.00  0.00     0.331 A 
ATOM     13  H2  UNL     1      34.190  -2.717  10.402  1.00  0.00     0.173 HD
HETATM   14  O9  UNL     1      35.588  -0.647  10.227  1.00  0.00    -0.246 OA
ENDBRANCH   1   6
BRANCH   5  15
HETATM   15  O8  UNL     1      35.912   0.361  13.045  1.00  0.00    -0.388 OA
ATOM     16  H8  UNL     1      35.973  -0.237  13.782  1.00  0.00     0.210 HD
ENDBRANCH   5  15
BRANCH   3  17
HETATM   17  C6  UNL     1      40.559   0.444  13.929  1.00  0.00     0.198 C 
BRANCH  17  18
HETATM   18  O3  UNL     1      40.998   1.754  14.228  1.00  0.00    -0.398 OA
ATOM     19  H3  UNL     1      41.581   2.032  13.532  1.00  0.00     0.209 HD
ENDBRANCH  17  18
ENDBRANCH   3  17
BRANCH   4  20
HETATM   20  O4  UNL     1      38.102   2.294  14.070  1.00  0.00    -0.272 OA
BRANCH  20  21
HETATM   21  P1  UNL     1      37.851   3.458  13.107  1.00  0.00     0.422 P 
HETATM   22  O5  UNL     1      39.311   4.106  13.557  1.00  0.00    -0.617 OA
HETATM   23  O6  UNL     1      37.593   4.593  12.109  1.00  0.00    -0.617 OA
HETATM   24  O7  UNL     1      36.516   3.893  13.976  1.00  0.00    -0.617 OA
ENDBRANCH  20  21
ENDBRANCH   4  20
TORSDOF 6
ENDMDL
