MODEL 2
REMARK VINA RESULT: -6.909379822      0.495      1.100
REMARK  5 active torsions:
REMARK  status: ('A' for Active; 'I' for Inactive)
REMARK    1  A    between atoms: N1_5  and  C4_6 
REMARK    2  A    between atoms: C6_8  and  O2_9 
REMARK    3  A    between atoms: O2_9  and  P1_10 
REMARK    4  A    between atoms: C7_14  and  C8_15 
REMARK    5  A    between atoms: C8_15  and  O6_16 
ROOT
HETATM    1  C4  UNL     1      37.214  -1.809  12.230  1.00  0.00     0.235 C 
HETATM    2  C5  UNL     1      37.086  -0.727  13.258  1.00  0.00     0.089 C 
HETATM    3  C6  UNL     1      38.156   0.251  12.775  1.00  0.00     0.170 C 
HETATM    4  C7  UNL     1      38.968  -0.622  11.866  1.00  0.00     0.177 C 
HETATM    5  O7  UNL     1      38.616  -1.958  12.180  1.00  0.00    -0.356 OA
ENDROOT
BRANCH   1   6
HETATM    6  N1  UNL     1      36.523  -3.001  12.524  1.00  0.00    -0.282 N 
HETATM    7  C3  UNL     1      36.880  -3.773  13.562  1.00  0.00     0.104 A 
HETATM    8  C2  UNL     1      36.186  -4.958  13.848  1.00  0.00     0.092 A 
HETATM    9  C1  UNL     1      35.129  -5.332  13.059  1.00  0.00     0.250 A 
HETATM   10  O1  UNL     1      34.487  -6.393  13.293  1.00  0.00    -0.268 OA
HETATM   11  N2  UNL     1      34.799  -4.534  12.027  1.00  0.00    -0.275 N 
HETATM   12  C9  UNL     1      35.484  -3.400  11.775  1.00  0.00     0.331 A 
ATOM     13  H2  UNL     1      34.017  -4.792  11.424  1.00  0.00     0.173 HD
HETATM   14  O8  UNL     1      35.137  -2.703  10.812  1.00  0.00    -0.246 OA
ENDBRANCH   1   6
BRANCH   3  15
HETATM   15  O2  UNL     1      37.531   1.280  12.159  1.00  0.00    -0.275 OA
BRANCH  15  16
HETATM   16  P1  UNL     1      37.196   2.657  12.858  1.00  0.00     0.422 P 
HETATM   17  O3  UNL     1      38.140   2.476  14.060  1.00  0.00    -0.617 OA
HETATM   18  O4  UNL     1      38.026   4.065  12.457  1.00  0.00    -0.617 OA
HETATM   19  O5  UNL     1      35.897   2.808  13.939  1.00  0.00    -0.617 OA
ENDBRANCH  15  16
ENDBRANCH   3  15
BRANCH   4  20
HETATM   20  C8  UNL     1      40.451  -0.425  12.029  1.00  0.00     0.198 C 
BRANCH  20  21
HETATM   21  O6  UNL     1      40.708   0.937  12.121  1.00  0.00    -0.398 OA
ATOM     22  H6  UNL     1      41.395   1.073  12.763  1.00  0.00     0.209 HD
ENDBRANCH  20  21
ENDBRANCH   4  20
TORSDOF 5
ENDMDL
