MODEL 6
REMARK VINA RESULT: -6.242331817      3.640      8.241
REMARK  5 active torsions:
REMARK  status: ('A' for Active; 'I' for Inactive)
REMARK    1  A    between atoms: N1_5  and  C4_6 
REMARK    2  A    between atoms: C6_8  and  O2_9 
REMARK    3  A    between atoms: O2_9  and  P1_10 
REMARK    4  A    between atoms: C7_14  and  C8_15 
REMARK    5  A    between atoms: C8_15  and  O6_16 
ROOT
HETATM    1  C4  UNL     1      35.725  -5.234  12.326  1.00  0.00     0.235 C 
HETATM    2  C5  UNL     1      36.412  -6.412  11.707  1.00  0.00     0.089 C 
HETATM    3  C6  UNL     1      35.519  -7.551  12.198  1.00  0.00     0.170 C 
HETATM    4  C7  UNL     1      34.784  -6.887  13.323  1.00  0.00     0.177 C 
HETATM    5  O7  UNL     1      35.511  -5.713  13.635  1.00  0.00    -0.356 OA
ENDROOT
BRANCH   1   6
HETATM    6  N1  UNL     1      36.443  -4.023  12.270  1.00  0.00    -0.282 N 
HETATM    7  C3  UNL     1      37.448  -3.772  13.123  1.00  0.00     0.104 A 
HETATM    8  C2  UNL     1      38.158  -2.564  13.060  1.00  0.00     0.092 A 
HETATM    9  C1  UNL     1      37.823  -1.628  12.115  1.00  0.00     0.250 A 
HETATM   10  O1  UNL     1      38.445  -0.533  12.036  1.00  0.00    -0.268 OA
HETATM   11  N2  UNL     1      36.810  -1.914  11.277  1.00  0.00    -0.275 N 
HETATM   12  C9  UNL     1      36.144  -3.083  11.360  1.00  0.00     0.331 A 
ATOM     13  H2  UNL     1      36.540  -1.233  10.566  1.00  0.00     0.173 HD
HETATM   14  O8  UNL     1      35.220  -3.295  10.563  1.00  0.00    -0.246 OA
ENDBRANCH   1   6
BRANCH   3  15
HETATM   15  O2  UNL     1      34.737  -7.941  11.165  1.00  0.00    -0.275 OA
BRANCH  15  16
HETATM   16  P1  UNL     1      34.167  -9.404  10.990  1.00  0.00     0.422 P 
HETATM   17  O3  UNL     1      35.101 -10.077  12.013  1.00  0.00    -0.617 OA
HETATM   18  O4  UNL     1      32.848  -9.940  11.888  1.00  0.00    -0.617 OA
HETATM   19  O5  UNL     1      34.768 -10.451   9.798  1.00  0.00    -0.617 OA
ENDBRANCH  15  16
ENDBRANCH   3  15
BRANCH   4  20
HETATM   20  C8  UNL     1      34.662  -7.761  14.543  1.00  0.00     0.198 C 
BRANCH  20  21
HETATM   21  O6  UNL     1      33.516  -8.536  14.418  1.00  0.00    -0.398 OA
ATOM     22  H6  UNL     1      33.267  -8.564  13.502  1.00  0.00     0.209 HD
ENDBRANCH  20  21
ENDBRANCH   4  20
TORSDOF 5
ENDMDL
