MODEL 7
REMARK VINA RESULT: -6.218960921      3.247      7.675
REMARK  5 active torsions:
REMARK  status: ('A' for Active; 'I' for Inactive)
REMARK    1  A    between atoms: N1_5  and  C4_6 
REMARK    2  A    between atoms: C6_8  and  O2_9 
REMARK    3  A    between atoms: O2_9  and  P1_10 
REMARK    4  A    between atoms: C7_14  and  C8_15 
REMARK    5  A    between atoms: C8_15  and  O6_16 
ROOT
HETATM    1  C4  UNL     1      36.166  -4.354  12.581  1.00  0.00     0.235 C 
HETATM    2  C5  UNL     1      35.074  -4.673  13.556  1.00  0.00     0.089 C 
HETATM    3  C6  UNL     1      34.849  -6.153  13.255  1.00  0.00     0.170 C 
HETATM    4  C7  UNL     1      35.509  -6.288  11.915  1.00  0.00     0.177 C 
HETATM    5  O7  UNL     1      35.665  -4.972  11.416  1.00  0.00    -0.356 OA
ENDROOT
BRANCH   1   6
HETATM    6  N1  UNL     1      36.449  -2.983  12.424  1.00  0.00    -0.282 N 
HETATM    7  C3  UNL     1      36.033  -2.307  11.342  1.00  0.00     0.104 A 
HETATM    8  C2  UNL     1      36.318  -0.941  11.195  1.00  0.00     0.092 A 
HETATM    9  C1  UNL     1      37.030  -0.288  12.167  1.00  0.00     0.250 A 
HETATM   10  O1  UNL     1      37.301   0.940  12.060  1.00  0.00    -0.268 OA
HETATM   11  N2  UNL     1      37.432  -0.997  13.238  1.00  0.00    -0.275 N 
HETATM   12  C9  UNL     1      37.143  -2.309  13.354  1.00  0.00     0.331 A 
ATOM     13  H2  UNL     1      37.965  -0.534  13.975  1.00  0.00     0.173 HD
HETATM   14  O8  UNL     1      37.537  -2.913  14.361  1.00  0.00    -0.246 OA
ENDBRANCH   1   6
BRANCH   3  15
HETATM   15  O2  UNL     1      35.429  -6.872  14.244  1.00  0.00    -0.275 OA
BRANCH  15  16
HETATM   16  P1  UNL     1      35.085  -8.381  14.559  1.00  0.00     0.422 P 
HETATM   17  O3  UNL     1      33.559  -8.249  14.398  1.00  0.00    -0.617 OA
HETATM   18  O4  UNL     1      35.080  -9.548  13.345  1.00  0.00    -0.617 OA
HETATM   19  O5  UNL     1      34.840  -8.920  16.148  1.00  0.00    -0.617 OA
ENDBRANCH  15  16
ENDBRANCH   3  15
BRANCH   4  20
HETATM   20  C8  UNL     1      34.711  -7.119  10.946  1.00  0.00     0.198 C 
BRANCH  20  21
HETATM   21  O6  UNL     1      33.509  -7.467  11.548  1.00  0.00    -0.398 OA
ATOM     22  H6  UNL     1      32.992  -7.965  10.925  1.00  0.00     0.209 HD
ENDBRANCH  20  21
ENDBRANCH   4  20
TORSDOF 5
ENDMDL
