MODEL 10
REMARK VINA RESULT: -6.053302735      1.310      1.611
REMARK  5 active torsions:
REMARK  status: ('A' for Active; 'I' for Inactive)
REMARK    1  A    between atoms: N1_5  and  C4_6 
REMARK    2  A    between atoms: C6_8  and  O2_9 
REMARK    3  A    between atoms: O2_9  and  P1_10 
REMARK    4  A    between atoms: C7_14  and  C8_15 
REMARK    5  A    between atoms: C8_15  and  O6_16 
ROOT
HETATM    1  C4  UNL     1      37.835  -0.778  12.412  1.00  0.00     0.235 C 
HETATM    2  C5  UNL     1      37.944  -0.183  13.783  1.00  0.00     0.089 C 
HETATM    3  C6  UNL     1      39.124   0.768  13.586  1.00  0.00     0.170 C 
HETATM    4  C7  UNL     1      39.729   0.233  12.323  1.00  0.00     0.177 C 
HETATM    5  O7  UNL     1      39.190  -1.065  12.143  1.00  0.00    -0.356 OA
ENDROOT
BRANCH   1   6
HETATM    6  N1  UNL     1      36.983  -1.894  12.309  1.00  0.00    -0.282 N 
HETATM    7  C3  UNL     1      37.097  -2.935  13.148  1.00  0.00     0.104 A 
HETATM    8  C2  UNL     1      36.243  -4.043  13.039  1.00  0.00     0.092 A 
HETATM    9  C1  UNL     1      35.280  -4.064  12.063  1.00  0.00     0.250 A 
HETATM   10  O1  UNL     1      34.499  -5.048  11.942  1.00  0.00    -0.268 OA
HETATM   11  N2  UNL     1      35.195  -3.003  11.239  1.00  0.00    -0.275 N 
HETATM   12  C9  UNL     1      36.029  -1.951  11.368  1.00  0.00     0.331 A 
ATOM     13  H2  UNL     1      34.487  -2.995  10.504  1.00  0.00     0.173 HD
HETATM   14  O8  UNL     1      35.906  -1.001  10.582  1.00  0.00    -0.246 OA
ENDBRANCH   1   6
BRANCH   3  15
HETATM   15  O2  UNL     1      38.634   2.025  13.488  1.00  0.00    -0.275 OA
BRANCH  15  16
HETATM   16  P1  UNL     1      37.178   2.370  12.980  1.00  0.00     0.422 P 
HETATM   17  O3  UNL     1      37.338   3.900  13.020  1.00  0.00    -0.617 OA
HETATM   18  O4  UNL     1      36.830   2.480  11.337  1.00  0.00    -0.617 OA
HETATM   19  O5  UNL     1      35.875   2.508  14.057  1.00  0.00    -0.617 OA
ENDBRANCH  15  16
ENDBRANCH   3  15
BRANCH   4  20
HETATM   20  C8  UNL     1      41.232   0.167  12.372  1.00  0.00     0.198 C 
BRANCH  20  21
HETATM   21  O6  UNL     1      41.707   1.334  12.956  1.00  0.00    -0.398 OA
ATOM     22  H6  UNL     1      41.132   1.568  13.676  1.00  0.00     0.209 HD
ENDBRANCH  20  21
ENDBRANCH   4  20
TORSDOF 5
ENDMDL
