MODEL 4
REMARK VINA RESULT: -6.292573289      3.430      7.509
REMARK  5 active torsions:
REMARK  status: ('A' for Active; 'I' for Inactive)
REMARK    1  A    between atoms: N1_5  and  C4_6 
REMARK    2  A    between atoms: C6_8  and  O2_9 
REMARK    3  A    between atoms: O2_9  and  P1_10 
REMARK    4  A    between atoms: C7_14  and  C8_15 
REMARK    5  A    between atoms: C8_15  and  O6_16 
ROOT
HETATM    1  C4  UNL     1      36.088  -4.367  11.461  1.00  0.00     0.235 C 
HETATM    2  C5  UNL     1      34.879  -5.082  11.982  1.00  0.00     0.089 C 
HETATM    3  C6  UNL     1      34.951  -6.381  11.180  1.00  0.00     0.170 C 
HETATM    4  C7  UNL     1      35.888  -5.996  10.075  1.00  0.00     0.177 C 
HETATM    5  O7  UNL     1      35.941  -4.581  10.075  1.00  0.00    -0.356 OA
ENDROOT
BRANCH   1   6
HETATM    6  N1  UNL     1      36.184  -3.009  11.823  1.00  0.00    -0.282 N 
HETATM    7  C3  UNL     1      35.583  -2.053  11.098  1.00  0.00     0.104 A 
HETATM    8  C2  UNL     1      35.683  -0.703  11.467  1.00  0.00     0.092 A 
HETATM    9  C1  UNL     1      36.402  -0.355  12.581  1.00  0.00     0.250 A 
HETATM   10  O1  UNL     1      36.509   0.852  12.935  1.00  0.00    -0.268 OA
HETATM   11  N2  UNL     1      36.992  -1.340  13.284  1.00  0.00    -0.275 N 
HETATM   12  C9  UNL     1      36.879  -2.630  12.907  1.00  0.00     0.331 A 
ATOM     13  H2  UNL     1      37.534  -1.107  14.116  1.00  0.00     0.173 HD
HETATM   14  O8  UNL     1      37.441  -3.496  13.590  1.00  0.00    -0.246 OA
ENDBRANCH   1   6
BRANCH   3  15
HETATM   15  O2  UNL     1      35.415  -7.351  12.001  1.00  0.00    -0.275 OA
BRANCH  15  16
HETATM   16  P1  UNL     1      34.501  -8.441  12.687  1.00  0.00     0.422 P 
HETATM   17  O3  UNL     1      33.296  -8.277  11.743  1.00  0.00    -0.617 OA
HETATM   18  O4  UNL     1      34.589 -10.062  12.242  1.00  0.00    -0.617 OA
HETATM   19  O5  UNL     1      33.491  -8.053  13.994  1.00  0.00    -0.617 OA
ENDBRANCH  15  16
ENDBRANCH   3  15
BRANCH   4  20
HETATM   20  C8  UNL     1      35.446  -6.498   8.726  1.00  0.00     0.198 C 
BRANCH  20  21
HETATM   21  O6  UNL     1      35.618  -5.480   7.797  1.00  0.00    -0.398 OA
ATOM     22  H6  UNL     1      35.860  -5.868   6.964  1.00  0.00     0.209 HD
ENDBRANCH  20  21
ENDBRANCH   4  20
TORSDOF 5
ENDMDL
