MODEL 1
REMARK VINA RESULT: -6.934733912      0.000      0.000
REMARK  5 active torsions:
REMARK  status: ('A' for Active; 'I' for Inactive)
REMARK    1  A    between atoms: N1_5  and  C4_6 
REMARK    2  A    between atoms: C6_8  and  O2_9 
REMARK    3  A    between atoms: O2_9  and  P1_10 
REMARK    4  A    between atoms: C7_14  and  C8_15 
REMARK    5  A    between atoms: C8_15  and  O6_16 
ROOT
HETATM    1  C4  UNL     1      37.285  -1.918  12.267  1.00  0.00     0.235 C 
HETATM    2  C5  UNL     1      37.294  -0.884  13.351  1.00  0.00     0.089 C 
HETATM    3  C6  UNL     1      38.390   0.050  12.842  1.00  0.00     0.170 C 
HETATM    4  C7  UNL     1      39.083  -0.823  11.839  1.00  0.00     0.177 C 
HETATM    5  O7  UNL     1      38.668  -2.149  12.114  1.00  0.00    -0.356 OA
ENDROOT
BRANCH   1   6
HETATM    6  N1  UNL     1      36.540  -3.079  12.552  1.00  0.00    -0.282 N 
HETATM    7  C3  UNL     1      36.855  -3.869  13.589  1.00  0.00     0.104 A 
HETATM    8  C2  UNL     1      36.106  -5.024  13.865  1.00  0.00     0.092 A 
HETATM    9  C1  UNL     1      35.040  -5.348  13.067  1.00  0.00     0.250 A 
HETATM   10  O1  UNL     1      34.350  -6.380  13.293  1.00  0.00    -0.268 OA
HETATM   11  N2  UNL     1      34.753  -4.533  12.036  1.00  0.00    -0.275 N 
HETATM   12  C9  UNL     1      35.489  -3.429  11.794  1.00  0.00     0.331 A 
ATOM     13  H2  UNL     1      33.965  -4.753  11.427  1.00  0.00     0.173 HD
HETATM   14  O8  UNL     1      35.181  -2.713  10.831  1.00  0.00    -0.246 OA
ENDBRANCH   1   6
BRANCH   3  15
HETATM   15  O2  UNL     1      37.794   1.146  12.319  1.00  0.00    -0.275 OA
BRANCH  15  16
HETATM   16  P1  UNL     1      37.376   2.414  13.165  1.00  0.00     0.422 P 
HETATM   17  O3  UNL     1      36.891   3.263  11.976  1.00  0.00    -0.617 OA
HETATM   18  O4  UNL     1      35.842   2.544  13.845  1.00  0.00    -0.617 OA
HETATM   19  O5  UNL     1      38.494   3.633  13.542  1.00  0.00    -0.617 OA
ENDBRANCH  15  16
ENDBRANCH   3  15
BRANCH   4  20
HETATM   20  C8  UNL     1      40.583  -0.725  11.908  1.00  0.00     0.198 C 
BRANCH  20  21
HETATM   21  O6  UNL     1      40.946   0.608  11.756  1.00  0.00    -0.398 OA
ATOM     22  H6  UNL     1      41.667   0.656  11.138  1.00  0.00     0.209 HD
ENDBRANCH  20  21
ENDBRANCH   4  20
TORSDOF 5
ENDMDL
