MODEL 4
REMARK VINA RESULT: -6.210408069      3.199      7.084
REMARK  5 active torsions:
REMARK  status: ('A' for Active; 'I' for Inactive)
REMARK    1  A    between atoms: N1_5  and  C4_6 
REMARK    2  A    between atoms: C5_8  and  C6_9 
REMARK    3  A    between atoms: C6_9  and  O3_10 
REMARK    4  A    between atoms: C7_12  and  O4_13 
REMARK    5  A    between atoms: O4_13  and  P1_14 
ROOT
HETATM    1  C4  UNL     1      36.490  -3.805  13.243  1.00  0.00     0.269 C 
HETATM    2  O2  UNL     1      37.530  -4.598  12.759  1.00  0.00    -0.353 OA
HETATM    3  C5  UNL     1      37.064  -5.881  13.160  1.00  0.00     0.180 C 
HETATM    4  C7  UNL     1      35.711  -5.900  12.527  1.00  0.00     0.205 C 
HETATM    5  C8  UNL     1      35.250  -4.448  12.786  1.00  0.00     0.251 C 
HETATM    6  F1  UNL     1      34.323  -4.478  13.818  1.00  0.00    -0.242 F 
ENDROOT
BRANCH   1   7
HETATM    7  N1  UNL     1      36.648  -2.424  12.943  1.00  0.00    -0.279 N 
HETATM    8  C3  UNL     1      36.188  -1.807  11.836  1.00  0.00     0.104 A 
HETATM    9  C2  UNL     1      36.375  -0.468  11.603  1.00  0.00     0.092 A 
HETATM   10  C1  UNL     1      37.056   0.285  12.527  1.00  0.00     0.250 A 
HETATM   11  O1  UNL     1      37.228   1.515  12.317  1.00  0.00    -0.268 OA
HETATM   12  N2  UNL     1      37.513  -0.334  13.630  1.00  0.00    -0.275 N 
HETATM   13  C9  UNL     1      37.310  -1.649  13.824  1.00  0.00     0.331 A 
ATOM     14  H2  UNL     1      38.022   0.204  14.332  1.00  0.00     0.173 HD
HETATM   15  O8  UNL     1      37.782  -2.144  14.899  1.00  0.00    -0.246 OA
ENDBRANCH   1   7
BRANCH   3  16
HETATM   16  C6  UNL     1      38.009  -6.951  12.685  1.00  0.00     0.198 C 
BRANCH  16  17
HETATM   17  O3  UNL     1      37.336  -7.804  11.842  1.00  0.00    -0.398 OA
ATOM     18  H3  UNL     1      37.585  -8.699  12.040  1.00  0.00     0.209 HD
ENDBRANCH  16  17
ENDBRANCH   3  16
BRANCH   4  19
HETATM   19  O4  UNL     1      34.893  -6.773  13.217  1.00  0.00    -0.272 OA
BRANCH  19  20
HETATM   20  P1  UNL     1      33.662  -7.242  12.229  1.00  0.00     0.422 P 
HETATM   21  O5  UNL     1      32.990  -7.993  13.375  1.00  0.00    -0.617 OA
HETATM   22  O6  UNL     1      32.293  -6.263  12.112  1.00  0.00    -0.617 OA
HETATM   23  O7  UNL     1      33.802  -8.488  11.198  1.00  0.00    -0.617 OA
ENDBRANCH  19  20
ENDBRANCH   4  19
TORSDOF 5
ENDMDL
