MODEL 1
REMARK VINA RESULT: -6.883433357      0.000      0.000
REMARK  5 active torsions:
REMARK  status: ('A' for Active; 'I' for Inactive)
REMARK    1  A    between atoms: N1_5  and  C4_6 
REMARK    2  A    between atoms: C5_8  and  C6_9 
REMARK    3  A    between atoms: C6_9  and  O3_10 
REMARK    4  A    between atoms: C7_12  and  O4_13 
REMARK    5  A    between atoms: O4_13  and  P1_14 
ROOT
HETATM    1  C4  UNL     1      37.054  -2.059  12.262  1.00  0.00     0.269 C 
HETATM    2  O2  UNL     1      38.377  -2.101  12.703  1.00  0.00    -0.353 OA
HETATM    3  C5  UNL     1      38.805  -0.804  12.307  1.00  0.00     0.180 C 
HETATM    4  C7  UNL     1      37.785   0.050  12.988  1.00  0.00     0.205 C 
HETATM    5  C8  UNL     1      36.507  -0.788  12.758  1.00  0.00     0.251 C 
HETATM    6  F1  UNL     1      35.771  -0.168  11.760  1.00  0.00    -0.242 F 
ENDROOT
BRANCH   1   7
HETATM    7  N1  UNL     1      36.320  -3.239  12.568  1.00  0.00    -0.279 N 
HETATM    8  C3  UNL     1      36.541  -4.043  13.627  1.00  0.00     0.104 A 
HETATM    9  C2  UNL     1      35.798  -5.171  13.868  1.00  0.00     0.092 A 
HETATM   10  C1  UNL     1      34.786  -5.505  13.001  1.00  0.00     0.250 A 
HETATM   11  O1  UNL     1      34.101  -6.539  13.220  1.00  0.00    -0.268 OA
HETATM   12  N2  UNL     1      34.569  -4.700  11.947  1.00  0.00    -0.275 N 
HETATM   13  C9  UNL     1      35.319  -3.602  11.744  1.00  0.00     0.331 A 
ATOM     14  H2  UNL     1      33.824  -4.927  11.289  1.00  0.00     0.173 HD
HETATM   15  O8  UNL     1      35.037  -2.904  10.716  1.00  0.00    -0.246 OA
ENDBRANCH   1   7
BRANCH   3  16
HETATM   16  C6  UNL     1      40.227  -0.571  12.740  1.00  0.00     0.198 C 
BRANCH  16  17
HETATM   17  O3  UNL     1      40.510   0.772  12.652  1.00  0.00    -0.398 OA
ATOM     18  H3  UNL     1      40.635   1.005  11.739  1.00  0.00     0.209 HD
ENDBRANCH  16  17
ENDBRANCH   3  16
BRANCH   4  19
HETATM   19  O4  UNL     1      37.673   1.254  12.320  1.00  0.00    -0.272 OA
BRANCH  19  20
HETATM   20  P1  UNL     1      37.170   2.405  13.383  1.00  0.00     0.422 P 
HETATM   21  O5  UNL     1      36.911   3.386  12.242  1.00  0.00    -0.617 OA
HETATM   22  O6  UNL     1      35.533   2.488  13.781  1.00  0.00    -0.617 OA
HETATM   23  O7  UNL     1      38.210   3.320  14.231  1.00  0.00    -0.617 OA
ENDBRANCH  19  20
ENDBRANCH   4  19
TORSDOF 5
ENDMDL
