MODEL 2
REMARK VINA RESULT: -6.805539189      0.515      1.083
REMARK  5 active torsions:
REMARK  status: ('A' for Active; 'I' for Inactive)
REMARK    1  A    between atoms: N1_5  and  C4_6 
REMARK    2  A    between atoms: C5_8  and  C6_9 
REMARK    3  A    between atoms: C6_9  and  O3_10 
REMARK    4  A    between atoms: C7_12  and  O4_13 
REMARK    5  A    between atoms: O4_13  and  P1_14 
ROOT
HETATM    1  C4  UNL     1      37.008  -2.232  12.334  1.00  0.00     0.269 C 
HETATM    2  O2  UNL     1      38.150  -2.230  13.135  1.00  0.00    -0.353 OA
HETATM    3  C5  UNL     1      38.727  -0.994  12.731  1.00  0.00     0.180 C 
HETATM    4  C7  UNL     1      37.594  -0.056  12.992  1.00  0.00     0.205 C 
HETATM    5  C8  UNL     1      36.398  -0.906  12.505  1.00  0.00     0.251 C 
HETATM    6  F1  UNL     1      35.999  -0.406  11.274  1.00  0.00    -0.242 F 
ENDROOT
BRANCH   1   7
HETATM    7  N1  UNL     1      36.169  -3.360  12.553  1.00  0.00    -0.279 N 
HETATM    8  C3  UNL     1      36.177  -4.138  13.654  1.00  0.00     0.104 A 
HETATM    9  C2  UNL     1      35.341  -5.215  13.805  1.00  0.00     0.092 A 
HETATM   10  C1  UNL     1      34.457  -5.525  12.800  1.00  0.00     0.250 A 
HETATM   11  O1  UNL     1      33.688  -6.513  12.935  1.00  0.00    -0.268 OA
HETATM   12  N2  UNL     1      34.453  -4.746  11.704  1.00  0.00    -0.275 N 
HETATM   13  C9  UNL     1      35.287  -3.697  11.592  1.00  0.00     0.331 A 
ATOM     14  H2  UNL     1      33.805  -4.955  10.944  1.00  0.00     0.173 HD
HETATM   15  O8  UNL     1      35.208  -3.021  10.515  1.00  0.00    -0.246 OA
ENDBRANCH   1   7
BRANCH   3  16
HETATM   16  C6  UNL     1      39.978  -0.721  13.521  1.00  0.00     0.198 C 
BRANCH  16  17
HETATM   17  O3  UNL     1      40.341   0.594  13.350  1.00  0.00    -0.398 OA
ATOM     18  H3  UNL     1      40.958   0.656  12.631  1.00  0.00     0.209 HD
ENDBRANCH  16  17
ENDBRANCH   3  16
BRANCH   4  19
HETATM   19  O4  UNL     1      37.725   1.058  12.186  1.00  0.00    -0.272 OA
BRANCH  19  20
HETATM   20  P1  UNL     1      37.041   2.347  12.947  1.00  0.00     0.422 P 
HETATM   21  O5  UNL     1      38.084   2.280  14.059  1.00  0.00    -0.617 OA
HETATM   22  O6  UNL     1      37.588   3.899  12.574  1.00  0.00    -0.617 OA
HETATM   23  O7  UNL     1      35.717   2.207  13.875  1.00  0.00    -0.617 OA
ENDBRANCH  19  20
ENDBRANCH   4  19
TORSDOF 5
ENDMDL
