MODEL 5
REMARK VINA RESULT: -6.109606314      3.659      6.245
REMARK  5 active torsions:
REMARK  status: ('A' for Active; 'I' for Inactive)
REMARK    1  A    between atoms: N1_5  and  C4_6 
REMARK    2  A    between atoms: C5_8  and  C6_9 
REMARK    3  A    between atoms: C6_9  and  O3_10 
REMARK    4  A    between atoms: C7_12  and  O4_13 
REMARK    5  A    between atoms: O4_13  and  P1_14 
ROOT
HETATM    1  C4  UNL     1      40.441  -0.099  12.671  1.00  0.00     0.269 C 
HETATM    2  O2  UNL     1      39.451  -0.727  11.915  1.00  0.00    -0.353 OA
HETATM    3  C5  UNL     1      38.310  -0.416  12.704  1.00  0.00     0.180 C 
HETATM    4  C7  UNL     1      38.410   1.073  12.771  1.00  0.00     0.205 C 
HETATM    5  C8  UNL     1      39.935   1.252  12.950  1.00  0.00     0.251 C 
HETATM    6  F1  UNL     1      40.168   1.580  14.277  1.00  0.00    -0.242 F 
ENDROOT
BRANCH   1   7
HETATM    7  N1  UNL     1      41.738  -0.195  12.092  1.00  0.00    -0.279 N 
HETATM    8  C3  UNL     1      42.275   0.690  11.228  1.00  0.00     0.104 A 
HETATM    9  C2  UNL     1      43.533   0.541  10.703  1.00  0.00     0.092 A 
HETATM   10  C1  UNL     1      44.286  -0.550  11.063  1.00  0.00     0.250 A 
HETATM   11  O1  UNL     1      45.442  -0.689  10.584  1.00  0.00    -0.268 OA
HETATM   12  N2  UNL     1      43.746  -1.430  11.924  1.00  0.00    -0.275 N 
HETATM   13  C9  UNL     1      42.508  -1.250  12.419  1.00  0.00     0.331 A 
ATOM     14  H2  UNL     1      44.285  -2.248  12.208  1.00  0.00     0.173 HD
HETATM   15  O8  UNL     1      42.085  -2.139  13.228  1.00  0.00    -0.246 OA
ENDBRANCH   1   7
BRANCH   3  16
HETATM   16  C6  UNL     1      37.063  -0.945  12.049  1.00  0.00     0.198 C 
BRANCH  16  17
HETATM   17  O3  UNL     1      35.963  -0.388  12.656  1.00  0.00    -0.398 OA
ATOM     18  H3  UNL     1      35.189  -0.588  12.144  1.00  0.00     0.209 HD
ENDBRANCH  16  17
ENDBRANCH   3  16
BRANCH   4  19
HETATM   19  O4  UNL     1      37.758   1.528  13.900  1.00  0.00    -0.272 OA
BRANCH  19  20
HETATM   20  P1  UNL     1      37.007   2.949  13.544  1.00  0.00     0.422 P 
HETATM   21  O5  UNL     1      35.647   2.351  13.896  1.00  0.00    -0.617 OA
HETATM   22  O6  UNL     1      36.788   4.085  14.771  1.00  0.00    -0.617 OA
HETATM   23  O7  UNL     1      36.667   3.394  12.021  1.00  0.00    -0.617 OA
ENDBRANCH  19  20
ENDBRANCH   4  19
TORSDOF 5
ENDMDL
