MODEL 3
REMARK VINA RESULT: -6.549395151      3.152      4.693
REMARK  5 active torsions:
REMARK  status: ('A' for Active; 'I' for Inactive)
REMARK    1  A    between atoms: N1_5  and  C4_6 
REMARK    2  A    between atoms: C5_8  and  C6_9 
REMARK    3  A    between atoms: C6_9  and  O3_10 
REMARK    4  A    between atoms: C7_12  and  O4_13 
REMARK    5  A    between atoms: O4_13  and  P1_14 
ROOT
HETATM    1  C4  UNL     1      34.969  -5.327  12.422  1.00  0.00     0.269 C 
HETATM    2  O2  UNL     1      34.796  -4.286  11.510  1.00  0.00    -0.353 OA
HETATM    3  C5  UNL     1      35.225  -3.190  12.309  1.00  0.00     0.180 C 
HETATM    4  C7  UNL     1      36.587  -3.653  12.714  1.00  0.00     0.205 C 
HETATM    5  C8  UNL     1      36.316  -5.151  12.981  1.00  0.00     0.251 C 
HETATM    6  F1  UNL     1      36.287  -5.335  14.355  1.00  0.00    -0.242 F 
ENDROOT
BRANCH   1   7
HETATM    7  N1  UNL     1      34.657  -6.606  11.881  1.00  0.00    -0.279 N 
HETATM    8  C3  UNL     1      35.515  -7.399  11.208  1.00  0.00     0.104 A 
HETATM    9  C2  UNL     1      35.153  -8.625  10.709  1.00  0.00     0.092 A 
HETATM   10  C1  UNL     1      33.868  -9.073  10.897  1.00  0.00     0.250 A 
HETATM   11  O1  UNL     1      33.533 -10.198  10.442  1.00  0.00    -0.268 OA
HETATM   12  N2  UNL     1      33.017  -8.279  11.570  1.00  0.00    -0.275 N 
HETATM   13  C9  UNL     1      33.408  -7.083  12.044  1.00  0.00     0.331 A 
ATOM     14  H2  UNL     1      32.057  -8.589  11.723  1.00  0.00     0.173 HD
HETATM   15  O8  UNL     1      32.529  -6.404  12.667  1.00  0.00    -0.246 OA
ENDBRANCH   1   7
BRANCH   3  16
HETATM   16  C6  UNL     1      35.193  -1.917  11.509  1.00  0.00     0.198 C 
BRANCH  16  17
HETATM   17  O3  UNL     1      35.543  -0.865  12.321  1.00  0.00    -0.398 OA
ATOM     18  H3  UNL     1      36.076  -0.253  11.827  1.00  0.00     0.209 HD
ENDBRANCH  16  17
ENDBRANCH   3  16
BRANCH   4  19
HETATM   19  O4  UNL     1      36.952  -3.033  13.893  1.00  0.00    -0.272 OA
BRANCH  19  20
HETATM   20  P1  UNL     1      38.354  -2.207  13.647  1.00  0.00     0.422 P 
HETATM   21  O5  UNL     1      37.867  -1.061  14.531  1.00  0.00    -0.617 OA
HETATM   22  O6  UNL     1      39.637  -2.442  14.717  1.00  0.00    -0.617 OA
HETATM   23  O7  UNL     1      38.630  -1.345  12.299  1.00  0.00    -0.617 OA
ENDBRANCH  19  20
ENDBRANCH   4  19
TORSDOF 5
ENDMDL
