MODEL 5
REMARK VINA RESULT: -3.960849534      1.186      1.760
REMARK  1 active torsions:
REMARK  status: ('A' for Active; 'I' for Inactive)
REMARK    1  A    between atoms: C1_2  and  C2_4 
ROOT
HETATM    1  C2  UNL     1      26.163 -15.342   7.868  1.00  0.00     0.109 A 
HETATM    2  C3  UNL     1      24.987 -14.877   7.313  1.00  0.00     0.038 A 
HETATM    3  C4  UNL     1      24.954 -13.504   7.479  1.00  0.00     0.019 A 
HETATM    4  C5  UNL     1      26.117 -13.145   8.136  1.00  0.00     0.088 A 
HETATM    5  N1  UNL     1      26.824 -14.272   8.357  1.00  0.00    -0.360 N 
ATOM      6  H1  UNL     1      27.729 -14.310   8.826  1.00  0.00     0.165 HD
ENDROOT
BRANCH   1   7
HETATM    7  C1  UNL     1      26.602 -16.745   7.911  1.00  0.00     0.226 C 
HETATM    8  O1  UNL     1      25.795 -17.627   8.290  1.00  0.00    -0.643 OA
HETATM    9  O2  UNL     1      27.900 -17.051   7.532  1.00  0.00    -0.643 OA
ENDBRANCH   1   7
TORSDOF 1
ENDMDL
