MODEL 3
REMARK VINA RESULT: -5.416194691      1.137      1.816
REMARK  1 active torsions:
REMARK  status: ('A' for Active; 'I' for Inactive)
REMARK    1  A    between atoms: C1_2  and  C2_4 
ROOT
HETATM    1  C2  UNL     1      26.673 -15.413   7.785  1.00  0.00     0.109 A 
HETATM    2  C3  UNL     1      26.348 -14.165   8.280  1.00  0.00     0.038 A 
HETATM    3  C4  UNL     1      24.978 -14.008   8.169  1.00  0.00     0.019 A 
HETATM    4  C5  UNL     1      24.479 -15.170   7.605  1.00  0.00     0.088 A 
HETATM    5  N1  UNL     1      25.523 -15.995   7.386  1.00  0.00    -0.360 N 
ATOM      6  H1  UNL     1      25.453 -16.927   6.976  1.00  0.00     0.165 HD
ENDROOT
BRANCH   1   7
HETATM    7  C1  UNL     1      28.024 -15.989   7.714  1.00  0.00     0.226 C 
HETATM    8  O1  UNL     1      28.160 -17.188   7.373  1.00  0.00    -0.643 OA
HETATM    9  O2  UNL     1      29.111 -15.188   8.028  1.00  0.00    -0.643 OA
ENDBRANCH   1   7
TORSDOF 1
ENDMDL
