MODEL 4
REMARK VINA RESULT: -5.359002878      1.129      1.411
REMARK  1 active torsions:
REMARK  status: ('A' for Active; 'I' for Inactive)
REMARK    1  A    between atoms: C1_2  and  C2_4 
ROOT
HETATM    1  C2  UNL     1      26.678 -15.374   7.802  1.00  0.00     0.109 A 
HETATM    2  C3  UNL     1      26.317 -14.124   8.263  1.00  0.00     0.038 A 
HETATM    3  C4  UNL     1      24.942 -14.013   8.159  1.00  0.00     0.019 A 
HETATM    4  C5  UNL     1      24.476 -15.206   7.634  1.00  0.00     0.088 A 
HETATM    5  N1  UNL     1      25.543 -16.004   7.430  1.00  0.00    -0.360 N 
ATOM      6  H1  UNL     1      25.500 -16.949   7.049  1.00  0.00     0.165 HD
ENDROOT
BRANCH   1   7
HETATM    7  C1  UNL     1      28.046 -15.910   7.736  1.00  0.00     0.226 C 
HETATM    8  O1  UNL     1      29.007 -15.172   8.056  1.00  0.00    -0.643 OA
HETATM    9  O2  UNL     1      28.232 -17.219   7.320  1.00  0.00    -0.643 OA
ENDBRANCH   1   7
TORSDOF 1
ENDMDL
