MODEL 2
REMARK VINA RESULT: -5.475492006      0.149      1.164
REMARK  1 active torsions:
REMARK  status: ('A' for Active; 'I' for Inactive)
REMARK    1  A    between atoms: C1_2  and  C2_4 
ROOT
HETATM    1  C2  UNL     1      26.911 -15.160   7.902  1.00  0.00     0.109 A 
HETATM    2  C3  UNL     1      25.633 -15.683   7.867  1.00  0.00     0.038 A 
HETATM    3  C4  UNL     1      24.744 -14.642   8.061  1.00  0.00     0.019 A 
HETATM    4  C5  UNL     1      25.494 -13.488   8.213  1.00  0.00     0.088 A 
HETATM    5  N1  UNL     1      26.794 -13.832   8.112  1.00  0.00    -0.360 N 
ATOM      6  H1  UNL     1      27.576 -13.182   8.185  1.00  0.00     0.165 HD
ENDROOT
BRANCH   1   7
HETATM    7  C1  UNL     1      28.160 -15.920   7.738  1.00  0.00     0.226 C 
HETATM    8  O1  UNL     1      28.101 -17.138   7.446  1.00  0.00    -0.643 OA
HETATM    9  O2  UNL     1      29.369 -15.264   7.912  1.00  0.00    -0.643 OA
ENDBRANCH   1   7
TORSDOF 1
ENDMDL
