MODEL 1
REMARK VINA RESULT: -5.506731560      0.000      0.000
REMARK  1 active torsions:
REMARK  status: ('A' for Active; 'I' for Inactive)
REMARK    1  A    between atoms: C1_2  and  C2_4 
ROOT
HETATM    1  C2  UNL     1      26.959 -15.054   7.940  1.00  0.00     0.109 A 
HETATM    2  C3  UNL     1      25.661 -15.517   7.858  1.00  0.00     0.038 A 
HETATM    3  C4  UNL     1      24.813 -14.445   8.068  1.00  0.00     0.019 A 
HETATM    4  C5  UNL     1      25.609 -13.331   8.277  1.00  0.00     0.088 A 
HETATM    5  N1  UNL     1      26.894 -13.730   8.193  1.00  0.00    -0.360 N 
ATOM      6  H1  UNL     1      27.702 -13.118   8.306  1.00  0.00     0.165 HD
ENDROOT
BRANCH   1   7
HETATM    7  C1  UNL     1      28.177 -15.862   7.778  1.00  0.00     0.226 C 
HETATM    8  O1  UNL     1      29.296 -15.323   7.951  1.00  0.00    -0.643 OA
HETATM    9  O2  UNL     1      28.052 -17.199   7.436  1.00  0.00    -0.643 OA
ENDBRANCH   1   7
TORSDOF 1
ENDMDL
