MODEL 2
REMARK VINA RESULT: -5.389294626      1.676      2.661
REMARK  12 active torsions:
REMARK  status: ('A' for Active; 'I' for Inactive)
REMARK    1  A    between atoms: O1_1  and  C1_3 
REMARK    2  A    between atoms: C1_3  and  C2_4 
REMARK    3  A    between atoms: C3_6  and  O3_7 
REMARK    4  A    between atoms: O3_7  and  C4_8 
REMARK    5  A    between atoms: C5_9  and  C6_10 
REMARK    6  A    between atoms: C6_10  and  O4_11 
REMARK    7  A    between atoms: C7_14  and  O6_15 
REMARK    8  A    between atoms: C8_17  and  O7_18 
REMARK    9  A    between atoms: C9_20  and  O8_21 
REMARK   10  A    between atoms: C10_23  and  O9_24 
REMARK   11  A    between atoms: C11_26  and  O10_27 
REMARK   12  A    between atoms: C12_29  and  O11_30 
ROOT
HETATM    1  O3  UNL     1       0.818  56.611  26.669  1.00  0.00    -0.348 OA
ENDROOT
BRANCH   1   2
HETATM    2  C3  UNL     1       0.656  57.878  26.115  1.00  0.00     0.292 C 
HETATM    3  O2  UNL     1       1.809  58.628  26.150  1.00  0.00    -0.348 OA
HETATM    4  C2  UNL     1       1.755  59.534  25.095  1.00  0.00     0.179 C 
HETATM    5  C12 UNL     1       0.454  60.305  25.079  1.00  0.00     0.180 C 
HETATM    6  C11 UNL     1      -0.334  60.098  26.355  1.00  0.00     0.183 C 
HETATM    7  C10 UNL     1      -0.462  58.647  26.734  1.00  0.00     0.204 C 
BRANCH   4   8
HETATM    8  C1  UNL     1       2.956  60.451  25.077  1.00  0.00     0.198 C 
BRANCH   8   9
HETATM    9  O1  UNL     1       3.427  60.694  23.795  1.00  0.00    -0.398 OA
ATOM     10  H1  UNL     1       4.133  61.329  23.777  1.00  0.00     0.209 HD
ENDBRANCH   8   9
ENDBRANCH   4   8
BRANCH   5  11
HETATM   11  O11 UNL     1       0.785  61.666  25.035  1.00  0.00    -0.390 OA
ATOM     12  H11 UNL     1       1.492  61.800  25.656  1.00  0.00     0.210 HD
ENDBRANCH   5  11
BRANCH   6  13
HETATM   13  O10 UNL     1      -1.629  60.606  26.103  1.00  0.00    -0.390 OA
ATOM     14  H10 UNL     1      -1.876  60.367  25.218  1.00  0.00     0.210 HD
ENDBRANCH   6  13
BRANCH   7  15
HETATM   15  O9  UNL     1      -0.437  58.581  28.139  1.00  0.00    -0.388 OA
ATOM     16  H9  UNL     1      -1.184  59.017  28.532  1.00  0.00     0.210 HD
ENDBRANCH   7  15
ENDBRANCH   1   2
BRANCH   1  17
HETATM   17  C4  UNL     1       0.221  55.610  25.931  1.00  0.00     0.187 C 
HETATM   18  C5  UNL     1       0.557  54.276  26.551  1.00  0.00     0.180 C 
HETATM   19  O5  UNL     1       0.149  53.200  25.780  1.00  0.00    -0.349 OA
HETATM   20  C7  UNL     1       0.648  53.229  24.490  1.00  0.00     0.288 C 
HETATM   21  C8  UNL     1       0.295  54.506  23.762  1.00  0.00     0.204 C 
HETATM   22  C9  UNL     1       0.723  55.726  24.510  1.00  0.00     0.183 C 
BRANCH  18  23
HETATM   23  C6  UNL     1       2.030  54.193  26.914  1.00  0.00     0.198 C 
BRANCH  23  24
HETATM   24  O4  UNL     1       2.183  54.678  28.212  1.00  0.00    -0.398 OA
ATOM     25  H4  UNL     1       2.864  55.341  28.200  1.00  0.00     0.209 HD
ENDBRANCH  23  24
ENDBRANCH  18  23
BRANCH  20  26
HETATM   26  O6  UNL     1       0.064  52.177  23.785  1.00  0.00    -0.369 OA
ATOM     27  H6  UNL     1       0.763  51.676  23.382  1.00  0.00     0.212 HD
ENDBRANCH  20  26
BRANCH  21  28
HETATM   28  O7  UNL     1       0.904  54.457  22.511  1.00  0.00    -0.388 OA
ATOM     29  H7  UNL     1       0.222  54.552  21.857  1.00  0.00     0.210 HD
ENDBRANCH  21  28
BRANCH  22  30
HETATM   30  O8  UNL     1       2.074  55.985  24.439  1.00  0.00    -0.390 OA
ATOM     31  H8  UNL     1       2.571  55.256  24.087  1.00  0.00     0.210 HD
ENDBRANCH  22  30
ENDBRANCH   1  17
TORSDOF 12
ENDMDL
