MODEL 3
REMARK VINA RESULT: -5.354994774      1.684      2.878
REMARK  12 active torsions:
REMARK  status: ('A' for Active; 'I' for Inactive)
REMARK    1  A    between atoms: O1_1  and  C1_3 
REMARK    2  A    between atoms: C1_3  and  C2_4 
REMARK    3  A    between atoms: C3_6  and  O3_7 
REMARK    4  A    between atoms: O3_7  and  C4_8 
REMARK    5  A    between atoms: C5_9  and  C6_10 
REMARK    6  A    between atoms: C6_10  and  O4_11 
REMARK    7  A    between atoms: C7_14  and  O6_15 
REMARK    8  A    between atoms: C8_17  and  O7_18 
REMARK    9  A    between atoms: C9_20  and  O8_21 
REMARK   10  A    between atoms: C10_23  and  O9_24 
REMARK   11  A    between atoms: C11_26  and  O10_27 
REMARK   12  A    between atoms: C12_29  and  O11_30 
ROOT
HETATM    1  O3  UNL     1      -0.481  56.791  24.954  1.00  0.00    -0.348 OA
ENDROOT
BRANCH   1   2
HETATM    2  C3  UNL     1      -0.067  58.105  25.155  1.00  0.00     0.292 C 
HETATM    3  O2  UNL     1      -0.622  58.984  24.253  1.00  0.00    -0.348 OA
HETATM    4  C2  UNL     1      -0.679  60.234  24.863  1.00  0.00     0.179 C 
HETATM    5  C12 UNL     1       0.653  60.634  25.458  1.00  0.00     0.180 C 
HETATM    6  C11 UNL     1       1.766  59.712  25.006  1.00  0.00     0.183 C 
HETATM    7  C10 UNL     1       1.416  58.257  25.157  1.00  0.00     0.204 C 
BRANCH   4   8
HETATM    8  C1  UNL     1      -1.223  61.292  23.931  1.00  0.00     0.198 C 
BRANCH   8   9
HETATM    9  O1  UNL     1      -0.616  61.269  22.682  1.00  0.00    -0.398 OA
ATOM     10  H1  UNL     1      -1.228  61.081  21.981  1.00  0.00     0.209 HD
ENDBRANCH   8   9
ENDBRANCH   4   8
BRANCH   5  11
HETATM   11  O11 UNL     1       0.962  61.904  24.953  1.00  0.00    -0.390 OA
ATOM     12  H11 UNL     1       1.588  61.778  24.249  1.00  0.00     0.210 HD
ENDBRANCH   5  11
BRANCH   6  13
HETATM   13  O10 UNL     1       2.870  59.992  25.842  1.00  0.00    -0.390 OA
ATOM     14  H10 UNL     1       2.842  60.913  26.074  1.00  0.00     0.210 HD
ENDBRANCH   6  13
BRANCH   7  15
HETATM   15  O9  UNL     1       2.020  57.571  24.087  1.00  0.00    -0.388 OA
ATOM     16  H9  UNL     1       2.960  57.490  24.198  1.00  0.00     0.210 HD
ENDBRANCH   7  15
ENDBRANCH   1   2
BRANCH   1  17
HETATM   17  C4  UNL     1      -0.106  55.937  25.970  1.00  0.00     0.187 C 
HETATM   18  C5  UNL     1       0.767  54.847  25.398  1.00  0.00     0.180 C 
HETATM   19  O5  UNL     1       1.048  53.843  26.309  1.00  0.00    -0.349 OA
HETATM   20  C7  UNL     1      -0.083  53.265  26.857  1.00  0.00     0.288 C 
HETATM   21  C8  UNL     1      -0.986  54.279  27.521  1.00  0.00     0.204 C 
HETATM   22  C9  UNL     1      -1.367  55.392  26.602  1.00  0.00     0.183 C 
BRANCH  18  23
HETATM   23  C6  UNL     1       0.186  54.299  24.105  1.00  0.00     0.198 C 
BRANCH  23  24
HETATM   24  O4  UNL     1       0.559  55.154  23.068  1.00  0.00    -0.398 OA
ATOM     25  H4  UNL     1      -0.232  55.520  22.690  1.00  0.00     0.209 HD
ENDBRANCH  23  24
ENDBRANCH  18  23
BRANCH  20  26
HETATM   26  O6  UNL     1       0.331  52.372  27.845  1.00  0.00    -0.369 OA
ATOM     27  H6  UNL     1      -0.437  52.106  28.335  1.00  0.00     0.212 HD
ENDBRANCH  20  26
BRANCH  21  28
HETATM   28  O7  UNL     1      -2.117  53.602  27.969  1.00  0.00    -0.388 OA
ATOM     29  H7  UNL     1      -2.584  54.183  28.558  1.00  0.00     0.210 HD
ENDBRANCH  21  28
BRANCH  22  30
HETATM   30  O8  UNL     1      -2.327  55.053  25.673  1.00  0.00    -0.390 OA
ATOM     31  H8  UNL     1      -3.055  54.576  26.054  1.00  0.00     0.210 HD
ENDBRANCH  22  30
ENDBRANCH   1  17
TORSDOF 12
ENDMDL
