MODEL 1
REMARK VINA RESULT: -5.590834094      0.000      0.000
REMARK  12 active torsions:
REMARK  status: ('A' for Active; 'I' for Inactive)
REMARK    1  A    between atoms: O1_1  and  C1_3 
REMARK    2  A    between atoms: C1_3  and  C2_4 
REMARK    3  A    between atoms: C3_6  and  O3_7 
REMARK    4  A    between atoms: O3_7  and  C4_8 
REMARK    5  A    between atoms: C5_9  and  C6_10 
REMARK    6  A    between atoms: C6_10  and  O4_11 
REMARK    7  A    between atoms: C7_14  and  O6_15 
REMARK    8  A    between atoms: C8_17  and  O7_18 
REMARK    9  A    between atoms: C9_20  and  O8_21 
REMARK   10  A    between atoms: C10_23  and  O9_24 
REMARK   11  A    between atoms: C11_26  and  O10_27 
REMARK   12  A    between atoms: C12_29  and  O11_30 
ROOT
HETATM    1  O3  UNL     1       0.835  57.747  25.895  1.00  0.00    -0.348 OA
ENDROOT
BRANCH   1   2
HETATM    2  C3  UNL     1       0.566  59.087  25.627  1.00  0.00     0.292 C 
HETATM    3  O2  UNL     1      -0.254  59.259  24.535  1.00  0.00    -0.348 OA
HETATM    4  C2  UNL     1      -0.944  60.456  24.710  1.00  0.00     0.179 C 
HETATM    5  C12 UNL     1      -0.011  61.601  25.037  1.00  0.00     0.180 C 
HETATM    6  C11 UNL     1       1.438  61.221  24.822  1.00  0.00     0.183 C 
HETATM    7  C10 UNL     1       1.799  59.909  25.462  1.00  0.00     0.204 C 
BRANCH   4   8
HETATM    8  C1  UNL     1      -1.835  60.770  23.531  1.00  0.00     0.198 C 
BRANCH   8   9
HETATM    9  O1  UNL     1      -1.168  60.686  22.317  1.00  0.00    -0.398 OA
ATOM     10  H1  UNL     1      -1.155  61.511  21.848  1.00  0.00     0.209 HD
ENDBRANCH   8   9
ENDBRANCH   4   8
BRANCH   5  11
HETATM   11  O11 UNL     1      -0.290  62.628  24.125  1.00  0.00    -0.390 OA
ATOM     12  H11 UNL     1      -1.058  63.086  24.449  1.00  0.00     0.210 HD
ENDBRANCH   5  11
BRANCH   6  13
HETATM   13  O10 UNL     1       2.205  62.239  25.433  1.00  0.00    -0.390 OA
ATOM     14  H10 UNL     1       2.190  63.003  24.868  1.00  0.00     0.210 HD
ENDBRANCH   6  13
BRANCH   7  15
HETATM   15  O9  UNL     1       2.745  59.285  24.628  1.00  0.00    -0.388 OA
ATOM     16  H9  UNL     1       3.549  59.786  24.560  1.00  0.00     0.210 HD
ENDBRANCH   7  15
ENDBRANCH   1   2
BRANCH   1  17
HETATM   17  C4  UNL     1       0.107  56.875  25.112  1.00  0.00     0.187 C 
HETATM   18  C5  UNL     1      -0.760  56.022  26.004  1.00  0.00     0.180 C 
HETATM   19  O5  UNL     1      -1.396  54.997  25.323  1.00  0.00    -0.349 OA
HETATM   20  C7  UNL     1      -0.526  54.174  24.630  1.00  0.00     0.288 C 
HETATM   21  C8  UNL     1       0.337  54.939  23.653  1.00  0.00     0.204 C 
HETATM   22  C9  UNL     1       1.087  56.054  24.305  1.00  0.00     0.183 C 
BRANCH  18  23
HETATM   23  C6  UNL     1       0.020  55.512  27.204  1.00  0.00     0.198 C 
BRANCH  23  24
HETATM   24  O4  UNL     1      -0.115  56.443  28.234  1.00  0.00    -0.398 OA
ATOM     25  H4  UNL     1      -0.990  56.358  28.594  1.00  0.00     0.209 HD
ENDBRANCH  23  24
ENDBRANCH  18  23
BRANCH  20  26
HETATM   26  O6  UNL     1      -1.291  53.275  23.889  1.00  0.00    -0.369 OA
ATOM     27  H6  UNL     1      -0.698  52.772  23.342  1.00  0.00     0.212 HD
ENDBRANCH  20  26
BRANCH  21  28
HETATM   28  O7  UNL     1       1.215  54.030  23.069  1.00  0.00    -0.388 OA
ATOM     29  H7  UNL     1       2.069  54.444  23.027  1.00  0.00     0.210 HD
ENDBRANCH  21  28
BRANCH  22  30
HETATM   30  O8  UNL     1       2.176  55.645  25.042  1.00  0.00    -0.390 OA
ATOM     31  H8  UNL     1       2.884  55.315  24.501  1.00  0.00     0.210 HD
ENDBRANCH  22  30
ENDBRANCH   1  17
TORSDOF 12
ENDMDL
