MODEL 1
REMARK VINA RESULT: -8.796258163      0.000      0.000
REMARK  13 active torsions:
REMARK  status: ('A' for Active; 'I' for Inactive)
REMARK    1  A    between atoms: N3_4  and  C2_6 
REMARK    2  A    between atoms: C2_6  and  C3_7 
REMARK    3  A    between atoms: C3_7  and  C4_8 
REMARK    4  A    between atoms: C4_8  and  C5_9 
REMARK    5  A    between atoms: C5_9  and  N4_10 
REMARK    6  A    between atoms: C5_9  and  C13_25 
REMARK    7  A    between atoms: N4_10  and  S1_12 
REMARK    8  A    between atoms: S1_12  and  C6_15 
REMARK    9  A    between atoms: C10_19  and  C11_20 
REMARK       I    between atoms: C13_25  and  N5_27 
REMARK   10  A    between atoms: N6_30  and  C16_31 
REMARK   11  A    between atoms: C16_31  and  C17_32 
REMARK   12  A    between atoms: C17_32  and  C18_33 
REMARK   13  A    between atoms: C18_33  and  N7_34 
ROOT
HETATM    1  C5  UNL     1      17.614 -13.678  20.827  1.00  0.00     0.185 C 
ENDROOT
BRANCH   1   2
HETATM    2  C4  UNL     1      18.731 -12.853  20.323  1.00  0.00     0.037 C 
BRANCH   2   3
HETATM    3  C3  UNL     1      19.968 -13.545  19.938  1.00  0.00     0.022 C 
BRANCH   3   4
HETATM    4  C2  UNL     1      20.463 -13.328  18.542  1.00  0.00     0.122 C 
BRANCH   4   5
HETATM    5  N3  UNL     1      19.315 -13.611  17.653  1.00  0.00    -0.367 N 
HETATM    6  C1  UNL     1      19.456 -13.452  16.391  1.00  0.00     0.196 C 
HETATM    7  N1  UNL     1      20.705 -13.015  15.874  1.00  0.00    -0.067 NA
HETATM    8  N2  UNL     1      18.379 -13.718  15.508  1.00  0.00    -0.067 NA
ATOM      9  H3  UNL     1      18.425 -13.929  18.039  1.00  0.00     0.161 HD
ENDBRANCH   4   5
ENDBRANCH   3   4
ENDBRANCH   2   3
ENDBRANCH   1   2
BRANCH   1  10
HETATM   10  N4  UNL     1      18.058 -15.041  21.002  1.00  0.00    -0.302 N 
ATOM     11  H4  UNL     1      18.496 -15.592  20.264  1.00  0.00     0.173 HD
BRANCH  10  12
HETATM   12  S1  UNL     1      17.770 -15.631  22.582  1.00  0.00     0.259 S 
HETATM   13  O1  UNL     1      16.963 -14.654  23.351  1.00  0.00    -0.201 OA
HETATM   14  O2  UNL     1      17.006 -16.941  22.551  1.00  0.00    -0.201 OA
BRANCH  12  15
HETATM   15  C6  UNL     1      19.325 -15.815  23.379  1.00  0.00     0.080 A 
HETATM   16  C7  UNL     1      20.039 -16.965  23.037  1.00  0.00     0.025 A 
HETATM   17  C8  UNL     1      21.284 -17.238  23.574  1.00  0.00     0.002 A 
HETATM   18  C9  UNL     1      21.800 -16.347  24.456  1.00  0.00     0.016 A 
HETATM   19  C10 UNL     1      21.106 -15.180  24.820  1.00  0.00     0.049 A 
HETATM   20  C12 UNL     1      19.866 -14.939  24.266  1.00  0.00     0.041 A 
BRANCH  19  21
HETATM   21  C11 UNL     1      21.777 -14.301  25.790  1.00  0.00     0.417 C 
HETATM   22  F1  UNL     1      22.122 -15.044  26.892  1.00  0.00    -0.166 F 
HETATM   23  F2  UNL     1      22.976 -13.897  25.189  1.00  0.00    -0.166 F 
HETATM   24  F3  UNL     1      21.043 -13.191  26.090  1.00  0.00    -0.166 F 
ENDBRANCH  19  21
ENDBRANCH  12  15
ENDBRANCH  10  12
ENDBRANCH   1  10
BRANCH   1  25
HETATM   25  C13 UNL     1      16.498 -13.607  19.825  1.00  0.00     0.243 C 
HETATM   26  O3  UNL     1      16.683 -13.874  18.635  1.00  0.00    -0.271 OA
HETATM   27  N5  UNL     1      15.208 -13.226  20.270  1.00  0.00    -0.347 N 
HETATM   28  C14 UNL     1      14.116 -13.080  19.320  1.00  0.00     0.156 C 
HETATM   29  C20 UNL     1      14.872 -12.990  21.660  1.00  0.00     0.156 C 
HETATM   30  C15 UNL     1      12.861 -12.764  20.091  1.00  0.00     0.292 C 
HETATM   31  N6  UNL     1      13.103 -11.518  20.813  1.00  0.00     0.091 N 
HETATM   32  C19 UNL     1      14.186 -11.657  21.754  1.00  0.00     0.292 C 
BRANCH  31  33
HETATM   33  C16 UNL     1      11.889 -11.142  21.526  1.00  0.00     0.274 C 
BRANCH  33  34
HETATM   34  C17 UNL     1      12.275 -10.767  22.919  1.00  0.00     0.057 C 
BRANCH  34  35
HETATM   35  C18 UNL     1      11.456 -11.409  23.980  1.00  0.00     0.231 C 
BRANCH  35  36
HETATM   36  N7  UNL     1      10.840 -12.626  23.518  1.00  0.00    -0.079 N 
ATOM     37  H73 UNL     1      10.362 -12.486  22.628  1.00  0.00     0.274 HD
ATOM     38  H72 UNL     1      11.540 -13.306  23.218  1.00  0.00     0.274 HD
ATOM     39  H71 UNL     1      10.213 -13.023  24.218  1.00  0.00     0.274 HD
ENDBRANCH  35  36
ENDBRANCH  34  35
ENDBRANCH  33  34
ENDBRANCH  31  33
ENDBRANCH   1  25
TORSDOF 13
ENDMDL
