MODEL 3
REMARK VINA RESULT: -8.534753231      0.990      1.545
REMARK  13 active torsions:
REMARK  status: ('A' for Active; 'I' for Inactive)
REMARK    1  A    between atoms: N3_4  and  C2_6 
REMARK    2  A    between atoms: C2_6  and  C3_7 
REMARK    3  A    between atoms: C3_7  and  C4_8 
REMARK    4  A    between atoms: C4_8  and  C5_9 
REMARK    5  A    between atoms: C5_9  and  N4_10 
REMARK    6  A    between atoms: C5_9  and  C13_25 
REMARK    7  A    between atoms: N4_10  and  S1_12 
REMARK    8  A    between atoms: S1_12  and  C6_15 
REMARK    9  A    between atoms: C10_19  and  C11_20 
REMARK       I    between atoms: C13_25  and  N5_27 
REMARK   10  A    between atoms: N6_30  and  C16_31 
REMARK   11  A    between atoms: C16_31  and  C17_32 
REMARK   12  A    between atoms: C17_32  and  C18_33 
REMARK   13  A    between atoms: C18_33  and  N7_34 
ROOT
HETATM    1  C5  UNL     1      17.676 -14.242  20.520  1.00  0.00     0.185 C 
ENDROOT
BRANCH   1   2
HETATM    2  C4  UNL     1      18.699 -13.195  20.321  1.00  0.00     0.037 C 
BRANCH   2   3
HETATM    3  C3  UNL     1      20.033 -13.623  19.880  1.00  0.00     0.022 C 
BRANCH   3   4
HETATM    4  C2  UNL     1      20.469 -13.192  18.514  1.00  0.00     0.122 C 
BRANCH   4   5
HETATM    5  N3  UNL     1      19.379 -13.585  17.594  1.00  0.00    -0.367 N 
HETATM    6  C1  UNL     1      19.546 -13.429  16.335  1.00  0.00     0.196 C 
HETATM    7  N1  UNL     1      20.769 -12.893  15.850  1.00  0.00    -0.067 NA
HETATM    8  N2  UNL     1      18.525 -13.799  15.423  1.00  0.00    -0.067 NA
ATOM      9  H3  UNL     1      18.508 -13.973  17.957  1.00  0.00     0.161 HD
ENDBRANCH   4   5
ENDBRANCH   3   4
ENDBRANCH   2   3
ENDBRANCH   1   2
BRANCH   1  10
HETATM   10  N4  UNL     1      18.258 -15.541  20.279  1.00  0.00    -0.302 N 
ATOM     11  H4  UNL     1      18.739 -15.794  19.416  1.00  0.00     0.173 HD
BRANCH  10  12
HETATM   12  S1  UNL     1      18.054 -16.611  21.598  1.00  0.00     0.259 S 
HETATM   13  O1  UNL     1      16.629 -16.654  22.002  1.00  0.00    -0.201 OA
HETATM   14  O2  UNL     1      18.476 -18.022  21.235  1.00  0.00    -0.201 OA
BRANCH  12  15
HETATM   15  C6  UNL     1      18.994 -15.988  22.946  1.00  0.00     0.080 A 
HETATM   16  C7  UNL     1      18.261 -15.682  24.094  1.00  0.00     0.025 A 
HETATM   17  C8  UNL     1      18.867 -15.195  25.238  1.00  0.00     0.002 A 
HETATM   18  C9  UNL     1      20.210 -15.018  25.215  1.00  0.00     0.016 A 
HETATM   19  C10 UNL     1      20.976 -15.317  24.074  1.00  0.00     0.049 A 
HETATM   20  C12 UNL     1      20.340 -15.801  22.950  1.00  0.00     0.041 A 
BRANCH  19  21
HETATM   21  C11 UNL     1      22.423 -15.076  24.180  1.00  0.00     0.417 C 
HETATM   22  F1  UNL     1      22.828 -14.350  23.086  1.00  0.00    -0.166 F 
HETATM   23  F2  UNL     1      22.602 -14.249  25.297  1.00  0.00    -0.166 F 
HETATM   24  F3  UNL     1      23.136 -16.224  24.366  1.00  0.00    -0.166 F 
ENDBRANCH  19  21
ENDBRANCH  12  15
ENDBRANCH  10  12
ENDBRANCH   1  10
BRANCH   1  25
HETATM   25  C13 UNL     1      16.551 -13.977  19.561  1.00  0.00     0.243 C 
HETATM   26  O3  UNL     1      16.694 -14.124  18.345  1.00  0.00    -0.271 OA
HETATM   27  N5  UNL     1      15.302 -13.553  20.078  1.00  0.00    -0.347 N 
HETATM   28  C14 UNL     1      14.208 -13.221  19.178  1.00  0.00     0.156 C 
HETATM   29  C20 UNL     1      15.010 -13.448  21.494  1.00  0.00     0.156 C 
HETATM   30  C15 UNL     1      12.995 -12.900  20.013  1.00  0.00     0.292 C 
HETATM   31  N6  UNL     1      13.345 -11.764  20.860  1.00  0.00     0.091 N 
HETATM   32  C19 UNL     1      14.431 -12.086  21.750  1.00  0.00     0.292 C 
BRANCH  31  33
HETATM   33  C16 UNL     1      12.177 -11.379  21.640  1.00  0.00     0.274 C 
BRANCH  33  34
HETATM   34  C17 UNL     1      12.652 -10.595  22.819  1.00  0.00     0.057 C 
BRANCH  34  35
HETATM   35  C18 UNL     1      11.671 -10.495  23.930  1.00  0.00     0.231 C 
BRANCH  35  36
HETATM   36  N7  UNL     1      10.873 -11.688  24.049  1.00  0.00    -0.079 N 
ATOM     37  H73 UNL     1      10.725 -12.127  23.141  1.00  0.00     0.274 HD
ATOM     38  H72 UNL     1      11.392 -12.438  24.506  1.00  0.00     0.274 HD
ATOM     39  H71 UNL     1       9.988 -11.506  24.523  1.00  0.00     0.274 HD
ENDBRANCH  35  36
ENDBRANCH  34  35
ENDBRANCH  33  34
ENDBRANCH  31  33
ENDBRANCH   1  25
TORSDOF 13
ENDMDL
