MODEL 3
REMARK VINA RESULT: -7.716554118      2.551      6.634
REMARK  6 active torsions:
REMARK  status: ('A' for Active; 'I' for Inactive)
REMARK    1  A    between atoms: O1_2  and  C2_3 
REMARK    2  A    between atoms: C7_8  and  C8_9 
REMARK    3  A    between atoms: C17_20  and  O4_21 
REMARK    4  A    between atoms: C23_29  and  O6_30 
REMARK    5  A    between atoms: C27_34  and  O7_35 
REMARK    6  A    between atoms: C28_37  and  O8_38 
ROOT
HETATM    1  C2  UNL     1       8.749  26.931 115.468  1.00  0.00     0.153 C 
HETATM    2  C3  UNL     1       9.758  26.054 116.175  1.00  0.00     0.035 C 
HETATM    3  C4  UNL     1      10.049  26.656 117.537  1.00  0.00     0.003 C 
HETATM    4  C5  UNL     1      11.064  25.791 118.248  1.00  0.00     0.003 C 
HETATM    5  C6  UNL     1      12.179  26.633 118.759  1.00  0.00     0.037 C 
HETATM    6  C7  UNL     1      13.554  26.037 118.373  1.00  0.00     0.165 C 
HETATM    7  O2  UNL     1      13.511  25.889 117.036  1.00  0.00    -0.311 OA
HETATM    8  C14 UNL     1      13.797  26.389 115.855  1.00  0.00     0.268 C 
HETATM    9  O3  UNL     1      13.470  27.492 115.306  1.00  0.00    -0.265 OA
HETATM   10  C15 UNL     1      14.668  25.578 114.910  1.00  0.00     0.146 C 
HETATM   11  C16 UNL     1      14.551  24.106 115.250  1.00  0.00     0.026 C 
HETATM   12  C17 UNL     1      14.220  25.754 113.487  1.00  0.00     0.203 C 
HETATM   13  O5  UNL     1      12.870  26.060 113.381  1.00  0.00    -0.346 OA
HETATM   14  C18 UNL     1      12.417  25.790 112.090  1.00  0.00     0.138 C 
HETATM   15  C19 UNL     1      10.929  25.998 112.112  1.00  0.00     0.033 C 
HETATM   16  C20 UNL     1      10.287  25.853 110.760  1.00  0.00     0.017 C 
HETATM   17  C21 UNL     1      10.340  24.966 113.013  1.00  0.00    -0.021 C 
HETATM   18  C22 UNL     1       9.332  25.181 113.845  1.00  0.00     0.004 C 
HETATM   19  C23 UNL     1       8.614  26.444 114.041  1.00  0.00     0.172 C 
HETATM   20  C25 UNL     1      13.122  26.616 111.050  1.00  0.00     0.043 C 
HETATM   21  C26 UNL     1      12.629  28.028 110.956  1.00  0.00     0.015 C 
HETATM   22  C27 UNL     1      14.601  26.587 111.249  1.00  0.00     0.158 C 
HETATM   23  C28 UNL     1      14.990  26.787 112.723  1.00  0.00     0.212 C 
ENDROOT
BRANCH   6  24
HETATM   24  C8  UNL     1      13.851  24.849 119.182  1.00  0.00    -0.029 A 
HETATM   25  C9  UNL     1      14.435  24.942 120.416  1.00  0.00     0.010 A 
HETATM   26  C10 UNL     1      14.707  23.784 121.157  1.00  0.00     0.001 A 
HETATM   27  C11 UNL     1      14.388  22.543 120.648  1.00  0.00     0.000 A 
HETATM   28  C12 UNL     1      13.805  22.459 119.413  1.00  0.00     0.001 A 
HETATM   29  C13 UNL     1      13.548  23.606 118.706  1.00  0.00     0.010 A 
ENDBRANCH   6  24
BRANCH  12  30
HETATM   30  O4  UNL     1      14.420  24.541 112.831  1.00  0.00    -0.362 OA
ATOM     31  H4  UNL     1      14.005  24.605 111.979  1.00  0.00     0.213 HD
ENDBRANCH  12  30
BRANCH   1  32
HETATM   32  O1  UNL     1       7.539  26.822 116.158  1.00  0.00    -0.388 OA
HETATM   33  C1  UNL     1       7.067  28.083 116.507  1.00  0.00     0.202 C 
ENDBRANCH   1  32
BRANCH  23  34
HETATM   34  O8  UNL     1      14.597  28.094 113.003  1.00  0.00    -0.383 OA
HETATM   35  C29 UNL     1      15.588  29.014 112.653  1.00  0.00     0.202 C 
ENDBRANCH  23  34
BRANCH  19  36
HETATM   36  O6  UNL     1       7.237  26.311 113.775  1.00  0.00    -0.384 OA
HETATM   37  C24 UNL     1       6.859  26.941 112.604  1.00  0.00     0.202 C 
ENDBRANCH  19  36
BRANCH  22  38
HETATM   38  O7  UNL     1      15.204  25.447 110.730  1.00  0.00    -0.392 OA
ATOM     39  H7  UNL     1      16.057  25.615 110.345  1.00  0.00     0.210 HD
ENDBRANCH  22  38
TORSDOF 6
ENDMDL
