MODEL 2
REMARK VINA RESULT: -8.690148650      0.734      1.074
REMARK  6 active torsions:
REMARK  status: ('A' for Active; 'I' for Inactive)
REMARK    1  A    between atoms: O1_2  and  C2_3 
REMARK    2  A    between atoms: C7_8  and  C8_9 
REMARK    3  A    between atoms: C17_20  and  O4_21 
REMARK    4  A    between atoms: C23_29  and  O6_30 
REMARK    5  A    between atoms: C27_34  and  O7_35 
REMARK    6  A    between atoms: C28_37  and  O8_38 
ROOT
HETATM    1  C2  UNL     1      14.667  26.847 113.364  1.00  0.00     0.153 C 
HETATM    2  C3  UNL     1      13.448  27.348 114.105  1.00  0.00     0.035 C 
HETATM    3  C4  UNL     1      13.880  28.458 115.046  1.00  0.00     0.003 C 
HETATM    4  C5  UNL     1      12.668  28.959 115.799  1.00  0.00     0.003 C 
HETATM    5  C6  UNL     1      12.955  28.986 117.258  1.00  0.00     0.037 C 
HETATM    6  C7  UNL     1      11.822  28.306 118.064  1.00  0.00     0.165 C 
HETATM    7  O2  UNL     1      11.694  27.079 117.526  1.00  0.00    -0.311 OA
HETATM    8  C14 UNL     1      12.012  25.806 117.582  1.00  0.00     0.268 C 
HETATM    9  O3  UNL     1      13.144  25.219 117.566  1.00  0.00    -0.265 OA
HETATM   10  C15 UNL     1      10.897  24.779 117.685  1.00  0.00     0.146 C 
HETATM   11  C16 UNL     1       9.621  25.354 117.105  1.00  0.00     0.026 C 
HETATM   12  C17 UNL     1      11.236  23.541 116.904  1.00  0.00     0.203 C 
HETATM   13  O5  UNL     1      12.091  23.793 115.839  1.00  0.00    -0.346 OA
HETATM   14  C18 UNL     1      12.030  22.749 114.918  1.00  0.00     0.138 C 
HETATM   15  C19 UNL     1      12.858  23.177 113.739  1.00  0.00     0.033 C 
HETATM   16  C20 UNL     1      12.990  22.112 112.686  1.00  0.00     0.017 C 
HETATM   17  C21 UNL     1      12.187  24.355 113.119  1.00  0.00    -0.021 C 
HETATM   18  C22 UNL     1      12.821  25.406 112.620  1.00  0.00     0.004 C 
HETATM   19  C23 UNL     1      14.273  25.613 112.580  1.00  0.00     0.172 C 
HETATM   20  C25 UNL     1      12.464  21.436 115.508  1.00  0.00     0.043 C 
HETATM   21  C26 UNL     1      13.949  21.281 115.626  1.00  0.00     0.015 C 
HETATM   22  C27 UNL     1      11.803  21.192 116.825  1.00  0.00     0.158 C 
HETATM   23  C28 UNL     1      11.830  22.439 117.725  1.00  0.00     0.212 C 
ENDROOT
BRANCH   6  24
HETATM   24  C8  UNL     1      10.629  29.160 118.107  1.00  0.00    -0.029 A 
HETATM   25  C9  UNL     1      10.718  30.525 118.166  1.00  0.00     0.010 A 
HETATM   26  C10 UNL     1       9.555  31.306 118.210  1.00  0.00     0.001 A 
HETATM   27  C11 UNL     1       8.314  30.706 118.193  1.00  0.00     0.000 A 
HETATM   28  C12 UNL     1       8.234  29.342 118.133  1.00  0.00     0.001 A 
HETATM   29  C13 UNL     1       9.385  28.596 118.092  1.00  0.00     0.010 A 
ENDBRANCH   6  24
BRANCH  12  30
HETATM   30  O4  UNL     1      10.048  23.045 116.369  1.00  0.00    -0.362 OA
ATOM     31  H4  UNL     1       9.856  22.226 116.811  1.00  0.00     0.213 HD
ENDBRANCH  12  30
BRANCH   1  32
HETATM   32  O1  UNL     1      15.095  27.871 112.515  1.00  0.00    -0.388 OA
HETATM   33  C1  UNL     1      16.428  28.182 112.767  1.00  0.00     0.202 C 
ENDBRANCH   1  32
BRANCH  23  34
HETATM   34  O8  UNL     1      13.182  22.622 118.009  1.00  0.00    -0.383 OA
HETATM   35  C29 UNL     1      13.515  22.120 119.269  1.00  0.00     0.202 C 
ENDBRANCH  23  34
BRANCH  19  36
HETATM   36  O6  UNL     1      14.742  25.788 111.263  1.00  0.00    -0.384 OA
HETATM   37  C24 UNL     1      14.810  24.599 110.562  1.00  0.00     0.202 C 
ENDBRANCH  19  36
BRANCH  22  38
HETATM   38  O7  UNL     1      10.511  20.695 116.709  1.00  0.00    -0.392 OA
ATOM     39  H7  UNL     1       9.994  20.802 117.500  1.00  0.00     0.210 HD
ENDBRANCH  22  38
TORSDOF 6
ENDMDL
