MODEL 1
REMARK VINA RESULT: -9.104879067      0.000      0.000
REMARK  6 active torsions:
REMARK  status: ('A' for Active; 'I' for Inactive)
REMARK    1  A    between atoms: O1_2  and  C2_3 
REMARK    2  A    between atoms: C7_8  and  C8_9 
REMARK    3  A    between atoms: C17_20  and  O4_21 
REMARK    4  A    between atoms: C23_29  and  O6_30 
REMARK    5  A    between atoms: C27_34  and  O7_35 
REMARK    6  A    between atoms: C28_37  and  O8_38 
ROOT
HETATM    1  C2  UNL     1      14.852  27.200 113.697  1.00  0.00     0.153 C 
HETATM    2  C3  UNL     1      13.557  27.563 114.388  1.00  0.00     0.035 C 
HETATM    3  C4  UNL     1      13.803  28.782 115.259  1.00  0.00     0.003 C 
HETATM    4  C5  UNL     1      12.515  29.148 115.962  1.00  0.00     0.003 C 
HETATM    5  C6  UNL     1      12.762  29.309 117.420  1.00  0.00     0.037 C 
HETATM    6  C7  UNL     1      11.721  28.524 118.253  1.00  0.00     0.165 C 
HETATM    7  O2  UNL     1      11.783  27.260 117.795  1.00  0.00    -0.311 OA
HETATM    8  C14 UNL     1      12.280  26.052 117.939  1.00  0.00     0.268 C 
HETATM    9  O3  UNL     1      13.484  25.635 117.976  1.00  0.00    -0.265 OA
HETATM   10  C15 UNL     1      11.322  24.883 118.095  1.00  0.00     0.146 C 
HETATM   11  C16 UNL     1       9.991  25.229 117.462  1.00  0.00     0.026 C 
HETATM   12  C17 UNL     1      11.853  23.661 117.401  1.00  0.00     0.203 C 
HETATM   13  O5  UNL     1      12.687  23.966 116.334  1.00  0.00    -0.346 OA
HETATM   14  C18 UNL     1      12.798  22.868 115.482  1.00  0.00     0.138 C 
HETATM   15  C19 UNL     1      13.582  23.336 114.288  1.00  0.00     0.033 C 
HETATM   16  C20 UNL     1      13.890  22.237 113.310  1.00  0.00     0.017 C 
HETATM   17  C21 UNL     1      12.763  24.363 113.583  1.00  0.00    -0.021 C 
HETATM   18  C22 UNL     1      13.251  25.462 113.025  1.00  0.00     0.004 C 
HETATM   19  C23 UNL     1      14.658  25.874 112.991  1.00  0.00     0.172 C 
HETATM   20  C25 UNL     1      13.403  21.672 116.163  1.00  0.00     0.043 C 
HETATM   21  C26 UNL     1      14.892  21.742 116.310  1.00  0.00     0.015 C 
HETATM   22  C27 UNL     1      12.754  21.418 117.484  1.00  0.00     0.158 C 
HETATM   23  C28 UNL     1      12.581  22.710 118.300  1.00  0.00     0.212 C 
ENDROOT
BRANCH   6  24
HETATM   24  C8  UNL     1      10.417  29.197 118.224  1.00  0.00    -0.029 A 
HETATM   25  C9  UNL     1       9.243  28.496 118.174  1.00  0.00     0.010 A 
HETATM   26  C10 UNL     1       8.017  29.175 118.143  1.00  0.00     0.001 A 
HETATM   27  C11 UNL     1       7.986  30.553 118.162  1.00  0.00     0.000 A 
HETATM   28  C12 UNL     1       9.164  31.246 118.212  1.00  0.00     0.001 A 
HETATM   29  C13 UNL     1      10.352  30.561 118.241  1.00  0.00     0.010 A 
ENDBRANCH   6  24
BRANCH  12  30
HETATM   30  O4  UNL     1      10.762  22.965 116.884  1.00  0.00    -0.362 OA
ATOM     31  H4  UNL     1      10.627  23.266 115.994  1.00  0.00     0.213 HD
ENDBRANCH  12  30
BRANCH   1  32
HETATM   32  O1  UNL     1      15.148  28.219 112.789  1.00  0.00    -0.388 OA
HETATM   33  C1  UNL     1      16.512  28.492 112.795  1.00  0.00     0.202 C 
ENDBRANCH   1  32
BRANCH  23  34
HETATM   34  O8  UNL     1      13.886  23.106 118.590  1.00  0.00    -0.383 OA
HETATM   35  C29 UNL     1      14.262  22.730 119.881  1.00  0.00     0.202 C 
ENDBRANCH  23  34
BRANCH  19  36
HETATM   36  O6  UNL     1      15.126  26.032 111.672  1.00  0.00    -0.384 OA
HETATM   37  C24 UNL     1      15.762  24.901 111.196  1.00  0.00     0.202 C 
ENDBRANCH  19  36
BRANCH  22  38
HETATM   38  O7  UNL     1      11.550  20.733 117.384  1.00  0.00    -0.392 OA
ATOM     39  H7  UNL     1      10.878  21.064 117.969  1.00  0.00     0.210 HD
ENDBRANCH  22  38
TORSDOF 6
ENDMDL
