MODEL 1
REMARK VINA RESULT: -6.973398888      0.000      0.000
REMARK  13 active torsions:
REMARK  status: ('A' for Active; 'I' for Inactive)
REMARK    1  A    between atoms: C4_6  and  C5_7 
REMARK    2  A    between atoms: C5_7  and  O1_8 
REMARK    3  A    between atoms: O1_8  and  P1_9 
REMARK    4  A    between atoms: C6_13  and  C7_14 
REMARK    5  A    between atoms: C7_14  and  N2_15 
REMARK    6  A    between atoms: N2_15  and  C8_17 
REMARK    7  A    between atoms: C8_17  and  C9_18 
REMARK    8  A    between atoms: C8_17  and  C13_26 
REMARK    9  A    between atoms: C9_18  and  C10_19 
REMARK   10  A    between atoms: C10_19  and  C11_20 
REMARK   11  A    between atoms: C11_20  and  C12_21 
REMARK   12  A    between atoms: C12_21  and  N3_22 
REMARK   13  A    between atoms: C14_29  and  O7_30 
ROOT
HETATM    1  C1  UNL     1      47.390  43.920  67.804  1.00  0.00     0.071 C 
HETATM    2  C2  UNL     1      46.822  45.191  68.334  1.00  0.00     0.039 A 
HETATM    3  N1  UNL     1      45.506  45.352  68.499  1.00  0.00    -0.367 N 
ATOM      4  H1  UNL     1      44.868  44.593  68.258  1.00  0.00     0.165 HD
HETATM    5  C3  UNL     1      45.013  46.523  68.985  1.00  0.00     0.098 A 
HETATM    6  C4  UNL     1      45.821  47.567  69.321  1.00  0.00    -0.008 A 
HETATM    7  C6  UNL     1      47.208  47.412  69.151  1.00  0.00     0.004 A 
HETATM    8  C14 UNL     1      47.688  46.242  68.666  1.00  0.00     0.096 A 
ENDROOT
BRANCH   7   9
HETATM    9  C7  UNL     1      48.066  48.524  69.528  1.00  0.00     0.157 C 
BRANCH   9  10
HETATM   10  N2  UNL     1      48.799  49.139  68.475  1.00  0.00    -0.404 N 
ATOM     11  H2  UNL     1      48.345  49.485  67.629  1.00  0.00     0.154 HD
BRANCH  10  12
HETATM   12  C8  UNL     1      50.229  49.244  68.679  1.00  0.00     0.178 C 
BRANCH  12  13
HETATM   13  C9  UNL     1      50.564  48.779  70.048  1.00  0.00     0.036 C 
BRANCH  13  14
HETATM   14  C10 UNL     1      52.044  48.633  70.314  1.00  0.00     0.004 C 
BRANCH  14  15
HETATM   15  C11 UNL     1      52.256  47.227  70.892  1.00  0.00     0.027 C 
BRANCH  15  16
HETATM   16  C12 UNL     1      53.067  46.378  69.940  1.00  0.00     0.229 C 
BRANCH  16  17
HETATM   17  N3  UNL     1      53.838  47.183  69.027  1.00  0.00    -0.079 N 
ATOM     18  H33 UNL     1      53.574  48.166  69.088  1.00  0.00     0.274 HD
ATOM     19  H32 UNL     1      54.809  47.258  69.329  1.00  0.00     0.274 HD
ATOM     20  H31 UNL     1      53.772  46.840  68.070  1.00  0.00     0.274 HD
ENDBRANCH  16  17
ENDBRANCH  15  16
ENDBRANCH  14  15
ENDBRANCH  13  14
ENDBRANCH  12  13
BRANCH  12  21
HETATM   21  C13 UNL     1      51.016  48.696  67.582  1.00  0.00     0.196 C 
HETATM   22  O5  UNL     1      51.031  47.436  67.352  1.00  0.00    -0.646 OA
HETATM   23  O6  UNL     1      51.802  49.423  66.701  1.00  0.00    -0.646 OA
ENDBRANCH  12  21
ENDBRANCH  10  12
ENDBRANCH   9  10
ENDBRANCH   7   9
BRANCH   6  24
HETATM   24  C5  UNL     1      45.290  48.844  69.791  1.00  0.00     0.223 C 
BRANCH  24  25
HETATM   25  O1  UNL     1      43.934  48.812  69.980  1.00  0.00    -0.278 OA
BRANCH  25  26
HETATM   26  P1  UNL     1      43.425  49.027  71.568  1.00  0.00     0.422 P 
HETATM   27  O2  UNL     1      43.561  47.804  72.410  1.00  0.00    -0.617 OA
HETATM   28  O3  UNL     1      41.872  49.686  71.545  1.00  0.00    -0.617 OA
HETATM   29  O4  UNL     1      44.421  50.248  72.264  1.00  0.00    -0.617 OA
ENDBRANCH  25  26
ENDBRANCH  24  25
ENDBRANCH   6  24
BRANCH   8  30
HETATM   30  O7  UNL     1      49.029  46.022  68.476  1.00  0.00    -0.358 OA
ATOM     31  H7  UNL     1      49.284  45.619  67.655  1.00  0.00     0.217 HD
ENDBRANCH   8  30
TORSDOF 13
ENDMDL
