MODEL 18
REMARK VINA RESULT: -5.656871781      2.945      6.743
REMARK  13 active torsions:
REMARK  status: ('A' for Active; 'I' for Inactive)
REMARK    1  A    between atoms: C4_6  and  C5_7 
REMARK    2  A    between atoms: C5_7  and  O1_8 
REMARK    3  A    between atoms: O1_8  and  P1_9 
REMARK    4  A    between atoms: C6_13  and  C7_14 
REMARK    5  A    between atoms: C7_14  and  N2_15 
REMARK    6  A    between atoms: N2_15  and  C8_17 
REMARK    7  A    between atoms: C8_17  and  C9_18 
REMARK    8  A    between atoms: C8_17  and  C13_26 
REMARK    9  A    between atoms: C9_18  and  C10_19 
REMARK   10  A    between atoms: C10_19  and  C11_20 
REMARK   11  A    between atoms: C11_20  and  C12_21 
REMARK   12  A    between atoms: C12_21  and  N3_22 
REMARK   13  A    between atoms: C14_29  and  O7_30 
ROOT
HETATM    1  C1  UNL     1      43.970  45.728  68.653  1.00  0.00     0.071 C 
HETATM    2  C2  UNL     1      45.414  46.090  68.689  1.00  0.00     0.039 A 
HETATM    3  N1  UNL     1      46.365  45.196  68.401  1.00  0.00    -0.367 N 
ATOM      4  H1  UNL     1      46.105  44.242  68.150  1.00  0.00     0.165 HD
HETATM    5  C3  UNL     1      47.678  45.552  68.439  1.00  0.00     0.098 A 
HETATM    6  C4  UNL     1      48.078  46.813  68.768  1.00  0.00    -0.008 A 
HETATM    7  C6  UNL     1      47.088  47.762  69.075  1.00  0.00     0.004 A 
HETATM    8  C14 UNL     1      45.785  47.397  69.033  1.00  0.00     0.096 A 
ENDROOT
BRANCH   7   9
HETATM    9  C7  UNL     1      47.522  49.111  69.407  1.00  0.00     0.157 C 
BRANCH   9  10
HETATM   10  N2  UNL     1      47.825  49.356  70.776  1.00  0.00    -0.404 N 
ATOM     11  H2  UNL     1      48.626  48.925  71.239  1.00  0.00     0.154 HD
BRANCH  10  12
HETATM   12  C8  UNL     1      46.926  50.254  71.470  1.00  0.00     0.178 C 
BRANCH  12  13
HETATM   13  C9  UNL     1      46.228  51.111  70.479  1.00  0.00     0.036 C 
BRANCH  13  14
HETATM   14  C10 UNL     1      45.147  51.990  71.064  1.00  0.00     0.004 C 
BRANCH  14  15
HETATM   15  C11 UNL     1      43.887  51.770  70.215  1.00  0.00     0.027 C 
BRANCH  15  16
HETATM   16  C12 UNL     1      42.819  51.067  71.021  1.00  0.00     0.229 C 
BRANCH  16  17
HETATM   17  N3  UNL     1      42.758  49.660  70.717  1.00  0.00    -0.079 N 
ATOM     18  H33 UNL     1      42.685  49.100  71.567  1.00  0.00     0.274 HD
ATOM     19  H32 UNL     1      41.868  49.413  70.285  1.00  0.00     0.274 HD
ATOM     20  H31 UNL     1      43.546  49.361  70.143  1.00  0.00     0.274 HD
ENDBRANCH  16  17
ENDBRANCH  15  16
ENDBRANCH  14  15
ENDBRANCH  13  14
ENDBRANCH  12  13
BRANCH  12  21
HETATM   21  C13 UNL     1      46.101  49.594  72.473  1.00  0.00     0.196 C 
HETATM   22  O5  UNL     1      45.239  48.708  72.132  1.00  0.00    -0.646 OA
HETATM   23  O6  UNL     1      46.138  49.824  73.839  1.00  0.00    -0.646 OA
ENDBRANCH  12  21
ENDBRANCH  10  12
ENDBRANCH   9  10
ENDBRANCH   7   9
BRANCH   6  24
HETATM   24  C5  UNL     1      49.488  47.182  68.864  1.00  0.00     0.223 C 
BRANCH  24  25
HETATM   25  O1  UNL     1      50.033  47.496  67.649  1.00  0.00    -0.278 OA
BRANCH  25  26
HETATM   26  P1  UNL     1      51.316  48.583  67.696  1.00  0.00     0.422 P 
HETATM   27  O2  UNL     1      52.594  47.979  68.171  1.00  0.00    -0.617 OA
HETATM   28  O3  UNL     1      50.828  49.946  68.562  1.00  0.00    -0.617 OA
HETATM   29  O4  UNL     1      51.573  49.141  66.087  1.00  0.00    -0.617 OA
ENDBRANCH  25  26
ENDBRANCH  24  25
ENDBRANCH   6  24
BRANCH   8  30
HETATM   30  O7  UNL     1      44.768  48.273  69.319  1.00  0.00    -0.358 OA
ATOM     31  H7  UNL     1      44.802  49.122  68.894  1.00  0.00     0.217 HD
ENDBRANCH   8  30
TORSDOF 13
ENDMDL
