MODEL 2
REMARK VINA RESULT: -6.931441632      0.138      1.109
REMARK  13 active torsions:
REMARK  status: ('A' for Active; 'I' for Inactive)
REMARK    1  A    between atoms: C4_6  and  C5_7 
REMARK    2  A    between atoms: C5_7  and  O1_8 
REMARK    3  A    between atoms: O1_8  and  P1_9 
REMARK    4  A    between atoms: C6_13  and  C7_14 
REMARK    5  A    between atoms: C7_14  and  N2_15 
REMARK    6  A    between atoms: N2_15  and  C8_17 
REMARK    7  A    between atoms: C8_17  and  C9_18 
REMARK    8  A    between atoms: C8_17  and  C13_26 
REMARK    9  A    between atoms: C9_18  and  C10_19 
REMARK   10  A    between atoms: C10_19  and  C11_20 
REMARK   11  A    between atoms: C11_20  and  C12_21 
REMARK   12  A    between atoms: C12_21  and  N3_22 
REMARK   13  A    between atoms: C14_29  and  O7_30 
ROOT
HETATM    1  C1  UNL     1      47.400  44.005  67.782  1.00  0.00     0.071 C 
HETATM    2  C2  UNL     1      46.810  45.256  68.335  1.00  0.00     0.039 A 
HETATM    3  N1  UNL     1      45.493  45.388  68.510  1.00  0.00    -0.367 N 
ATOM      4  H1  UNL     1      44.868  44.620  68.262  1.00  0.00     0.165 HD
HETATM    5  C3  UNL     1      44.979  46.541  69.018  1.00  0.00     0.098 A 
HETATM    6  C4  UNL     1      45.769  47.596  69.365  1.00  0.00    -0.008 A 
HETATM    7  C6  UNL     1      47.157  47.471  69.184  1.00  0.00     0.004 A 
HETATM    8  C14 UNL     1      47.657  46.319  68.678  1.00  0.00     0.096 A 
ENDROOT
BRANCH   7   9
HETATM    9  C7  UNL     1      47.996  48.594  69.573  1.00  0.00     0.157 C 
BRANCH   9  10
HETATM   10  N2  UNL     1      48.713  49.238  68.526  1.00  0.00    -0.404 N 
ATOM     11  H2  UNL     1      48.249  49.587  67.687  1.00  0.00     0.154 HD
BRANCH  10  12
HETATM   12  C8  UNL     1      50.141  49.367  68.726  1.00  0.00     0.178 C 
BRANCH  12  13
HETATM   13  C9  UNL     1      50.488  48.905  70.093  1.00  0.00     0.036 C 
BRANCH  13  14
HETATM   14  C10 UNL     1      51.960  48.646  70.310  1.00  0.00     0.004 C 
BRANCH  14  15
HETATM   15  C11 UNL     1      52.086  47.211  70.841  1.00  0.00     0.027 C 
BRANCH  15  16
HETATM   16  C12 UNL     1      52.927  46.371  69.907  1.00  0.00     0.229 C 
BRANCH  16  17
HETATM   17  N3  UNL     1      53.729  47.184  69.030  1.00  0.00    -0.079 N 
ATOM     18  H33 UNL     1      53.900  46.714  68.141  1.00  0.00     0.274 HD
ATOM     19  H32 UNL     1      53.205  47.989  68.688  1.00  0.00     0.274 HD
ATOM     20  H31 UNL     1      54.602  47.471  69.472  1.00  0.00     0.274 HD
ENDBRANCH  16  17
ENDBRANCH  15  16
ENDBRANCH  14  15
ENDBRANCH  13  14
ENDBRANCH  12  13
BRANCH  12  21
HETATM   21  C13 UNL     1      50.934  48.833  67.626  1.00  0.00     0.196 C 
HETATM   22  O5  UNL     1      51.648  49.607  66.897  1.00  0.00    -0.646 OA
HETATM   23  O6  UNL     1      51.013  47.501  67.250  1.00  0.00    -0.646 OA
ENDBRANCH  12  21
ENDBRANCH  10  12
ENDBRANCH   9  10
ENDBRANCH   7   9
BRANCH   6  24
HETATM   24  C5  UNL     1      45.215  48.855  69.858  1.00  0.00     0.223 C 
BRANCH  24  25
HETATM   25  O1  UNL     1      43.858  48.802  70.026  1.00  0.00    -0.278 OA
BRANCH  25  26
HETATM   26  P1  UNL     1      43.306  49.221  71.558  1.00  0.00     0.422 P 
HETATM   27  O2  UNL     1      41.864  49.598  71.591  1.00  0.00    -0.617 OA
HETATM   28  O3  UNL     1      44.344  50.387  72.198  1.00  0.00    -0.617 OA
HETATM   29  O4  UNL     1      43.504  47.840  72.568  1.00  0.00    -0.617 OA
ENDBRANCH  25  26
ENDBRANCH  24  25
ENDBRANCH   6  24
BRANCH   8  30
HETATM   30  O7  UNL     1      49.001  46.128  68.477  1.00  0.00    -0.358 OA
ATOM     31  H7  UNL     1      49.508  45.833  69.224  1.00  0.00     0.217 HD
ENDBRANCH   8  30
TORSDOF 13
ENDMDL
