MODEL 16
REMARK VINA RESULT: -5.703596093      3.003      5.661
REMARK  13 active torsions:
REMARK  status: ('A' for Active; 'I' for Inactive)
REMARK    1  A    between atoms: C4_6  and  C5_7 
REMARK    2  A    between atoms: C5_7  and  O1_8 
REMARK    3  A    between atoms: O1_8  and  P1_9 
REMARK    4  A    between atoms: C6_13  and  C7_14 
REMARK    5  A    between atoms: C7_14  and  N2_15 
REMARK    6  A    between atoms: N2_15  and  C8_17 
REMARK    7  A    between atoms: C8_17  and  C9_18 
REMARK    8  A    between atoms: C8_17  and  C13_26 
REMARK    9  A    between atoms: C9_18  and  C10_19 
REMARK   10  A    between atoms: C10_19  and  C11_20 
REMARK   11  A    between atoms: C11_20  and  C12_21 
REMARK   12  A    between atoms: C12_21  and  N3_22 
REMARK   13  A    between atoms: C14_29  and  O7_30 
ROOT
HETATM    1  C1  UNL     1      44.002  45.743  68.663  1.00  0.00     0.071 C 
HETATM    2  C2  UNL     1      45.430  46.158  68.745  1.00  0.00     0.039 A 
HETATM    3  N1  UNL     1      46.420  45.323  68.417  1.00  0.00    -0.367 N 
ATOM      4  H1  UNL     1      46.203  44.377  68.104  1.00  0.00     0.165 HD
HETATM    5  C3  UNL     1      47.717  45.728  68.500  1.00  0.00     0.098 A 
HETATM    6  C4  UNL     1      48.061  46.980  68.914  1.00  0.00    -0.008 A 
HETATM    7  C6  UNL     1      47.029  47.868  69.263  1.00  0.00     0.004 A 
HETATM    8  C14 UNL     1      45.743  47.455  69.176  1.00  0.00     0.096 A 
ENDROOT
BRANCH   7   9
HETATM    9  C7  UNL     1      47.403  49.209  69.686  1.00  0.00     0.157 C 
BRANCH   9  10
HETATM   10  N2  UNL     1      47.129  50.259  68.766  1.00  0.00    -0.404 N 
ATOM     11  H2  UNL     1      46.757  50.079  67.833  1.00  0.00     0.154 HD
BRANCH  10  12
HETATM   12  C8  UNL     1      47.410  51.599  69.237  1.00  0.00     0.178 C 
BRANCH  12  13
HETATM   13  C9  UNL     1      48.739  52.027  68.733  1.00  0.00     0.036 C 
BRANCH  13  14
HETATM   14  C10 UNL     1      49.856  51.917  69.745  1.00  0.00     0.004 C 
BRANCH  14  15
HETATM   15  C11 UNL     1      50.826  50.847  69.224  1.00  0.00     0.027 C 
BRANCH  15  16
HETATM   16  C12 UNL     1      51.180  51.110  67.778  1.00  0.00     0.229 C 
BRANCH  16  17
HETATM   17  N3  UNL     1      51.244  49.891  67.012  1.00  0.00    -0.079 N 
ATOM     18  H33 UNL     1      51.833  50.002  66.188  1.00  0.00     0.274 HD
ATOM     19  H32 UNL     1      51.782  49.175  67.500  1.00  0.00     0.274 HD
ATOM     20  H31 UNL     1      50.315  49.552  66.761  1.00  0.00     0.274 HD
ENDBRANCH  16  17
ENDBRANCH  15  16
ENDBRANCH  14  15
ENDBRANCH  13  14
ENDBRANCH  12  13
BRANCH  12  21
HETATM   21  C13 UNL     1      46.302  52.527  69.050  1.00  0.00     0.196 C 
HETATM   22  O5  UNL     1      45.223  52.152  68.470  1.00  0.00    -0.646 OA
HETATM   23  O6  UNL     1      46.274  53.854  69.451  1.00  0.00    -0.646 OA
ENDBRANCH  12  21
ENDBRANCH  10  12
ENDBRANCH   9  10
ENDBRANCH   7   9
BRANCH   6  24
HETATM   24  C5  UNL     1      49.453  47.398  69.057  1.00  0.00     0.223 C 
BRANCH  24  25
HETATM   25  O1  UNL     1      50.334  46.470  68.569  1.00  0.00    -0.278 OA
BRANCH  25  26
HETATM   26  P1  UNL     1      51.906  46.595  69.151  1.00  0.00     0.422 P 
HETATM   27  O2  UNL     1      51.983  46.782  70.629  1.00  0.00    -0.617 OA
HETATM   28  O3  UNL     1      52.712  47.778  68.259  1.00  0.00    -0.617 OA
HETATM   29  O4  UNL     1      52.711  45.120  68.773  1.00  0.00    -0.617 OA
ENDBRANCH  25  26
ENDBRANCH  24  25
ENDBRANCH   6  24
BRANCH   8  30
HETATM   30  O7  UNL     1      44.687  48.270  69.499  1.00  0.00    -0.358 OA
ATOM     31  H7  UNL     1      44.450  48.935  68.864  1.00  0.00     0.217 HD
ENDBRANCH   8  30
TORSDOF 13
ENDMDL
