MODEL 1
REMARK VINA RESULT: -6.991305675      0.000      0.000
REMARK  11 active torsions:
REMARK  status: ('A' for Active; 'I' for Inactive)
REMARK    1  A    between atoms: C2_2  and  O1_3 
REMARK    2  A    between atoms: C2_2  and  N1_5 
REMARK    3  A    between atoms: N1_5  and  C3_8 
REMARK    4  A    between atoms: C4_9  and  O2_10 
REMARK    5  A    between atoms: C6_13  and  C7_14 
REMARK    6  A    between atoms: C8_18  and  C9_19 
REMARK    7  A    between atoms: C9_19  and  O6_20 
REMARK    8  A    between atoms: C9_19  and  C10_22 
REMARK    9  A    between atoms: C10_22  and  O7_23 
REMARK   10  A    between atoms: C10_22  and  C11_25 
REMARK   11  A    between atoms: C11_25  and  O8_26 
ROOT
HETATM    1  C3  UNL     1     -33.024  57.506  76.512  1.00  0.00     0.253 C 
HETATM    2  C4  UNL     1     -32.499  56.402  77.405  1.00  0.00     0.177 C 
HETATM    3  C5  UNL     1     -31.842  55.305  76.721  1.00  0.00     0.050 C 
HETATM    4  C6  UNL     1     -31.595  55.338  75.431  1.00  0.00     0.144 C 
HETATM    5  O5  UNL     1     -31.980  56.457  74.721  1.00  0.00    -0.335 OA
HETATM    6  C8  UNL     1     -32.055  57.694  75.409  1.00  0.00     0.194 C 
ENDROOT
BRANCH   6   7
HETATM    7  C9  UNL     1     -32.341  58.733  74.388  1.00  0.00     0.180 C 
BRANCH   7   8
HETATM    8  O6  UNL     1     -33.568  58.581  73.735  1.00  0.00    -0.390 OA
ATOM      9  H6  UNL     1     -33.499  58.328  72.823  1.00  0.00     0.210 HD
ENDBRANCH   7   8
BRANCH   7  10
HETATM   10  C10 UNL     1     -31.309  58.966  73.345  1.00  0.00     0.173 C 
BRANCH  10  11
HETATM   11  O7  UNL     1     -30.831  60.255  73.238  1.00  0.00    -0.391 OA
ATOM     12  H7  UNL     1     -31.178  60.772  72.521  1.00  0.00     0.210 HD
ENDBRANCH  10  11
BRANCH  10  13
HETATM   13  C11 UNL     1     -31.641  58.380  71.995  1.00  0.00     0.198 C 
BRANCH  13  14
HETATM   14  O8  UNL     1     -31.553  56.973  72.021  1.00  0.00    -0.398 OA
ATOM     15  H8  UNL     1     -30.826  56.667  71.491  1.00  0.00     0.209 HD
ENDBRANCH  13  14
ENDBRANCH  10  13
ENDBRANCH   7  10
ENDBRANCH   6   7
BRANCH   1  16
HETATM   16  N1  UNL     1     -33.300  58.612  77.362  1.00  0.00    -0.040 N 
ATOM     17  H12 UNL     1     -32.736  59.425  77.110  1.00  0.00     0.280 HD
ATOM     18  H11 UNL     1     -32.942  58.455  78.304  1.00  0.00     0.280 HD
BRANCH  16  19
HETATM   19  C2  UNL     1     -34.733  58.939  77.381  1.00  0.00     0.315 C 
HETATM   20  C1  UNL     1     -34.949  60.396  77.788  1.00  0.00     0.070 C 
BRANCH  19  21
HETATM   21  O1  UNL     1     -35.317  58.791  76.133  1.00  0.00    -0.370 OA
ATOM     22  H1  UNL     1     -35.172  57.889  75.875  1.00  0.00     0.212 HD
ENDBRANCH  19  21
ENDBRANCH  16  19
ENDBRANCH   1  16
BRANCH   2  23
HETATM   23  O2  UNL     1     -33.510  55.863  78.204  1.00  0.00    -0.389 OA
ATOM     24  H2  UNL     1     -34.016  55.211  77.733  1.00  0.00     0.210 HD
ENDBRANCH   2  23
BRANCH   4  25
HETATM   25  C7  UNL     1     -30.921  54.202  74.757  1.00  0.00     0.233 C 
HETATM   26  O3  UNL     1     -30.796  53.114  75.344  1.00  0.00    -0.642 OA
HETATM   27  O4  UNL     1     -30.431  54.348  73.475  1.00  0.00    -0.642 OA
ENDBRANCH   4  25
TORSDOF 11
ENDMDL
