MODEL 5
REMARK VINA RESULT: -6.230934250      1.844      5.741
REMARK  11 active torsions:
REMARK  status: ('A' for Active; 'I' for Inactive)
REMARK    1  A    between atoms: C2_2  and  O1_3 
REMARK    2  A    between atoms: C2_2  and  N1_5 
REMARK    3  A    between atoms: N1_5  and  C3_8 
REMARK    4  A    between atoms: C4_9  and  O2_10 
REMARK    5  A    between atoms: C6_13  and  C7_14 
REMARK    6  A    between atoms: C8_18  and  C9_19 
REMARK    7  A    between atoms: C9_19  and  O6_20 
REMARK    8  A    between atoms: C9_19  and  C10_22 
REMARK    9  A    between atoms: C10_22  and  O7_23 
REMARK   10  A    between atoms: C10_22  and  C11_25 
REMARK   11  A    between atoms: C11_25  and  O8_26 
ROOT
HETATM    1  C3  UNL     1     -32.904  58.193  74.926  1.00  0.00     0.253 C 
HETATM    2  C4  UNL     1     -33.534  59.548  74.683  1.00  0.00     0.177 C 
HETATM    3  C5  UNL     1     -34.269  60.104  75.803  1.00  0.00     0.050 C 
HETATM    4  C6  UNL     1     -34.268  59.535  76.987  1.00  0.00     0.144 C 
HETATM    5  O5  UNL     1     -33.540  58.374  77.153  1.00  0.00    -0.335 OA
HETATM    6  C8  UNL     1     -32.411  58.166  76.321  1.00  0.00     0.194 C 
ENDROOT
BRANCH   6   7
HETATM    7  C9  UNL     1     -31.743  56.934  76.810  1.00  0.00     0.180 C 
BRANCH   7   8
HETATM    8  O6  UNL     1     -30.669  56.507  76.024  1.00  0.00    -0.390 OA
ATOM      9  H6  UNL     1     -30.183  55.776  76.385  1.00  0.00     0.210 HD
ENDBRANCH   7   8
BRANCH   7  10
HETATM   10  C10 UNL     1     -32.602  55.750  77.069  1.00  0.00     0.173 C 
BRANCH  10  11
HETATM   11  O7  UNL     1     -33.205  55.695  78.308  1.00  0.00    -0.391 OA
ATOM     12  H7  UNL     1     -32.990  54.942  78.846  1.00  0.00     0.210 HD
ENDBRANCH  10  11
BRANCH  10  13
HETATM   13  C11 UNL     1     -31.977  54.429  76.693  1.00  0.00     0.198 C 
BRANCH  13  14
HETATM   14  O8  UNL     1     -32.501  53.953  75.473  1.00  0.00    -0.398 OA
ATOM     15  H8  UNL     1     -32.795  53.053  75.558  1.00  0.00     0.209 HD
ENDBRANCH  13  14
ENDBRANCH  10  13
ENDBRANCH   7  10
ENDBRANCH   6   7
BRANCH   1  16
HETATM   16  N1  UNL     1     -31.966  57.993  73.876  1.00  0.00    -0.040 N 
ATOM     17  H12 UNL     1     -31.011  57.958  74.233  1.00  0.00     0.280 HD
ATOM     18  H11 UNL     1     -31.886  58.821  73.286  1.00  0.00     0.280 HD
BRANCH  16  19
HETATM   19  C2  UNL     1     -32.285  56.798  73.081  1.00  0.00     0.315 C 
HETATM   20  C1  UNL     1     -32.199  57.104  71.587  1.00  0.00     0.070 C 
BRANCH  19  21
HETATM   21  O1  UNL     1     -31.394  55.762  73.319  1.00  0.00    -0.370 OA
ATOM     22  H1  UNL     1     -30.963  55.964  74.141  1.00  0.00     0.212 HD
ENDBRANCH  19  21
ENDBRANCH  16  19
ENDBRANCH   1  16
BRANCH   2  23
HETATM   23  O2  UNL     1     -34.388  59.527  73.579  1.00  0.00    -0.389 OA
ATOM     24  H2  UNL     1     -34.916  60.315  73.531  1.00  0.00     0.210 HD
ENDBRANCH   2  23
BRANCH   4  25
HETATM   25  C7  UNL     1     -35.029  60.125  78.114  1.00  0.00     0.233 C 
HETATM   26  O3  UNL     1     -35.411  59.406  79.053  1.00  0.00    -0.642 OA
HETATM   27  O4  UNL     1     -35.315  61.474  78.127  1.00  0.00    -0.642 OA
ENDBRANCH   4  25
TORSDOF 11
ENDMDL
