MODEL 2
REMARK VINA RESULT: -6.973127939      0.730      1.323
REMARK  11 active torsions:
REMARK  status: ('A' for Active; 'I' for Inactive)
REMARK    1  A    between atoms: C2_2  and  O1_3 
REMARK    2  A    between atoms: C2_2  and  N1_5 
REMARK    3  A    between atoms: N1_5  and  C3_8 
REMARK    4  A    between atoms: C4_9  and  O2_10 
REMARK    5  A    between atoms: C6_13  and  C7_14 
REMARK    6  A    between atoms: C8_18  and  C9_19 
REMARK    7  A    between atoms: C9_19  and  O6_20 
REMARK    8  A    between atoms: C9_19  and  C10_22 
REMARK    9  A    between atoms: C10_22  and  O7_23 
REMARK   10  A    between atoms: C10_22  and  C11_25 
REMARK   11  A    between atoms: C11_25  and  O8_26 
ROOT
HETATM    1  C3  UNL     1     -32.970  57.469  76.471  1.00  0.00     0.253 C 
HETATM    2  C4  UNL     1     -32.522  56.314  77.342  1.00  0.00     0.177 C 
HETATM    3  C5  UNL     1     -31.864  55.225  76.646  1.00  0.00     0.050 C 
HETATM    4  C6  UNL     1     -31.553  55.302  75.371  1.00  0.00     0.144 C 
HETATM    5  O5  UNL     1     -31.870  56.460  74.691  1.00  0.00    -0.335 OA
HETATM    6  C8  UNL     1     -31.943  57.671  75.424  1.00  0.00     0.194 C 
ENDROOT
BRANCH   6   7
HETATM    7  C9  UNL     1     -32.149  58.758  74.434  1.00  0.00     0.180 C 
BRANCH   7   8
HETATM    8  O6  UNL     1     -33.466  58.891  73.987  1.00  0.00    -0.390 OA
ATOM      9  H6  UNL     1     -33.615  59.638  73.420  1.00  0.00     0.210 HD
ENDBRANCH   7   8
BRANCH   7  10
HETATM   10  C10 UNL     1     -31.269  58.763  73.237  1.00  0.00     0.173 C 
BRANCH  10  11
HETATM   11  O7  UNL     1     -29.927  58.547  73.467  1.00  0.00    -0.391 OA
ATOM     12  H7  UNL     1     -29.424  58.219  72.731  1.00  0.00     0.210 HD
ENDBRANCH  10  11
BRANCH  10  13
HETATM   13  C11 UNL     1     -31.495  59.924  72.301  1.00  0.00     0.198 C 
BRANCH  13  14
HETATM   14  O8  UNL     1     -30.769  61.058  72.720  1.00  0.00    -0.398 OA
ATOM     15  H8  UNL     1     -30.472  61.566  71.974  1.00  0.00     0.209 HD
ENDBRANCH  13  14
ENDBRANCH  10  13
ENDBRANCH   7  10
ENDBRANCH   6   7
BRANCH   1  16
HETATM   16  N1  UNL     1     -33.256  58.548  77.352  1.00  0.00    -0.040 N 
ATOM     17  H12 UNL     1     -32.639  59.342  77.179  1.00  0.00     0.280 HD
ATOM     18  H11 UNL     1     -32.975  58.332  78.308  1.00  0.00     0.280 HD
BRANCH  16  19
HETATM   19  C2  UNL     1     -34.670  58.944  77.286  1.00  0.00     0.315 C 
HETATM   20  C1  UNL     1     -34.809  60.464  77.361  1.00  0.00     0.070 C 
BRANCH  19  21
HETATM   21  O1  UNL     1     -35.264  58.557  76.094  1.00  0.00    -0.370 OA
ATOM     22  H1  UNL     1     -36.141  58.265  76.316  1.00  0.00     0.212 HD
ENDBRANCH  19  21
ENDBRANCH  16  19
ENDBRANCH   1  16
BRANCH   2  23
HETATM   23  O2  UNL     1     -33.587  55.776  78.068  1.00  0.00    -0.389 OA
ATOM     24  H2  UNL     1     -34.076  56.451  78.524  1.00  0.00     0.210 HD
ENDBRANCH   2  23
BRANCH   4  25
HETATM   25  C7  UNL     1     -30.880  54.174  74.684  1.00  0.00     0.233 C 
HETATM   26  O3  UNL     1     -30.372  54.341  73.562  1.00  0.00    -0.642 OA
HETATM   27  O4  UNL     1     -30.814  52.935  75.287  1.00  0.00    -0.642 OA
ENDBRANCH   4  25
TORSDOF 11
ENDMDL
