MODEL 7
REMARK VINA RESULT: -6.111098807      2.545      5.502
REMARK  11 active torsions:
REMARK  status: ('A' for Active; 'I' for Inactive)
REMARK    1  A    between atoms: C2_2  and  O1_3 
REMARK    2  A    between atoms: C2_2  and  N1_5 
REMARK    3  A    between atoms: N1_5  and  C3_8 
REMARK    4  A    between atoms: C4_9  and  O2_10 
REMARK    5  A    between atoms: C6_13  and  C7_14 
REMARK    6  A    between atoms: C8_18  and  C9_19 
REMARK    7  A    between atoms: C9_19  and  O6_20 
REMARK    8  A    between atoms: C9_19  and  C10_22 
REMARK    9  A    between atoms: C10_22  and  O7_23 
REMARK   10  A    between atoms: C10_22  and  C11_25 
REMARK   11  A    between atoms: C11_25  and  O8_26 
ROOT
HETATM    1  C3  UNL     1     -35.191  58.456  74.695  1.00  0.00     0.253 C 
HETATM    2  C4  UNL     1     -36.150  59.499  75.230  1.00  0.00     0.177 C 
HETATM    3  C5  UNL     1     -36.327  59.504  76.670  1.00  0.00     0.050 C 
HETATM    4  C6  UNL     1     -35.598  58.752  77.463  1.00  0.00     0.144 C 
HETATM    5  O5  UNL     1     -34.641  57.937  76.892  1.00  0.00    -0.335 OA
HETATM    6  C8  UNL     1     -34.072  58.336  75.657  1.00  0.00     0.194 C 
ENDROOT
BRANCH   6   7
HETATM    7  C9  UNL     1     -32.985  57.370  75.357  1.00  0.00     0.180 C 
BRANCH   7   8
HETATM    8  O6  UNL     1     -33.279  56.469  74.329  1.00  0.00    -0.390 OA
ATOM      9  H6  UNL     1     -32.639  55.776  74.219  1.00  0.00     0.210 HD
ENDBRANCH   7   8
BRANCH   7  10
HETATM   10  C10 UNL     1     -32.438  56.586  76.494  1.00  0.00     0.173 C 
BRANCH  10  11
HETATM   11  O7  UNL     1     -31.725  57.296  77.436  1.00  0.00    -0.391 OA
ATOM     12  H7  UNL     1     -30.937  57.728  77.127  1.00  0.00     0.210 HD
ENDBRANCH  10  11
BRANCH  10  13
HETATM   13  C11 UNL     1     -31.726  55.318  76.093  1.00  0.00     0.198 C 
BRANCH  13  14
HETATM   14  O8  UNL     1     -32.587  54.205  76.188  1.00  0.00    -0.398 OA
ATOM     15  H8  UNL     1     -32.434  53.596  75.474  1.00  0.00     0.209 HD
ENDBRANCH  13  14
ENDBRANCH  10  13
ENDBRANCH   7  10
ENDBRANCH   6   7
BRANCH   1  16
HETATM   16  N1  UNL     1     -34.893  58.835  73.358  1.00  0.00    -0.040 N 
ATOM     17  H12 UNL     1     -33.887  58.841  73.189  1.00  0.00     0.280 HD
ATOM     18  H11 UNL     1     -35.087  59.823  73.199  1.00  0.00     0.280 HD
BRANCH  16  19
HETATM   19  C2  UNL     1     -35.594  57.987  72.383  1.00  0.00     0.315 C 
HETATM   20  C1  UNL     1     -34.634  57.503  71.298  1.00  0.00     0.070 C 
BRANCH  19  21
HETATM   21  O1  UNL     1     -36.125  56.849  72.970  1.00  0.00    -0.370 OA
ATOM     22  H1  UNL     1     -36.256  57.058  73.887  1.00  0.00     0.212 HD
ENDBRANCH  19  21
ENDBRANCH  16  19
ENDBRANCH   1  16
BRANCH   2  23
HETATM   23  O2  UNL     1     -37.413  59.383  74.645  1.00  0.00    -0.389 OA
ATOM     24  H2  UNL     1     -37.813  58.544  74.841  1.00  0.00     0.210 HD
ENDBRANCH   2  23
BRANCH   4  25
HETATM   25  C7  UNL     1     -35.800  58.777  78.931  1.00  0.00     0.233 C 
HETATM   26  O3  UNL     1     -36.288  57.792  79.511  1.00  0.00    -0.642 OA
HETATM   27  O4  UNL     1     -35.446  59.894  79.661  1.00  0.00    -0.642 OA
ENDBRANCH   4  25
TORSDOF 11
ENDMDL
