MODEL 6
REMARK VINA RESULT: -6.113970288      2.435      5.461
REMARK  11 active torsions:
REMARK  status: ('A' for Active; 'I' for Inactive)
REMARK    1  A    between atoms: C2_2  and  O1_3 
REMARK    2  A    between atoms: C2_2  and  N1_5 
REMARK    3  A    between atoms: N1_5  and  C3_8 
REMARK    4  A    between atoms: C4_9  and  O2_10 
REMARK    5  A    between atoms: C6_13  and  C7_14 
REMARK    6  A    between atoms: C8_18  and  C9_19 
REMARK    7  A    between atoms: C9_19  and  O6_20 
REMARK    8  A    between atoms: C9_19  and  C10_22 
REMARK    9  A    between atoms: C10_22  and  O7_23 
REMARK   10  A    between atoms: C10_22  and  C11_25 
REMARK   11  A    between atoms: C11_25  and  O8_26 
ROOT
HETATM    1  C3  UNL     1     -35.254  58.108  74.581  1.00  0.00     0.253 C 
HETATM    2  C4  UNL     1     -36.255  59.166  74.994  1.00  0.00     0.177 C 
HETATM    3  C5  UNL     1     -36.335  59.428  76.419  1.00  0.00     0.050 C 
HETATM    4  C6  UNL     1     -35.497  58.887  77.274  1.00  0.00     0.144 C 
HETATM    5  O5  UNL     1     -34.518  58.045  76.784  1.00  0.00    -0.335 OA
HETATM    6  C8  UNL     1     -34.067  58.243  75.455  1.00  0.00     0.194 C 
ENDROOT
BRANCH   6   7
HETATM    7  C9  UNL     1     -32.928  57.312  75.249  1.00  0.00     0.180 C 
BRANCH   7   8
HETATM    8  O6  UNL     1     -33.153  56.329  74.281  1.00  0.00    -0.390 OA
ATOM      9  H6  UNL     1     -33.255  55.451  74.628  1.00  0.00     0.210 HD
ENDBRANCH   7   8
BRANCH   7  10
HETATM   10  C10 UNL     1     -32.376  56.635  76.450  1.00  0.00     0.173 C 
BRANCH  10  11
HETATM   11  O7  UNL     1     -31.669  57.431  77.326  1.00  0.00    -0.391 OA
ATOM     12  H7  UNL     1     -31.376  58.269  76.988  1.00  0.00     0.210 HD
ENDBRANCH  10  11
BRANCH  10  13
HETATM   13  C11 UNL     1     -31.653  55.343  76.163  1.00  0.00     0.198 C 
BRANCH  13  14
HETATM   14  O8  UNL     1     -32.465  54.232  76.471  1.00  0.00    -0.398 OA
ATOM     15  H8  UNL     1     -32.579  54.144  77.410  1.00  0.00     0.209 HD
ENDBRANCH  13  14
ENDBRANCH  10  13
ENDBRANCH   7  10
ENDBRANCH   6   7
BRANCH   1  16
HETATM   16  N1  UNL     1     -35.077  58.249  73.178  1.00  0.00    -0.040 N 
ATOM     17  H12 UNL     1     -35.924  57.996  72.669  1.00  0.00     0.280 HD
ATOM     18  H11 UNL     1     -34.450  57.533  72.808  1.00  0.00     0.280 HD
BRANCH  16  19
HETATM   19  C2  UNL     1     -34.618  59.598  72.820  1.00  0.00     0.315 C 
HETATM   20  C1  UNL     1     -33.299  59.535  72.051  1.00  0.00     0.070 C 
BRANCH  19  21
HETATM   21  O1  UNL     1     -35.519  60.252  71.994  1.00  0.00    -0.370 OA
ATOM     22  H1  UNL     1     -36.033  59.575  71.570  1.00  0.00     0.212 HD
ENDBRANCH  19  21
ENDBRANCH  16  19
ENDBRANCH   1  16
BRANCH   2  23
HETATM   23  O2  UNL     1     -37.541  58.860  74.543  1.00  0.00    -0.389 OA
ATOM     24  H2  UNL     1     -37.882  59.540  73.974  1.00  0.00     0.210 HD
ENDBRANCH   2  23
BRANCH   4  25
HETATM   25  C7  UNL     1     -35.601  59.172  78.724  1.00  0.00     0.233 C 
HETATM   26  O3  UNL     1     -35.065  60.187  79.200  1.00  0.00    -0.642 OA
HETATM   27  O4  UNL     1     -36.295  58.313  79.552  1.00  0.00    -0.642 OA
ENDBRANCH   4  25
TORSDOF 11
ENDMDL
