MODEL 18
REMARK VINA RESULT: -5.650055503      1.615      2.113
REMARK  11 active torsions:
REMARK  status: ('A' for Active; 'I' for Inactive)
REMARK    1  A    between atoms: C2_2  and  O1_3 
REMARK    2  A    between atoms: C2_2  and  N1_5 
REMARK    3  A    between atoms: N1_5  and  C3_8 
REMARK    4  A    between atoms: C4_9  and  O2_10 
REMARK    5  A    between atoms: C6_13  and  C7_14 
REMARK    6  A    between atoms: C8_18  and  C9_19 
REMARK    7  A    between atoms: C9_19  and  O6_20 
REMARK    8  A    between atoms: C9_19  and  C10_22 
REMARK    9  A    between atoms: C10_22  and  O7_23 
REMARK   10  A    between atoms: C10_22  and  C11_25 
REMARK   11  A    between atoms: C11_25  and  O8_26 
ROOT
HETATM    1  C3  UNL     1     -32.303  56.635  75.544  1.00  0.00     0.253 C 
HETATM    2  C4  UNL     1     -31.936  55.421  76.372  1.00  0.00     0.177 C 
HETATM    3  C5  UNL     1     -31.703  54.201  75.623  1.00  0.00     0.050 C 
HETATM    4  C6  UNL     1     -31.672  54.187  74.309  1.00  0.00     0.144 C 
HETATM    5  O5  UNL     1     -31.872  55.377  73.639  1.00  0.00    -0.335 OA
HETATM    6  C8  UNL     1     -31.514  56.583  74.292  1.00  0.00     0.194 C 
ENDROOT
BRANCH   6   7
HETATM    7  C9  UNL     1     -31.692  57.674  73.301  1.00  0.00     0.180 C 
BRANCH   7   8
HETATM    8  O6  UNL     1     -31.736  57.246  71.971  1.00  0.00    -0.390 OA
ATOM      9  H6  UNL     1     -31.286  56.426  71.807  1.00  0.00     0.210 HD
ENDBRANCH   7   8
BRANCH   7  10
HETATM   10  C10 UNL     1     -30.744  58.817  73.369  1.00  0.00     0.173 C 
BRANCH  10  11
HETATM   11  O7  UNL     1     -29.912  58.852  74.468  1.00  0.00    -0.391 OA
ATOM     12  H7  UNL     1     -29.713  59.714  74.815  1.00  0.00     0.210 HD
ENDBRANCH  10  11
BRANCH  10  13
HETATM   13  C11 UNL     1     -31.368  60.163  73.098  1.00  0.00     0.198 C 
BRANCH  13  14
HETATM   14  O8  UNL     1     -31.617  60.334  71.720  1.00  0.00    -0.398 OA
ATOM     15  H8  UNL     1     -30.959  60.893  71.323  1.00  0.00     0.209 HD
ENDBRANCH  13  14
ENDBRANCH  10  13
ENDBRANCH   7  10
ENDBRANCH   6   7
BRANCH   1  16
HETATM   16  N1  UNL     1     -32.144  57.763  76.394  1.00  0.00    -0.040 N 
ATOM     17  H12 UNL     1     -31.467  58.424  76.012  1.00  0.00     0.280 HD
ATOM     18  H11 UNL     1     -31.656  57.514  77.255  1.00  0.00     0.280 HD
BRANCH  16  19
HETATM   19  C2  UNL     1     -33.430  58.416  76.678  1.00  0.00     0.315 C 
HETATM   20  C1  UNL     1     -34.354  58.340  75.463  1.00  0.00     0.070 C 
BRANCH  19  21
HETATM   21  O1  UNL     1     -34.107  57.803  77.721  1.00  0.00    -0.370 OA
ATOM     22  H1  UNL     1     -34.283  58.483  78.361  1.00  0.00     0.212 HD
ENDBRANCH  19  21
ENDBRANCH  16  19
ENDBRANCH   1  16
BRANCH   2  23
HETATM   23  O2  UNL     1     -32.905  55.149  77.340  1.00  0.00    -0.389 OA
ATOM     24  H2  UNL     1     -33.707  54.822  76.950  1.00  0.00     0.210 HD
ENDBRANCH   2  23
BRANCH   4  25
HETATM   25  C7  UNL     1     -31.431  52.926  73.568  1.00  0.00     0.233 C 
HETATM   26  O3  UNL     1     -31.020  52.960  72.396  1.00  0.00    -0.642 OA
HETATM   27  O4  UNL     1     -31.662  51.709  74.176  1.00  0.00    -0.642 OA
ENDBRANCH   4  25
TORSDOF 11
ENDMDL
