MODEL 4
REMARK VINA RESULT: -6.750869228      0.861      1.273
REMARK  11 active torsions:
REMARK  status: ('A' for Active; 'I' for Inactive)
REMARK    1  A    between atoms: C2_2  and  O1_3 
REMARK    2  A    between atoms: C2_2  and  N1_5 
REMARK    3  A    between atoms: N1_5  and  C3_8 
REMARK    4  A    between atoms: C4_9  and  O2_10 
REMARK    5  A    between atoms: C6_13  and  C7_14 
REMARK    6  A    between atoms: C8_18  and  C9_19 
REMARK    7  A    between atoms: C9_19  and  O6_20 
REMARK    8  A    between atoms: C9_19  and  C10_22 
REMARK    9  A    between atoms: C10_22  and  O7_23 
REMARK   10  A    between atoms: C10_22  and  C11_25 
REMARK   11  A    between atoms: C11_25  and  O8_26 
ROOT
HETATM    1  C3  UNL     1     -33.131  57.437  76.520  1.00  0.00     0.253 C 
HETATM    2  C4  UNL     1     -32.538  56.378  77.425  1.00  0.00     0.177 C 
HETATM    3  C5  UNL     1     -31.849  55.294  76.750  1.00  0.00     0.050 C 
HETATM    4  C6  UNL     1     -31.634  55.307  75.453  1.00  0.00     0.144 C 
HETATM    5  O5  UNL     1     -32.085  56.392  74.728  1.00  0.00    -0.335 OA
HETATM    6  C8  UNL     1     -32.198  57.641  75.389  1.00  0.00     0.194 C 
ENDROOT
BRANCH   6   7
HETATM    7  C9  UNL     1     -32.553  58.642  74.352  1.00  0.00     0.180 C 
BRANCH   7   8
HETATM    8  O6  UNL     1     -33.038  59.851  74.858  1.00  0.00    -0.390 OA
ATOM      9  H6  UNL     1     -32.603  60.623  74.515  1.00  0.00     0.210 HD
ENDBRANCH   7   8
BRANCH   7  10
HETATM   10  C10 UNL     1     -33.480  58.207  73.275  1.00  0.00     0.173 C 
BRANCH  10  11
HETATM   11  O7  UNL     1     -34.387  57.225  73.613  1.00  0.00    -0.391 OA
ATOM     12  H7  UNL     1     -34.566  56.573  72.946  1.00  0.00     0.210 HD
ENDBRANCH  10  11
BRANCH  10  13
HETATM   13  C11 UNL     1     -32.811  57.919  71.954  1.00  0.00     0.198 C 
BRANCH  13  14
HETATM   14  O8  UNL     1     -31.815  56.931  72.098  1.00  0.00    -0.398 OA
ATOM     15  H8  UNL     1     -31.997  56.181  71.544  1.00  0.00     0.209 HD
ENDBRANCH  13  14
ENDBRANCH  10  13
ENDBRANCH   7  10
ENDBRANCH   6   7
BRANCH   1  16
HETATM   16  N1  UNL     1     -33.436  58.549  77.351  1.00  0.00    -0.040 N 
ATOM     17  H12 UNL     1     -32.923  59.382  77.060  1.00  0.00     0.280 HD
ATOM     18  H11 UNL     1     -33.040  58.436  78.284  1.00  0.00     0.280 HD
BRANCH  16  19
HETATM   19  C2  UNL     1     -34.882  58.804  77.410  1.00  0.00     0.315 C 
HETATM   20  C1  UNL     1     -35.163  60.197  77.973  1.00  0.00     0.070 C 
BRANCH  19  21
HETATM   21  O1  UNL     1     -35.470  58.766  76.155  1.00  0.00    -0.370 OA
ATOM     22  H1  UNL     1     -34.922  58.201  75.621  1.00  0.00     0.212 HD
ENDBRANCH  19  21
ENDBRANCH  16  19
ENDBRANCH   1  16
BRANCH   2  23
HETATM   23  O2  UNL     1     -33.506  55.815  78.259  1.00  0.00    -0.389 OA
ATOM     24  H2  UNL     1     -33.214  54.987  78.624  1.00  0.00     0.210 HD
ENDBRANCH   2  23
BRANCH   4  25
HETATM   25  C7  UNL     1     -30.928  54.187  74.789  1.00  0.00     0.233 C 
HETATM   26  O3  UNL     1     -30.786  53.102  75.378  1.00  0.00    -0.642 OA
HETATM   27  O4  UNL     1     -30.424  54.342  73.514  1.00  0.00    -0.642 OA
ENDBRANCH   4  25
TORSDOF 11
ENDMDL
