MODEL 18
REMARK VINA RESULT: -4.350321414      5.543      7.145
REMARK  0 active torsions:
REMARK  status: ('A' for Active; 'I' for Inactive)
ROOT
HETATM    1  N1  UNL     1      17.237  -1.007  19.093  1.00  0.00    -0.080 NA
HETATM    2  C1  UNL     1      17.169   0.411  19.037  1.00  0.00     0.147 A 
HETATM    3  N2  UNL     1      18.226   1.194  19.335  1.00  0.00    -0.339 N 
ATOM      4  H2  UNL     1      19.108   0.763  19.611  1.00  0.00     0.167 HD
HETATM    5  C2  UNL     1      18.132   2.541  19.275  1.00  0.00     0.183 A 
HETATM    6  N3  UNL     1      16.999   3.178  18.920  1.00  0.00    -0.337 N 
ATOM      7  H3  UNL     1      16.965   4.196  18.886  1.00  0.00     0.168 HD
HETATM    8  C3  UNL     1      15.912   2.443  18.612  1.00  0.00     0.137 A 
HETATM    9  N4  UNL     1      14.645   2.723  18.227  1.00  0.00    -0.337 N 
ATOM     10  H4  UNL     1      14.272   3.663  18.093  1.00  0.00     0.168 HD
HETATM   11  C4  UNL     1      13.950   1.588  18.045  1.00  0.00     0.182 A 
HETATM   12  N5  UNL     1      14.790   0.575  18.321  1.00  0.00    -0.347 N 
ATOM     13  H5  UNL     1      14.549  -0.415  18.273  1.00  0.00     0.167 HD
HETATM   14  C5  UNL     1      15.998   1.060  18.671  1.00  0.00     0.119 A 
ENDROOT
TORSDOF 0
ENDMDL
