MODEL 3
REMARK VINA RESULT: -4.943918794      0.968      2.413
REMARK  0 active torsions:
REMARK  status: ('A' for Active; 'I' for Inactive)
ROOT
HETATM    1  N1  UNL     1      12.077   2.515  16.709  1.00  0.00    -0.080 NA
HETATM    2  C1  UNL     1      11.342   2.101  15.567  1.00  0.00     0.147 A 
HETATM    3  N2  UNL     1      10.074   2.501  15.344  1.00  0.00    -0.339 N 
ATOM      4  H2  UNL     1       9.618   3.123  16.012  1.00  0.00     0.167 HD
HETATM    5  C2  UNL     1       9.398   2.091  14.248  1.00  0.00     0.183 A 
HETATM    6  N3  UNL     1       9.935   1.270  13.324  1.00  0.00    -0.337 N 
ATOM      7  H3  UNL     1       9.395   0.980  12.510  1.00  0.00     0.168 HD
HETATM    8  C3  UNL     1      11.201   0.839  13.498  1.00  0.00     0.137 A 
HETATM    9  N4  UNL     1      12.042   0.036  12.807  1.00  0.00    -0.337 N 
ATOM     10  H4  UNL     1      11.813  -0.428  11.928  1.00  0.00     0.168 HD
HETATM   11  C4  UNL     1      13.222  -0.063  13.442  1.00  0.00     0.182 A 
HETATM   12  N5  UNL     1      13.124   0.688  14.553  1.00  0.00    -0.347 N 
ATOM     13  H5  UNL     1      13.865   0.812  15.243  1.00  0.00     0.167 HD
HETATM   14  C5  UNL     1      11.902   1.255  14.620  1.00  0.00     0.119 A 
ENDROOT
TORSDOF 0
ENDMDL
