MODEL 2
REMARK VINA RESULT: -5.104907564      0.666      2.836
REMARK  0 active torsions:
REMARK  status: ('A' for Active; 'I' for Inactive)
ROOT
HETATM    1  N1  UNL     1       8.935   1.767  14.099  1.00  0.00    -0.080 NA
HETATM    2  C1  UNL     1      10.278   1.312  14.179  1.00  0.00     0.147 A 
HETATM    3  N2  UNL     1      10.772   0.379  13.340  1.00  0.00    -0.339 N 
ATOM      4  H2  UNL     1      10.169  -0.020  12.621  1.00  0.00     0.167 HD
HETATM    5  C2  UNL     1      12.054  -0.036  13.440  1.00  0.00     0.183 A 
HETATM    6  N3  UNL     1      12.907   0.445  14.365  1.00  0.00    -0.337 N 
ATOM      7  H3  UNL     1      13.868   0.108  14.411  1.00  0.00     0.168 HD
HETATM    8  C3  UNL     1      12.464   1.381  15.230  1.00  0.00     0.137 A 
HETATM    9  N4  UNL     1      13.012   2.070  16.256  1.00  0.00    -0.337 N 
ATOM     10  H4  UNL     1      13.976   1.972  16.575  1.00  0.00     0.168 HD
HETATM   11  C4  UNL     1      12.106   2.902  16.797  1.00  0.00     0.182 A 
HETATM   12  N5  UNL     1      10.968   2.735  16.102  1.00  0.00    -0.347 N 
ATOM     13  H5  UNL     1      10.096   3.233  16.278  1.00  0.00     0.167 HD
HETATM   14  C5  UNL     1      11.150   1.813  15.135  1.00  0.00     0.119 A 
ENDROOT
TORSDOF 0
ENDMDL
