MODEL 1
REMARK VINA RESULT: -5.246818825      0.000      0.000
REMARK  0 active torsions:
REMARK  status: ('A' for Active; 'I' for Inactive)
ROOT
HETATM    1  N1  UNL     1       8.665   1.861  14.116  1.00  0.00    -0.080 NA
HETATM    2  C1  UNL     1       9.959   1.961  14.692  1.00  0.00     0.147 A 
HETATM    3  N2  UNL     1      10.254   2.871  15.644  1.00  0.00    -0.339 N 
ATOM      4  H2  UNL     1       9.530   3.512  15.968  1.00  0.00     0.167 HD
HETATM    5  C2  UNL     1      11.495   2.944  16.175  1.00  0.00     0.183 A 
HETATM    6  N3  UNL     1      12.500   2.131  15.795  1.00  0.00    -0.337 N 
ATOM      7  H3  UNL     1      13.424   2.216  16.217  1.00  0.00     0.168 HD
HETATM    8  C3  UNL     1      12.260   1.204  14.846  1.00  0.00     0.137 A 
HETATM    9  N4  UNL     1      12.997   0.248  14.234  1.00  0.00    -0.337 N 
ATOM     10  H4  UNL     1      13.981   0.060  14.425  1.00  0.00     0.168 HD
HETATM   11  C4  UNL     1      12.248  -0.417  13.339  1.00  0.00     0.182 A 
HETATM   12  N5  UNL     1      11.019   0.127  13.385  1.00  0.00    -0.347 N 
ATOM     13  H5  UNL     1      10.227  -0.169  12.816  1.00  0.00     0.167 HD
HETATM   14  C5  UNL     1      10.989   1.121  14.296  1.00  0.00     0.119 A 
ENDROOT
TORSDOF 0
ENDMDL
