MODEL 13
REMARK VINA RESULT: -6.354314788      6.251      8.267
REMARK  5 active torsions:
REMARK  status: ('A' for Active; 'I' for Inactive)
REMARK    1  A    between atoms: C1_2  and  C2_4 
REMARK    2  A    between atoms: C2_4  and  C3_5 
REMARK    3  A    between atoms: C3_5  and  C4_6 
REMARK    4  A    between atoms: C3_5  and  C11_13 
REMARK    5  A    between atoms: C4_6  and  C5_7 
ROOT
HETATM    1  C3  UNL     1      62.605  40.964  66.211  1.00  0.00     0.101 C 
ENDROOT
BRANCH   1   2
HETATM    2  C2  UNL     1      61.162  40.586  65.922  1.00  0.00     0.128 C 
BRANCH   2   3
HETATM    3  C1  UNL     1      60.180  41.520  66.465  1.00  0.00     0.173 C 
HETATM    4  O1  UNL     1      60.328  42.031  67.592  1.00  0.00    -0.648 OA
HETATM    5  O2  UNL     1      59.024  41.895  65.763  1.00  0.00    -0.648 OA
ENDBRANCH   2   3
ENDBRANCH   1   2
BRANCH   1   6
HETATM    6  C4  UNL     1      63.382  39.660  66.156  1.00  0.00     0.054 C 
BRANCH   6   7
HETATM    7  C5  UNL     1      63.892  39.241  67.479  1.00  0.00    -0.057 A 
HETATM    8  C6  UNL     1      64.848  39.985  68.141  1.00  0.00     0.007 A 
HETATM    9  C7  UNL     1      65.353  39.649  69.376  1.00  0.00     0.001 A 
HETATM   10  C8  UNL     1      64.842  38.493  69.954  1.00  0.00     0.000 A 
HETATM   11  C9  UNL     1      63.893  37.713  69.349  1.00  0.00     0.001 A 
HETATM   12  C10 UNL     1      63.421  38.105  68.093  1.00  0.00     0.007 A 
ENDBRANCH   6   7
ENDBRANCH   1   6
BRANCH   1  13
HETATM   13  C11 UNL     1      63.148  41.866  65.190  1.00  0.00     0.177 C 
HETATM   14  O3  UNL     1      64.325  42.238  65.231  1.00  0.00    -0.648 OA
HETATM   15  O4  UNL     1      62.338  42.319  64.157  1.00  0.00    -0.648 OA
ENDBRANCH   1  13
TORSDOF 5
ENDMDL
