MODEL 6
REMARK VINA RESULT: -7.087907450      0.984      3.307
REMARK  5 active torsions:
REMARK  status: ('A' for Active; 'I' for Inactive)
REMARK    1  A    between atoms: C1_2  and  C2_4 
REMARK    2  A    between atoms: C2_4  and  C3_5 
REMARK    3  A    between atoms: C3_5  and  C4_6 
REMARK    4  A    between atoms: C3_5  and  C11_13 
REMARK    5  A    between atoms: C4_6  and  C5_7 
ROOT
HETATM    1  C3  UNL     1      64.334  34.632  72.026  1.00  0.00     0.101 C 
ENDROOT
BRANCH   1   2
HETATM    2  C2  UNL     1      65.181  33.382  71.849  1.00  0.00     0.128 C 
BRANCH   2   3
HETATM    3  C1  UNL     1      66.453  33.614  71.171  1.00  0.00     0.173 C 
HETATM    4  O1  UNL     1      66.863  32.840  70.284  1.00  0.00    -0.648 OA
HETATM    5  O2  UNL     1      67.281  34.706  71.471  1.00  0.00    -0.648 OA
ENDBRANCH   2   3
ENDBRANCH   1   2
BRANCH   1   6
HETATM    6  C4  UNL     1      63.746  34.917  70.655  1.00  0.00     0.054 C 
BRANCH   6   7
HETATM    7  C5  UNL     1      64.046  36.284  70.177  1.00  0.00    -0.057 A 
HETATM    8  C6  UNL     1      63.446  36.788  69.041  1.00  0.00     0.007 A 
HETATM    9  C7  UNL     1      63.678  38.054  68.555  1.00  0.00     0.001 A 
HETATM   10  C8  UNL     1      64.572  38.835  69.278  1.00  0.00     0.000 A 
HETATM   11  C9  UNL     1      65.200  38.393  70.412  1.00  0.00     0.001 A 
HETATM   12  C10 UNL     1      64.924  37.096  70.856  1.00  0.00     0.007 A 
ENDBRANCH   6   7
ENDBRANCH   1   6
BRANCH   1  13
HETATM   13  C11 UNL     1      63.229  34.414  72.964  1.00  0.00     0.177 C 
HETATM   14  O3  UNL     1      63.435  33.962  74.096  1.00  0.00    -0.648 OA
HETATM   15  O4  UNL     1      61.926  34.714  72.591  1.00  0.00    -0.648 OA
ENDBRANCH   1  13
TORSDOF 5
ENDMDL
