MODEL 12
REMARK VINA RESULT: -6.413914154      5.291      7.603
REMARK  5 active torsions:
REMARK  status: ('A' for Active; 'I' for Inactive)
REMARK    1  A    between atoms: C1_2  and  C2_4 
REMARK    2  A    between atoms: C2_4  and  C3_5 
REMARK    3  A    between atoms: C3_5  and  C4_6 
REMARK    4  A    between atoms: C3_5  and  C11_13 
REMARK    5  A    between atoms: C4_6  and  C5_7 
ROOT
HETATM    1  C3  UNL     1      62.510  39.841  66.855  1.00  0.00     0.101 C 
ENDROOT
BRANCH   1   2
HETATM    2  C2  UNL     1      62.777  39.298  65.460  1.00  0.00     0.128 C 
BRANCH   2   3
HETATM    3  C1  UNL     1      61.610  38.699  64.820  1.00  0.00     0.173 C 
HETATM    4  O1  UNL     1      60.685  39.404  64.372  1.00  0.00    -0.648 OA
HETATM    5  O2  UNL     1      61.458  37.312  64.672  1.00  0.00    -0.648 OA
ENDBRANCH   2   3
ENDBRANCH   1   2
BRANCH   1   6
HETATM    6  C4  UNL     1      63.874  39.944  67.515  1.00  0.00     0.054 C 
BRANCH   6   7
HETATM    7  C5  UNL     1      64.099  38.893  68.531  1.00  0.00    -0.057 A 
HETATM    8  C6  UNL     1      63.403  37.702  68.488  1.00  0.00     0.007 A 
HETATM    9  C7  UNL     1      63.577  36.685  69.399  1.00  0.00     0.001 A 
HETATM   10  C8  UNL     1      64.516  36.912  70.399  1.00  0.00     0.000 A 
HETATM   11  C9  UNL     1      65.238  38.072  70.496  1.00  0.00     0.001 A 
HETATM   12  C10 UNL     1      65.015  39.068  69.541  1.00  0.00     0.007 A 
ENDBRANCH   6   7
ENDBRANCH   1   6
BRANCH   1  13
HETATM   13  C11 UNL     1      61.916  41.181  66.815  1.00  0.00     0.177 C 
HETATM   14  O3  UNL     1      62.516  42.127  66.293  1.00  0.00    -0.648 OA
HETATM   15  O4  UNL     1      60.663  41.407  67.367  1.00  0.00    -0.648 OA
ENDBRANCH   1  13
TORSDOF 5
ENDMDL
