MODEL 4
REMARK VINA RESULT: -7.159763622      0.868      3.071
REMARK  5 active torsions:
REMARK  status: ('A' for Active; 'I' for Inactive)
REMARK    1  A    between atoms: C1_2  and  C2_4 
REMARK    2  A    between atoms: C2_4  and  C3_5 
REMARK    3  A    between atoms: C3_5  and  C4_6 
REMARK    4  A    between atoms: C3_5  and  C11_13 
REMARK    5  A    between atoms: C4_6  and  C5_7 
ROOT
HETATM    1  C3  UNL     1      64.061  34.473  71.993  1.00  0.00     0.101 C 
ENDROOT
BRANCH   1   2
HETATM    2  C2  UNL     1      64.970  33.386  71.444  1.00  0.00     0.128 C 
BRANCH   2   3
HETATM    3  C1  UNL     1      66.179  33.165  72.230  1.00  0.00     0.173 C 
HETATM    4  O1  UNL     1      66.864  34.119  72.645  1.00  0.00    -0.648 OA
HETATM    5  O2  UNL     1      66.641  31.882  72.563  1.00  0.00    -0.648 OA
ENDBRANCH   2   3
ENDBRANCH   1   2
BRANCH   1   6
HETATM    6  C4  UNL     1      63.313  35.021  70.790  1.00  0.00     0.054 C 
BRANCH   6   7
HETATM    7  C5  UNL     1      63.829  36.332  70.343  1.00  0.00    -0.057 A 
HETATM    8  C6  UNL     1      64.727  37.043  71.112  1.00  0.00     0.007 A 
HETATM    9  C7  UNL     1      65.248  38.263  70.744  1.00  0.00     0.001 A 
HETATM   10  C8  UNL     1      64.821  38.768  69.521  1.00  0.00     0.000 A 
HETATM   11  C9  UNL     1      63.933  38.110  68.712  1.00  0.00     0.001 A 
HETATM   12  C10 UNL     1      63.438  36.876  69.142  1.00  0.00     0.007 A 
ENDBRANCH   6   7
ENDBRANCH   1   6
BRANCH   1  13
HETATM   13  C11 UNL     1      63.079  33.937  72.941  1.00  0.00     0.177 C 
HETATM   14  O3  UNL     1      62.510  34.674  73.753  1.00  0.00    -0.648 OA
HETATM   15  O4  UNL     1      62.773  32.582  72.938  1.00  0.00    -0.648 OA
ENDBRANCH   1  13
TORSDOF 5
ENDMDL
