MODEL 7
REMARK VINA RESULT: -6.694821197      0.838      3.151
REMARK  5 active torsions:
REMARK  status: ('A' for Active; 'I' for Inactive)
REMARK    1  A    between atoms: C1_2  and  C2_4 
REMARK    2  A    between atoms: C2_4  and  C3_5 
REMARK    3  A    between atoms: C3_5  and  C4_6 
REMARK    4  A    between atoms: C3_5  and  C11_13 
REMARK    5  A    between atoms: C4_6  and  C5_7 
ROOT
HETATM    1  C3  UNL     1      64.533  34.545  72.672  1.00  0.00     0.101 C 
ENDROOT
BRANCH   1   2
HETATM    2  C2  UNL     1      65.207  34.371  71.321  1.00  0.00     0.128 C 
BRANCH   2   3
HETATM    3  C1  UNL     1      66.290  33.392  71.316  1.00  0.00     0.173 C 
HETATM    4  O1  UNL     1      66.811  33.010  70.251  1.00  0.00    -0.648 OA
HETATM    5  O2  UNL     1      66.803  32.827  72.493  1.00  0.00    -0.648 OA
ENDBRANCH   2   3
ENDBRANCH   1   2
BRANCH   1   6
HETATM    6  C4  UNL     1      64.133  36.008  72.738  1.00  0.00     0.054 C 
BRANCH   6   7
HETATM    7  C5  UNL     1      64.152  36.668  71.415  1.00  0.00    -0.057 A 
HETATM    8  C6  UNL     1      63.298  36.267  70.408  1.00  0.00     0.007 A 
HETATM    9  C7  UNL     1      63.265  36.849  69.161  1.00  0.00     0.001 A 
HETATM   10  C8  UNL     1      64.155  37.895  68.949  1.00  0.00     0.000 A 
HETATM   11  C9  UNL     1      65.027  38.339  69.907  1.00  0.00     0.001 A 
HETATM   12  C10 UNL     1      65.015  37.707  71.154  1.00  0.00     0.007 A 
ENDBRANCH   6   7
ENDBRANCH   1   6
BRANCH   1  13
HETATM   13  C11 UNL     1      63.319  33.730  72.785  1.00  0.00     0.177 C 
HETATM   14  O3  UNL     1      62.222  34.251  73.013  1.00  0.00    -0.648 OA
HETATM   15  O4  UNL     1      63.387  32.351  72.639  1.00  0.00    -0.648 OA
ENDBRANCH   1  13
TORSDOF 5
ENDMDL
