MODEL 3
REMARK VINA RESULT: -7.220632141      1.492      2.058
REMARK  3 active torsions:
REMARK  status: ('A' for Active; 'I' for Inactive)
REMARK    1  A    between atoms: C2_2  and  C5_5 
REMARK    2  A    between atoms: C6_10  and  C7_11 
REMARK    3  A    between atoms: C7_11  and  C8_13 
ROOT
HETATM    1  C5  UNL     1      22.949   2.841  -9.198  1.00  0.00     0.148 A 
HETATM    2  N1  UNL     1      22.764   2.254 -10.369  1.00  0.00    -0.281 N 
ATOM      3  H1  UNL     1      23.139   2.587 -11.257  1.00  0.00     0.189 HD
HETATM    4  N2  UNL     1      22.024   1.178 -10.216  1.00  0.00    -0.275 N 
ATOM      5  H2  UNL     1      21.714   0.527 -10.937  1.00  0.00     0.189 HD
HETATM    6  C6  UNL     1      21.755   1.125  -8.825  1.00  0.00     0.212 A 
HETATM    7  O2  UNL     1      22.326   2.124  -8.306  1.00  0.00    -0.274 OA
ENDROOT
BRANCH   6   8
HETATM    8  C7  UNL     1      20.943   0.092  -8.164  1.00  0.00     0.232 C 
HETATM    9  O1  UNL     1      21.510  -0.927  -7.750  1.00  0.00    -0.286 OA
BRANCH   8  10
HETATM   10  C8  UNL     1      19.498   0.345  -8.004  1.00  0.00     0.263 C 
HETATM   11  C9  UNL     1      18.984  -0.514  -6.802  1.00  0.00     0.043 C 
HETATM   12  C10 UNL     1      17.487  -0.308  -6.971  1.00  0.00     0.030 C 
HETATM   13  C11 UNL     1      17.349  -0.000  -8.426  1.00  0.00     0.233 C 
HETATM   14  N3  UNL     1      18.676  -0.268  -9.044  1.00  0.00    -0.064 N 
ATOM     15  H32 UNL     1      18.816   0.065  -9.998  1.00  0.00     0.278 HD
ATOM     16  H31 UNL     1      18.885  -1.236  -9.286  1.00  0.00     0.278 HD
ENDBRANCH   8  10
ENDBRANCH   6   8
BRANCH   1  17
HETATM   17  C2  UNL     1      23.712   4.083  -8.886  1.00  0.00     0.016 C 
HETATM   18  C1  UNL     1      24.742   3.662  -7.809  1.00  0.00     0.023 C 
HETATM   19  C3  UNL     1      24.567   4.396 -10.124  1.00  0.00     0.023 C 
HETATM   20  C4  UNL     1      22.916   5.274  -8.491  1.00  0.00     0.023 C 
ENDBRANCH   1  17
TORSDOF 3
ENDMDL
