MODEL 5
REMARK VINA RESULT: -6.634335190      4.418      6.344
REMARK  3 active torsions:
REMARK  status: ('A' for Active; 'I' for Inactive)
REMARK    1  A    between atoms: C2_2  and  C5_5 
REMARK    2  A    between atoms: C6_10  and  C7_11 
REMARK    3  A    between atoms: C7_11  and  C8_13 
ROOT
HETATM    1  C5  UNL     1      26.453   1.676  -8.265  1.00  0.00     0.148 A 
HETATM    2  N1  UNL     1      25.356   1.694  -7.526  1.00  0.00    -0.281 N 
ATOM      3  H1  UNL     1      25.334   1.644  -6.508  1.00  0.00     0.189 HD
HETATM    4  N2  UNL     1      24.298   1.787  -8.301  1.00  0.00    -0.275 N 
ATOM      5  H2  UNL     1      23.319   1.818  -8.018  1.00  0.00     0.189 HD
HETATM    6  C6  UNL     1      24.823   1.833  -9.617  1.00  0.00     0.212 A 
HETATM    7  O2  UNL     1      26.078   1.763  -9.510  1.00  0.00    -0.274 OA
ENDROOT
BRANCH   6   8
HETATM    8  C7  UNL     1      24.015   1.925 -10.843  1.00  0.00     0.232 C 
HETATM    9  O1  UNL     1      23.101   1.109 -11.008  1.00  0.00    -0.286 OA
BRANCH   8  10
HETATM   10  C8  UNL     1      24.323   3.010 -11.795  1.00  0.00     0.263 C 
HETATM   11  C9  UNL     1      24.736   2.359 -13.156  1.00  0.00     0.043 C 
HETATM   12  C10 UNL     1      25.239   3.597 -13.882  1.00  0.00     0.030 C 
HETATM   13  C11 UNL     1      25.642   4.504 -12.765  1.00  0.00     0.233 C 
HETATM   14  N3  UNL     1      25.582   3.695 -11.518  1.00  0.00    -0.064 N 
ATOM     15  H32 UNL     1      25.646   4.202 -10.636  1.00  0.00     0.278 HD
ATOM     16  H31 UNL     1      26.390   3.108 -11.311  1.00  0.00     0.278 HD
ENDBRANCH   8  10
ENDBRANCH   6   8
BRANCH   1  17
HETATM   17  C2  UNL     1      27.873   1.577  -7.825  1.00  0.00     0.016 C 
HETATM   18  C1  UNL     1      28.663   1.193  -9.100  1.00  0.00     0.023 C 
HETATM   19  C3  UNL     1      28.336   3.008  -7.510  1.00  0.00     0.023 C 
HETATM   20  C4  UNL     1      28.155   0.675  -6.677  1.00  0.00     0.023 C 
ENDBRANCH   1  17
TORSDOF 3
ENDMDL
