MODEL 6
REMARK VINA RESULT: -6.536815494      1.724      6.128
REMARK  3 active torsions:
REMARK  status: ('A' for Active; 'I' for Inactive)
REMARK    1  A    between atoms: C2_2  and  C5_5 
REMARK    2  A    between atoms: C6_10  and  C7_11 
REMARK    3  A    between atoms: C7_11  and  C8_13 
ROOT
HETATM    1  C5  UNL     1      20.025   0.695  -8.090  1.00  0.00     0.148 A 
HETATM    2  N1  UNL     1      20.019   2.013  -7.967  1.00  0.00    -0.281 N 
ATOM      3  H1  UNL     1      19.257   2.561  -7.569  1.00  0.00     0.189 HD
HETATM    4  N2  UNL     1      21.143   2.509  -8.436  1.00  0.00    -0.275 N 
ATOM      5  H2  UNL     1      21.422   3.489  -8.479  1.00  0.00     0.189 HD
HETATM    6  C6  UNL     1      21.880   1.377  -8.868  1.00  0.00     0.212 A 
HETATM    7  O2  UNL     1      21.163   0.366  -8.633  1.00  0.00    -0.274 OA
ENDROOT
BRANCH   6   8
HETATM    8  C7  UNL     1      23.214   1.427  -9.485  1.00  0.00     0.232 C 
HETATM    9  O1  UNL     1      23.336   1.046 -10.655  1.00  0.00    -0.286 OA
BRANCH   8  10
HETATM   10  C8  UNL     1      24.330   1.960  -8.679  1.00  0.00     0.263 C 
HETATM   11  C9  UNL     1      24.373   3.511  -8.873  1.00  0.00     0.043 C 
HETATM   12  C10 UNL     1      25.698   3.811  -8.190  1.00  0.00     0.030 C 
HETATM   13  C11 UNL     1      26.443   2.522  -8.316  1.00  0.00     0.233 C 
HETATM   14  N3  UNL     1      25.648   1.659  -9.231  1.00  0.00    -0.064 N 
ATOM     15  H32 UNL     1      25.913   0.676  -9.283  1.00  0.00     0.278 HD
ATOM     16  H31 UNL     1      25.774   1.810 -10.232  1.00  0.00     0.278 HD
ENDBRANCH   8  10
ENDBRANCH   6   8
BRANCH   1  17
HETATM   17  C2  UNL     1      18.970  -0.283  -7.702  1.00  0.00     0.016 C 
HETATM   18  C1  UNL     1      19.733  -1.451  -7.030  1.00  0.00     0.023 C 
HETATM   19  C3  UNL     1      18.176   0.359  -6.554  1.00  0.00     0.023 C 
HETATM   20  C4  UNL     1      18.051  -0.736  -8.779  1.00  0.00     0.023 C 
ENDBRANCH   1  17
TORSDOF 3
ENDMDL
