MODEL 2
REMARK VINA RESULT: -7.783420728      0.121      1.077
REMARK  3 active torsions:
REMARK  status: ('A' for Active; 'I' for Inactive)
REMARK    1  A    between atoms: C2_2  and  C5_5 
REMARK    2  A    between atoms: C6_10  and  C7_11 
REMARK    3  A    between atoms: C7_11  and  C8_13 
ROOT
HETATM    1  C5  UNL     1      23.064   2.234 -10.039  1.00  0.00     0.148 A 
HETATM    2  N1  UNL     1      22.405   3.144  -9.340  1.00  0.00    -0.281 N 
ATOM      3  H1  UNL     1      22.559   4.150  -9.394  1.00  0.00     0.189 HD
HETATM    4  N2  UNL     1      21.520   2.556  -8.565  1.00  0.00    -0.275 N 
ATOM      5  H2  UNL     1      20.871   2.996  -7.913  1.00  0.00     0.189 HD
HETATM    6  C6  UNL     1      21.669   1.173  -8.839  1.00  0.00     0.212 A 
HETATM    7  O2  UNL     1      22.584   1.070  -9.702  1.00  0.00    -0.274 OA
ENDROOT
BRANCH   6   8
HETATM    8  C7  UNL     1      20.896   0.099  -8.197  1.00  0.00     0.232 C 
HETATM    9  O1  UNL     1      21.499  -0.907  -7.805  1.00  0.00    -0.286 OA
BRANCH   8  10
HETATM   10  C8  UNL     1      19.443   0.298  -8.028  1.00  0.00     0.263 C 
HETATM   11  C9  UNL     1      18.962  -0.609  -6.849  1.00  0.00     0.043 C 
HETATM   12  C10 UNL     1      17.458  -0.450  -7.010  1.00  0.00     0.030 C 
HETATM   13  C11 UNL     1      17.306  -0.109  -8.457  1.00  0.00     0.233 C 
HETATM   14  N3  UNL     1      18.641  -0.314  -9.083  1.00  0.00    -0.064 N 
ATOM     15  H32 UNL     1      18.766   0.049 -10.028  1.00  0.00     0.278 HD
ATOM     16  H31 UNL     1      18.882  -1.268  -9.351  1.00  0.00     0.278 HD
ENDBRANCH   8  10
ENDBRANCH   6   8
BRANCH   1  17
HETATM   17  C2  UNL     1      24.154   2.433 -11.035  1.00  0.00     0.016 C 
HETATM   18  C1  UNL     1      24.887   3.718 -10.578  1.00  0.00     0.023 C 
HETATM   19  C3  UNL     1      25.177   1.310 -10.796  1.00  0.00     0.023 C 
HETATM   20  C4  UNL     1      23.752   2.473 -12.465  1.00  0.00     0.023 C 
ENDBRANCH   1  17
TORSDOF 3
ENDMDL
