MODEL 4
REMARK VINA RESULT: -6.641952053      1.377      5.955
REMARK  3 active torsions:
REMARK  status: ('A' for Active; 'I' for Inactive)
REMARK    1  A    between atoms: C2_2  and  C5_5 
REMARK    2  A    between atoms: C6_10  and  C7_11 
REMARK    3  A    between atoms: C7_11  and  C8_13 
ROOT
HETATM    1  C5  UNL     1      20.006   0.706  -8.050  1.00  0.00     0.148 A 
HETATM    2  N1  UNL     1      19.973   2.027  -7.991  1.00  0.00    -0.281 N 
ATOM      3  H1  UNL     1      19.167   2.581  -7.700  1.00  0.00     0.189 HD
HETATM    4  N2  UNL     1      21.133   2.520  -8.366  1.00  0.00    -0.275 N 
ATOM      5  H2  UNL     1      21.404   3.501  -8.426  1.00  0.00     0.189 HD
HETATM    6  C6  UNL     1      21.923   1.382  -8.666  1.00  0.00     0.212 A 
HETATM    7  O2  UNL     1      21.198   0.370  -8.458  1.00  0.00    -0.274 OA
ENDROOT
BRANCH   6   8
HETATM    8  C7  UNL     1      23.313   1.425  -9.144  1.00  0.00     0.232 C 
HETATM    9  O1  UNL     1      24.225   1.351  -8.312  1.00  0.00    -0.286 OA
BRANCH   8  10
HETATM   10  C8  UNL     1      23.542   1.523 -10.599  1.00  0.00     0.263 C 
HETATM   11  C9  UNL     1      25.086   1.545 -10.848  1.00  0.00     0.043 C 
HETATM   12  C10 UNL     1      25.094   1.896 -12.328  1.00  0.00     0.030 C 
HETATM   13  C11 UNL     1      23.795   2.610 -12.514  1.00  0.00     0.233 C 
HETATM   14  N3  UNL     1      23.238   2.839 -11.153  1.00  0.00    -0.064 N 
ATOM     15  H32 UNL     1      22.268   3.149 -11.099  1.00  0.00     0.278 HD
ATOM     16  H31 UNL     1      23.590   3.647 -10.641  1.00  0.00     0.278 HD
ENDBRANCH   8  10
ENDBRANCH   6   8
BRANCH   1  17
HETATM   17  C2  UNL     1      18.928  -0.270  -7.726  1.00  0.00     0.016 C 
HETATM   18  C1  UNL     1      19.653  -1.458  -7.046  1.00  0.00     0.023 C 
HETATM   19  C3  UNL     1      18.092   0.357  -6.599  1.00  0.00     0.023 C 
HETATM   20  C4  UNL     1      18.051  -0.694  -8.849  1.00  0.00     0.023 C 
ENDBRANCH   1  17
TORSDOF 3
ENDMDL
