MODEL 1
REMARK VINA RESULT: -7.808451080      0.000      0.000
REMARK  3 active torsions:
REMARK  status: ('A' for Active; 'I' for Inactive)
REMARK    1  A    between atoms: C2_2  and  C5_5 
REMARK    2  A    between atoms: C6_10  and  C7_11 
REMARK    3  A    between atoms: C7_11  and  C8_13 
ROOT
HETATM    1  C5  UNL     1      23.086   2.184  -9.921  1.00  0.00     0.148 A 
HETATM    2  N1  UNL     1      22.377   3.102  -9.283  1.00  0.00    -0.281 N 
ATOM      3  H1  UNL     1      22.526   4.108  -9.352  1.00  0.00     0.189 HD
HETATM    4  N2  UNL     1      21.454   2.521  -8.549  1.00  0.00    -0.275 N 
ATOM      5  H2  UNL     1      20.764   2.969  -7.946  1.00  0.00     0.189 HD
HETATM    6  C6  UNL     1      21.633   1.134  -8.782  1.00  0.00     0.212 A 
HETATM    7  O2  UNL     1      22.598   1.022  -9.587  1.00  0.00    -0.274 OA
ENDROOT
BRANCH   6   8
HETATM    8  C7  UNL     1      20.833   0.066  -8.163  1.00  0.00     0.232 C 
HETATM    9  O1  UNL     1      21.415  -0.949  -7.764  1.00  0.00    -0.286 OA
BRANCH   8  10
HETATM   10  C8  UNL     1      19.379   0.282  -8.024  1.00  0.00     0.263 C 
HETATM   11  C9  UNL     1      18.871  -0.585  -6.826  1.00  0.00     0.043 C 
HETATM   12  C10 UNL     1      17.372  -0.420  -7.016  1.00  0.00     0.030 C 
HETATM   13  C11 UNL     1      17.247  -0.120  -8.475  1.00  0.00     0.233 C 
HETATM   14  N3  UNL     1      18.589  -0.356  -9.073  1.00  0.00    -0.064 N 
ATOM     15  H32 UNL     1      18.733  -0.022 -10.026  1.00  0.00     0.278 HD
ATOM     16  H31 UNL     1      18.826  -1.319  -9.308  1.00  0.00     0.278 HD
ENDBRANCH   8  10
ENDBRANCH   6   8
BRANCH   1  17
HETATM   17  C2  UNL     1      24.231   2.372 -10.855  1.00  0.00     0.016 C 
HETATM   18  C1  UNL     1      23.587   2.534 -12.254  1.00  0.00     0.023 C 
HETATM   19  C3  UNL     1      24.825   3.756 -10.550  1.00  0.00     0.023 C 
HETATM   20  C4  UNL     1      25.294   1.333 -10.826  1.00  0.00     0.023 C 
ENDBRANCH   1  17
TORSDOF 3
ENDMDL
