MODEL 11
REMARK VINA RESULT: -8.222301121      1.902      2.394
REMARK  11 active torsions:
REMARK  status: ('A' for Active; 'I' for Inactive)
REMARK    1  A    between atoms: N1_2  and  C2_3 
REMARK    2  A    between atoms: C2_3  and  C3_4 
REMARK    3  A    between atoms: C3_4  and  C4_5 
REMARK    4  A    between atoms: C4_5  and  N2_6 
REMARK    5  A    between atoms: C4_5  and  C5_10 
REMARK    6  A    between atoms: C5_10  and  C6_11 
REMARK       I    between atoms: C6_11  and  N3_13 
REMARK    7  A    between atoms: N3_13  and  C7_15 
REMARK    8  A    between atoms: C10_18  and  N4_19 
REMARK    9  A    between atoms: C13_22  and  N5_23 
REMARK   10  A    between atoms: C13_22  and  O2_27 
REMARK   11  A    between atoms: C15_34  and  C16_35 
ROOT
HETATM    1  C7  UNL     1      45.223  19.868  37.832  1.00  0.00     0.147 C 
HETATM    2  C8  UNL     1      44.631  19.225  39.016  1.00  0.00     0.002 C 
HETATM    3  C9  UNL     1      43.986  18.078  38.964  1.00  0.00     0.025 C 
HETATM    4  C10 UNL     1      43.846  17.391  37.652  1.00  0.00     0.257 C 
HETATM    5  O4  UNL     1      45.047  17.602  36.970  1.00  0.00    -0.344 OA
HETATM    6  C15 UNL     1      45.232  18.937  36.672  1.00  0.00     0.251 C 
ENDROOT
BRANCH   1   7
HETATM    7  N3  UNL     1      44.443  21.077  37.565  1.00  0.00    -0.350 N 
HETATM    8  C6  UNL     1      45.030  22.358  37.443  1.00  0.00     0.220 C 
HETATM    9  O1  UNL     1      46.267  22.470  37.569  1.00  0.00    -0.274 OA
ATOM     10  H3  UNL     1      43.432  20.992  37.461  1.00  0.00     0.163 HD
BRANCH   8  11
HETATM   11  C5  UNL     1      44.203  23.547  37.173  1.00  0.00     0.135 C 
BRANCH  11  12
HETATM   12  C4  UNL     1      44.960  24.772  37.649  1.00  0.00     0.193 C 
BRANCH  12  13
HETATM   13  C3  UNL     1      44.010  25.756  38.307  1.00  0.00     0.053 C 
BRANCH  13  14
HETATM   14  C2  UNL     1      43.923  27.068  37.556  1.00  0.00     0.126 C 
BRANCH  14  15
HETATM   15  N1  UNL     1      42.571  27.199  37.000  1.00  0.00    -0.362 N 
HETATM   16  C1  UNL     1      41.611  26.169  37.286  1.00  0.00     0.152 C 
HETATM   17  C17 UNL     1      42.234  28.197  36.272  1.00  0.00     0.198 C 
HETATM   18  N7  UNL     1      43.175  29.205  35.992  1.00  0.00    -0.067 NA
HETATM   19  N8  UNL     1      40.925  28.289  35.749  1.00  0.00    -0.067 NA
ENDBRANCH  14  15
ENDBRANCH  13  14
ENDBRANCH  12  13
BRANCH  12  20
HETATM   20  N2  UNL     1      45.704  25.376  36.578  1.00  0.00    -0.074 N 
ATOM     21  H23 UNL     1      46.085  24.670  35.949  1.00  0.00     0.274 HD
ATOM     22  H22 UNL     1      45.086  25.857  35.924  1.00  0.00     0.274 HD
ATOM     23  H21 UNL     1      46.434  25.998  36.923  1.00  0.00     0.274 HD
ENDBRANCH  12  20
ENDBRANCH  11  12
ENDBRANCH   8  11
ENDBRANCH   1   7
BRANCH   6  24
HETATM   24  C16 UNL     1      46.588  19.061  36.024  1.00  0.00     0.205 C 
HETATM   25  O5  UNL     1      46.725  19.543  34.871  1.00  0.00    -0.646 OA
HETATM   26  O6  UNL     1      47.739  18.646  36.677  1.00  0.00    -0.646 OA
ENDBRANCH   6  24
BRANCH   4  27
HETATM   27  N4  UNL     1      43.736  15.970  37.941  1.00  0.00    -0.279 N 
HETATM   28  C11 UNL     1      44.851  15.112  37.747  1.00  0.00     0.101 A 
HETATM   29  C12 UNL     1      44.821  13.821  37.986  1.00  0.00     0.082 A 
HETATM   30  C13 UNL     1      43.619  13.133  38.483  1.00  0.00     0.326 A 
HETATM   31  N6  UNL     1      42.489  14.007  38.680  1.00  0.00    -0.284 N 
HETATM   32  C14 UNL     1      42.529  15.402  38.419  1.00  0.00     0.328 A 
ATOM     33  H6  UNL     1      41.617  13.603  39.025  1.00  0.00     0.169 HD
HETATM   34  O3  UNL     1      41.517  16.129  38.605  1.00  0.00    -0.247 OA
BRANCH  30  35
HETATM   35  N5  UNL     1      43.320  12.067  37.542  1.00  0.00    -0.024 N 
ATOM     36  H53 UNL     1      44.103  11.844  36.927  1.00  0.00     0.280 HD
ATOM     37  H52 UNL     1      43.237  11.152  37.986  1.00  0.00     0.280 HD
ATOM     38  H51 UNL     1      42.479  12.344  37.036  1.00  0.00     0.280 HD
ENDBRANCH  30  35
BRANCH  30  39
HETATM   39  O2  UNL     1      43.935  12.596  39.749  1.00  0.00    -0.346 OA
ATOM     40  H2  UNL     1      43.532  11.737  39.801  1.00  0.00     0.214 HD
ENDBRANCH  30  39
ENDBRANCH   4  27
TORSDOF 11
ENDMDL
