MODEL 1
REMARK VINA RESULT: -9.257856895      0.000      0.000
REMARK  11 active torsions:
REMARK  status: ('A' for Active; 'I' for Inactive)
REMARK    1  A    between atoms: N1_2  and  C2_3 
REMARK    2  A    between atoms: C2_3  and  C3_4 
REMARK    3  A    between atoms: C3_4  and  C4_5 
REMARK    4  A    between atoms: C4_5  and  N2_6 
REMARK    5  A    between atoms: C4_5  and  C5_10 
REMARK    6  A    between atoms: C5_10  and  C6_11 
REMARK       I    between atoms: C6_11  and  N3_13 
REMARK    7  A    between atoms: N3_13  and  C7_15 
REMARK    8  A    between atoms: C10_18  and  N4_19 
REMARK    9  A    between atoms: C13_22  and  N5_23 
REMARK   10  A    between atoms: C13_22  and  O2_27 
REMARK   11  A    between atoms: C15_34  and  C16_35 
ROOT
HETATM    1  C7  UNL     1      44.979  18.916  38.076  1.00  0.00     0.147 C 
HETATM    2  C8  UNL     1      44.669  18.334  39.392  1.00  0.00     0.002 C 
HETATM    3  C9  UNL     1      44.073  17.169  39.540  1.00  0.00     0.025 C 
HETATM    4  C10 UNL     1      43.693  16.397  38.328  1.00  0.00     0.257 C 
HETATM    5  O4  UNL     1      44.717  16.594  37.400  1.00  0.00    -0.344 OA
HETATM    6  C15 UNL     1      44.785  17.913  36.994  1.00  0.00     0.251 C 
ENDROOT
BRANCH   1   7
HETATM    7  N3  UNL     1      44.114  20.084  37.907  1.00  0.00    -0.350 N 
HETATM    8  C6  UNL     1      44.554  21.283  37.300  1.00  0.00     0.220 C 
HETATM    9  O1  UNL     1      45.729  21.355  36.888  1.00  0.00    -0.274 OA
ATOM     10  H3  UNL     1      43.153  20.031  38.243  1.00  0.00     0.163 HD
BRANCH   8  11
HETATM   11  C5  UNL     1      43.645  22.434  37.153  1.00  0.00     0.135 C 
BRANCH  11  12
HETATM   12  C4  UNL     1      44.484  23.693  37.049  1.00  0.00     0.193 C 
BRANCH  12  13
HETATM   13  C3  UNL     1      43.872  24.805  37.882  1.00  0.00     0.053 C 
BRANCH  13  14
HETATM   14  C2  UNL     1      44.824  25.329  38.936  1.00  0.00     0.126 C 
BRANCH  14  15
HETATM   15  N1  UNL     1      44.657  26.784  39.033  1.00  0.00    -0.362 N 
HETATM   16  C1  UNL     1      44.447  27.531  37.824  1.00  0.00     0.152 C 
HETATM   17  C17 UNL     1      44.697  27.395  40.158  1.00  0.00     0.198 C 
HETATM   18  N7  UNL     1      44.902  26.663  41.342  1.00  0.00    -0.067 NA
HETATM   19  N8  UNL     1      44.537  28.797  40.214  1.00  0.00    -0.067 NA
ENDBRANCH  14  15
ENDBRANCH  13  14
ENDBRANCH  12  13
BRANCH  12  20
HETATM   20  N2  UNL     1      44.670  24.086  35.680  1.00  0.00    -0.074 N 
ATOM     21  H23 UNL     1      43.984  24.786  35.399  1.00  0.00     0.274 HD
ATOM     22  H22 UNL     1      45.520  24.639  35.565  1.00  0.00     0.274 HD
ATOM     23  H21 UNL     1      44.663  23.285  35.048  1.00  0.00     0.274 HD
ENDBRANCH  12  20
ENDBRANCH  11  12
ENDBRANCH   8  11
ENDBRANCH   1   7
BRANCH   6  24
HETATM   24  C16 UNL     1      45.972  18.030  36.073  1.00  0.00     0.205 C 
HETATM   25  O5  UNL     1      47.068  17.472  36.337  1.00  0.00    -0.646 OA
HETATM   26  O6  UNL     1      45.902  18.760  34.896  1.00  0.00    -0.646 OA
ENDBRANCH   6  24
BRANCH   4  27
HETATM   27  N4  UNL     1      43.699  14.995  38.715  1.00  0.00    -0.279 N 
HETATM   28  C11 UNL     1      44.709  14.497  39.582  1.00  0.00     0.101 A 
HETATM   29  C12 UNL     1      44.776  13.244  39.971  1.00  0.00     0.082 A 
HETATM   30  C13 UNL     1      43.804  12.227  39.541  1.00  0.00     0.326 A 
HETATM   31  N6  UNL     1      42.781  12.735  38.661  1.00  0.00    -0.284 N 
HETATM   32  C14 UNL     1      42.715  14.091  38.246  1.00  0.00     0.328 A 
ATOM     33  H6  UNL     1      42.069  12.088  38.321  1.00  0.00     0.169 HD
HETATM   34  O3  UNL     1      41.802  14.492  37.474  1.00  0.00    -0.247 OA
BRANCH  30  35
HETATM   35  N5  UNL     1      44.561  11.150  38.924  1.00  0.00    -0.024 N 
ATOM     36  H53 UNL     1      45.074  10.583  39.600  1.00  0.00     0.280 HD
ATOM     37  H52 UNL     1      43.970  10.407  38.552  1.00  0.00     0.280 HD
ATOM     38  H51 UNL     1      45.163  11.576  38.219  1.00  0.00     0.280 HD
ENDBRANCH  30  35
BRANCH  30  39
HETATM   39  O2  UNL     1      43.143  11.762  40.697  1.00  0.00    -0.346 OA
ATOM     40  H2  UNL     1      42.828  12.525  41.169  1.00  0.00     0.214 HD
ENDBRANCH  30  39
ENDBRANCH   4  27
TORSDOF 11
ENDMDL
