MODEL 17
REMARK VINA RESULT: -7.845317404      1.856      2.236
REMARK  11 active torsions:
REMARK  status: ('A' for Active; 'I' for Inactive)
REMARK    1  A    between atoms: N1_2  and  C2_3 
REMARK    2  A    between atoms: C2_3  and  C3_4 
REMARK    3  A    between atoms: C3_4  and  C4_5 
REMARK    4  A    between atoms: C4_5  and  N2_6 
REMARK    5  A    between atoms: C4_5  and  C5_10 
REMARK    6  A    between atoms: C5_10  and  C6_11 
REMARK       I    between atoms: C6_11  and  N3_13 
REMARK    7  A    between atoms: N3_13  and  C7_15 
REMARK    8  A    between atoms: C10_18  and  N4_19 
REMARK    9  A    between atoms: C13_22  and  N5_23 
REMARK   10  A    between atoms: C13_22  and  O2_27 
REMARK   11  A    between atoms: C15_34  and  C16_35 
ROOT
HETATM    1  C7  UNL     1      45.276  19.837  37.858  1.00  0.00     0.147 C 
HETATM    2  C8  UNL     1      44.679  19.200  39.042  1.00  0.00     0.002 C 
HETATM    3  C9  UNL     1      44.013  18.065  38.988  1.00  0.00     0.025 C 
HETATM    4  C10 UNL     1      43.854  17.387  37.674  1.00  0.00     0.257 C 
HETATM    5  O4  UNL     1      45.054  17.578  36.986  1.00  0.00    -0.344 OA
HETATM    6  C15 UNL     1      45.262  18.912  36.693  1.00  0.00     0.251 C 
ENDROOT
BRANCH   1   7
HETATM    7  N3  UNL     1      44.518  21.061  37.599  1.00  0.00    -0.350 N 
HETATM    8  C6  UNL     1      45.110  22.237  37.082  1.00  0.00     0.220 C 
HETATM    9  O1  UNL     1      46.333  22.238  36.833  1.00  0.00    -0.274 OA
ATOM     10  H3  UNL     1      43.518  21.067  37.801  1.00  0.00     0.163 HD
BRANCH   8  11
HETATM   11  C5  UNL     1      44.304  23.446  36.838  1.00  0.00     0.135 C 
BRANCH  11  12
HETATM   12  C4  UNL     1      44.443  24.362  38.039  1.00  0.00     0.193 C 
BRANCH  12  13
HETATM   13  C3  UNL     1      44.468  25.813  37.596  1.00  0.00     0.053 C 
BRANCH  13  14
HETATM   14  C2  UNL     1      43.134  26.275  37.049  1.00  0.00     0.126 C 
BRANCH  14  15
HETATM   15  N1  UNL     1      43.017  27.722  37.263  1.00  0.00    -0.362 N 
HETATM   16  C1  UNL     1      43.922  28.353  38.184  1.00  0.00     0.152 C 
HETATM   17  C17 UNL     1      42.136  28.426  36.656  1.00  0.00     0.198 C 
HETATM   18  N7  UNL     1      41.251  27.808  35.755  1.00  0.00    -0.067 NA
HETATM   19  N8  UNL     1      42.049  29.816  36.890  1.00  0.00    -0.067 NA
ENDBRANCH  14  15
ENDBRANCH  13  14
ENDBRANCH  12  13
BRANCH  12  20
HETATM   20  N2  UNL     1      45.594  24.019  38.828  1.00  0.00    -0.074 N 
ATOM     21  H23 UNL     1      46.285  23.514  38.273  1.00  0.00     0.274 HD
ATOM     22  H22 UNL     1      46.145  24.847  39.057  1.00  0.00     0.274 HD
ATOM     23  H21 UNL     1      45.342  23.499  39.668  1.00  0.00     0.274 HD
ENDBRANCH  12  20
ENDBRANCH  11  12
ENDBRANCH   8  11
ENDBRANCH   1   7
BRANCH   6  24
HETATM   24  C16 UNL     1      46.617  19.013  36.039  1.00  0.00     0.205 C 
HETATM   25  O5  UNL     1      47.658  18.605  36.615  1.00  0.00    -0.646 OA
HETATM   26  O6  UNL     1      46.768  19.562  34.775  1.00  0.00    -0.646 OA
ENDBRANCH   6  24
BRANCH   4  27
HETATM   27  N4  UNL     1      43.718  15.967  37.958  1.00  0.00    -0.279 N 
HETATM   28  C11 UNL     1      44.823  15.093  37.776  1.00  0.00     0.101 A 
HETATM   29  C12 UNL     1      44.771  13.802  38.011  1.00  0.00     0.082 A 
HETATM   30  C13 UNL     1      43.553  13.131  38.491  1.00  0.00     0.326 A 
HETATM   31  N6  UNL     1      42.433  14.020  38.675  1.00  0.00    -0.284 N 
HETATM   32  C14 UNL     1      42.498  15.415  38.418  1.00  0.00     0.328 A 
ATOM     33  H6  UNL     1      41.551  13.628  39.006  1.00  0.00     0.169 HD
HETATM   34  O3  UNL     1      41.493  16.157  38.592  1.00  0.00    -0.247 OA
BRANCH  30  35
HETATM   35  N5  UNL     1      43.251  12.072  37.543  1.00  0.00    -0.024 N 
ATOM     36  H53 UNL     1      42.776  12.407  36.704  1.00  0.00     0.280 HD
ATOM     37  H52 UNL     1      44.081  11.698  37.081  1.00  0.00     0.280 HD
ATOM     38  H51 UNL     1      42.720  11.362  38.047  1.00  0.00     0.280 HD
ENDBRANCH  30  35
BRANCH  30  39
HETATM   39  O2  UNL     1      43.844  12.586  39.759  1.00  0.00    -0.346 OA
ATOM     40  H2  UNL     1      44.782  12.661  39.891  1.00  0.00     0.214 HD
ENDBRANCH  30  39
ENDBRANCH   4  27
TORSDOF 11
ENDMDL
