MODEL 2
REMARK VINA RESULT: -9.181696522      2.895      4.661
REMARK  11 active torsions:
REMARK  status: ('A' for Active; 'I' for Inactive)
REMARK    1  A    between atoms: N1_2  and  C2_3 
REMARK    2  A    between atoms: C2_3  and  C3_4 
REMARK    3  A    between atoms: C3_4  and  C4_5 
REMARK    4  A    between atoms: C4_5  and  N2_6 
REMARK    5  A    between atoms: C4_5  and  C5_10 
REMARK    6  A    between atoms: C5_10  and  C6_11 
REMARK       I    between atoms: C6_11  and  N3_13 
REMARK    7  A    between atoms: N3_13  and  C7_15 
REMARK    8  A    between atoms: C10_18  and  N4_19 
REMARK    9  A    between atoms: C13_22  and  N5_23 
REMARK   10  A    between atoms: C13_22  and  O2_27 
REMARK   11  A    between atoms: C15_34  and  C16_35 
ROOT
HETATM    1  C7  UNL     1      43.084  18.546  38.275  1.00  0.00     0.147 C 
HETATM    2  C8  UNL     1      43.757  17.595  37.377  1.00  0.00     0.002 C 
HETATM    3  C9  UNL     1      44.233  16.436  37.784  1.00  0.00     0.025 C 
HETATM    4  C10 UNL     1      44.086  16.061  39.216  1.00  0.00     0.257 C 
HETATM    5  O4  UNL     1      42.835  16.535  39.618  1.00  0.00    -0.344 OA
HETATM    6  C15 UNL     1      42.782  17.914  39.588  1.00  0.00     0.251 C 
ENDROOT
BRANCH   1   7
HETATM    7  N3  UNL     1      43.965  19.706  38.410  1.00  0.00    -0.350 N 
HETATM    8  C6  UNL     1      44.015  20.748  37.455  1.00  0.00     0.220 C 
HETATM    9  O1  UNL     1      43.280  20.681  36.449  1.00  0.00    -0.274 OA
ATOM     10  H3  UNL     1      44.569  19.767  39.230  1.00  0.00     0.163 HD
BRANCH   8  11
HETATM   11  C5  UNL     1      44.920  21.897  37.635  1.00  0.00     0.135 C 
BRANCH  11  12
HETATM   12  C4  UNL     1      45.121  22.562  36.286  1.00  0.00     0.193 C 
BRANCH  12  13
HETATM   13  C3  UNL     1      46.586  22.894  36.075  1.00  0.00     0.053 C 
BRANCH  13  14
HETATM   14  C2  UNL     1      47.291  21.874  35.206  1.00  0.00     0.126 C 
BRANCH  14  15
HETATM   15  N1  UNL     1      47.543  20.671  36.009  1.00  0.00    -0.362 N 
HETATM   16  C1  UNL     1      48.462  20.763  37.110  1.00  0.00     0.152 C 
HETATM   17  C17 UNL     1      46.971  19.555  35.751  1.00  0.00     0.198 C 
HETATM   18  N7  UNL     1      46.072  19.465  34.673  1.00  0.00    -0.067 NA
HETATM   19  N8  UNL     1      47.241  18.416  36.542  1.00  0.00    -0.067 NA
ENDBRANCH  14  15
ENDBRANCH  13  14
ENDBRANCH  12  13
BRANCH  12  20
HETATM   20  N2  UNL     1      44.280  23.718  36.143  1.00  0.00    -0.074 N 
ATOM     21  H23 UNL     1      44.833  24.574  36.099  1.00  0.00     0.274 HD
ATOM     22  H22 UNL     1      43.853  23.753  35.217  1.00  0.00     0.274 HD
ATOM     23  H21 UNL     1      43.574  23.771  36.878  1.00  0.00     0.274 HD
ENDBRANCH  12  20
ENDBRANCH  11  12
ENDBRANCH   8  11
ENDBRANCH   1   7
BRANCH   6  24
HETATM   24  C16 UNL     1      41.373  18.310  39.948  1.00  0.00     0.205 C 
HETATM   25  O5  UNL     1      41.132  19.334  40.638  1.00  0.00    -0.646 OA
HETATM   26  O6  UNL     1      40.284  17.558  39.533  1.00  0.00    -0.646 OA
ENDBRANCH   6  24
BRANCH   4  27
HETATM   27  N4  UNL     1      44.053  14.608  39.260  1.00  0.00    -0.279 N 
HETATM   28  C11 UNL     1      44.999  13.895  40.044  1.00  0.00     0.101 A 
HETATM   29  C12 UNL     1      45.029  12.585  40.129  1.00  0.00     0.082 A 
HETATM   30  C13 UNL     1      44.076  11.722  39.412  1.00  0.00     0.326 A 
HETATM   31  N6  UNL     1      43.118  12.448  38.617  1.00  0.00    -0.284 N 
HETATM   32  C14 UNL     1      43.093  13.865  38.531  1.00  0.00     0.328 A 
ATOM     33  H6  UNL     1      42.423  11.918  38.091  1.00  0.00     0.169 HD
HETATM   34  O3  UNL     1      42.236  14.460  37.822  1.00  0.00    -0.247 OA
BRANCH  30  35
HETATM   35  N5  UNL     1      44.861  10.802  38.606  1.00  0.00    -0.024 N 
ATOM     36  H53 UNL     1      45.217  11.225  37.748  1.00  0.00     0.280 HD
ATOM     37  H52 UNL     1      45.764  10.574  39.023  1.00  0.00     0.280 HD
ATOM     38  H51 UNL     1      44.279   9.982  38.437  1.00  0.00     0.280 HD
ENDBRANCH  30  35
BRANCH  30  39
HETATM   39  O2  UNL     1      43.337  11.015  40.384  1.00  0.00    -0.346 OA
ATOM     40  H2  UNL     1      43.085  10.183  39.998  1.00  0.00     0.214 HD
ENDBRANCH  30  39
ENDBRANCH   4  27
TORSDOF 11
ENDMDL
