MODEL 15
REMARK VINA RESULT: -7.882183520      3.795     10.651
REMARK  11 active torsions:
REMARK  status: ('A' for Active; 'I' for Inactive)
REMARK    1  A    between atoms: N1_2  and  C2_3 
REMARK    2  A    between atoms: C2_3  and  C3_4 
REMARK    3  A    between atoms: C3_4  and  C4_5 
REMARK    4  A    between atoms: C4_5  and  N2_6 
REMARK    5  A    between atoms: C4_5  and  C5_10 
REMARK    6  A    between atoms: C5_10  and  C6_11 
REMARK       I    between atoms: C6_11  and  N3_13 
REMARK    7  A    between atoms: N3_13  and  C7_15 
REMARK    8  A    between atoms: C10_18  and  N4_19 
REMARK    9  A    between atoms: C13_22  and  N5_23 
REMARK   10  A    between atoms: C13_22  and  O2_27 
REMARK   11  A    between atoms: C15_34  and  C16_35 
ROOT
HETATM    1  C7  UNL     1      45.525  20.680  36.279  1.00  0.00     0.147 C 
HETATM    2  C8  UNL     1      46.380  20.356  35.127  1.00  0.00     0.002 C 
HETATM    3  C9  UNL     1      46.411  21.081  34.027  1.00  0.00     0.025 C 
HETATM    4  C10 UNL     1      45.545  22.287  33.938  1.00  0.00     0.257 C 
HETATM    5  O4  UNL     1      45.545  22.864  35.210  1.00  0.00    -0.344 OA
HETATM    6  C15 UNL     1      44.939  22.041  36.139  1.00  0.00     0.251 C 
ENDROOT
BRANCH   1   7
HETATM    7  N3  UNL     1      44.497  19.642  36.358  1.00  0.00    -0.350 N 
HETATM    8  C6  UNL     1      44.421  18.716  37.423  1.00  0.00     0.220 C 
HETATM    9  O1  UNL     1      45.265  18.780  38.340  1.00  0.00    -0.274 OA
ATOM     10  H3  UNL     1      43.804  19.584  35.611  1.00  0.00     0.163 HD
BRANCH   8  11
HETATM   11  C5  UNL     1      43.367  17.687  37.459  1.00  0.00     0.135 C 
BRANCH  11  12
HETATM   12  C4  UNL     1      43.796  16.597  38.423  1.00  0.00     0.193 C 
BRANCH  12  13
HETATM   13  C3  UNL     1      43.569  15.229  37.807  1.00  0.00     0.053 C 
BRANCH  13  14
HETATM   14  C2  UNL     1      44.792  14.341  37.903  1.00  0.00     0.126 C 
BRANCH  14  15
HETATM   15  N1  UNL     1      44.400  13.073  38.530  1.00  0.00    -0.362 N 
HETATM   16  C1  UNL     1      44.005  11.983  37.680  1.00  0.00     0.152 C 
HETATM   17  C17 UNL     1      44.400  12.919  39.801  1.00  0.00     0.198 C 
HETATM   18  N7  UNL     1      44.787  13.986  40.632  1.00  0.00    -0.067 NA
HETATM   19  N8  UNL     1      44.013  11.686  40.370  1.00  0.00    -0.067 NA
ENDBRANCH  14  15
ENDBRANCH  13  14
ENDBRANCH  12  13
BRANCH  12  20
HETATM   20  N2  UNL     1      43.136  16.733  39.692  1.00  0.00    -0.074 N 
ATOM     21  H23 UNL     1      42.718  17.658  39.794  1.00  0.00     0.274 HD
ATOM     22  H22 UNL     1      42.287  16.168  39.730  1.00  0.00     0.274 HD
ATOM     23  H21 UNL     1      43.758  16.520  40.471  1.00  0.00     0.274 HD
ENDBRANCH  12  20
ENDBRANCH  11  12
ENDBRANCH   8  11
ENDBRANCH   1   7
BRANCH   6  24
HETATM   24  C16 UNL     1      45.076  22.715  37.481  1.00  0.00     0.205 C 
HETATM   25  O5  UNL     1      45.665  22.155  38.441  1.00  0.00    -0.646 OA
HETATM   26  O6  UNL     1      44.555  23.979  37.709  1.00  0.00    -0.646 OA
ENDBRANCH   6  24
BRANCH   4  27
HETATM   27  N4  UNL     1      46.211  23.205  33.028  1.00  0.00    -0.279 N 
HETATM   28  C11 UNL     1      47.063  24.223  33.534  1.00  0.00     0.101 A 
HETATM   29  C12 UNL     1      47.694  25.085  32.770  1.00  0.00     0.082 A 
HETATM   30  C13 UNL     1      47.579  25.079  31.303  1.00  0.00     0.326 A 
HETATM   31  N6  UNL     1      46.714  24.045  30.793  1.00  0.00    -0.284 N 
HETATM   32  C14 UNL     1      46.034  23.117  31.625  1.00  0.00     0.328 A 
ATOM     33  H6  UNL     1      46.583  23.977  29.783  1.00  0.00     0.169 HD
HETATM   34  O3  UNL     1      45.287  22.228  31.135  1.00  0.00    -0.247 OA
BRANCH  30  35
HETATM   35  N5  UNL     1      47.129  26.404  30.909  1.00  0.00    -0.024 N 
ATOM     36  H53 UNL     1      46.513  26.840  31.595  1.00  0.00     0.280 HD
ATOM     37  H52 UNL     1      47.871  27.103  30.937  1.00  0.00     0.280 HD
ATOM     38  H51 UNL     1      46.701  26.310  29.988  1.00  0.00     0.280 HD
ENDBRANCH  30  35
BRANCH  30  39
HETATM   39  O2  UNL     1      48.863  24.820  30.781  1.00  0.00    -0.346 OA
ATOM     40  H2  UNL     1      48.798  24.041  30.242  1.00  0.00     0.214 HD
ENDBRANCH  30  39
ENDBRANCH   4  27
TORSDOF 11
ENDMDL
