MODEL 13
REMARK VINA RESULT: -8.011736493      2.631     10.291
REMARK  11 active torsions:
REMARK  status: ('A' for Active; 'I' for Inactive)
REMARK    1  A    between atoms: N1_2  and  C2_3 
REMARK    2  A    between atoms: C2_3  and  C3_4 
REMARK    3  A    between atoms: C3_4  and  C4_5 
REMARK    4  A    between atoms: C4_5  and  N2_6 
REMARK    5  A    between atoms: C4_5  and  C5_10 
REMARK    6  A    between atoms: C5_10  and  C6_11 
REMARK       I    between atoms: C6_11  and  N3_13 
REMARK    7  A    between atoms: N3_13  and  C7_15 
REMARK    8  A    between atoms: C10_18  and  N4_19 
REMARK    9  A    between atoms: C13_22  and  N5_23 
REMARK   10  A    between atoms: C13_22  and  O2_27 
REMARK   11  A    between atoms: C15_34  and  C16_35 
ROOT
HETATM    1  C7  UNL     1      44.887  20.199  37.061  1.00  0.00     0.147 C 
HETATM    2  C8  UNL     1      44.265  21.517  36.857  1.00  0.00     0.002 C 
HETATM    3  C9  UNL     1      44.897  22.652  37.079  1.00  0.00     0.025 C 
HETATM    4  C10 UNL     1      46.305  22.609  37.556  1.00  0.00     0.257 C 
HETATM    5  O4  UNL     1      46.910  21.538  36.895  1.00  0.00    -0.344 OA
HETATM    6  C15 UNL     1      46.354  20.331  37.271  1.00  0.00     0.251 C 
ENDROOT
BRANCH   1   7
HETATM    7  N3  UNL     1      44.218  19.580  38.205  1.00  0.00    -0.350 N 
HETATM    8  C6  UNL     1      43.299  18.514  38.072  1.00  0.00     0.220 C 
HETATM    9  O1  UNL     1      43.042  18.077  36.932  1.00  0.00    -0.274 OA
ATOM     10  H3  UNL     1      44.424  19.933  39.140  1.00  0.00     0.163 HD
BRANCH   8  11
HETATM   11  C5  UNL     1      42.650  17.922  39.255  1.00  0.00     0.135 C 
BRANCH  11  12
HETATM   12  C4  UNL     1      42.836  16.418  39.200  1.00  0.00     0.193 C 
BRANCH  12  13
HETATM   13  C3  UNL     1      44.294  16.076  38.953  1.00  0.00     0.053 C 
BRANCH  13  14
HETATM   14  C2  UNL     1      44.465  14.754  38.234  1.00  0.00     0.126 C 
BRANCH  14  15
HETATM   15  N1  UNL     1      44.481  13.678  39.232  1.00  0.00    -0.362 N 
HETATM   16  C1  UNL     1      44.813  14.010  40.591  1.00  0.00     0.152 C 
HETATM   17  C17 UNL     1      44.212  12.465  38.923  1.00  0.00     0.198 C 
HETATM   18  N7  UNL     1      43.887  12.141  37.593  1.00  0.00    -0.067 NA
HETATM   19  N8  UNL     1      44.242  11.454  39.909  1.00  0.00    -0.067 NA
ENDBRANCH  14  15
ENDBRANCH  13  14
ENDBRANCH  12  13
BRANCH  12  20
HETATM   20  N2  UNL     1      41.970  15.820  38.223  1.00  0.00    -0.074 N 
ATOM     21  H23 UNL     1      41.047  15.631  38.613  1.00  0.00     0.274 HD
ATOM     22  H22 UNL     1      41.705  16.492  37.502  1.00  0.00     0.274 HD
ATOM     23  H21 UNL     1      42.377  14.979  37.813  1.00  0.00     0.274 HD
ENDBRANCH  12  20
ENDBRANCH  11  12
ENDBRANCH   8  11
ENDBRANCH   1   7
BRANCH   6  24
HETATM   24  C16 UNL     1      47.012  19.263  36.437  1.00  0.00     0.205 C 
HETATM   25  O5  UNL     1      48.054  19.496  35.772  1.00  0.00    -0.646 OA
HETATM   26  O6  UNL     1      46.494  17.979  36.369  1.00  0.00    -0.646 OA
ENDBRANCH   6  24
BRANCH   4  27
HETATM   27  N4  UNL     1      46.933  23.837  37.095  1.00  0.00    -0.279 N 
HETATM   28  C11 UNL     1      47.665  23.852  35.878  1.00  0.00     0.101 A 
HETATM   29  C12 UNL     1      48.258  24.923  35.402  1.00  0.00     0.082 A 
HETATM   30  C13 UNL     1      48.220  26.223  36.091  1.00  0.00     0.326 A 
HETATM   31  N6  UNL     1      47.476  26.204  37.326  1.00  0.00    -0.284 N 
HETATM   32  C14 UNL     1      46.838  25.042  37.833  1.00  0.00     0.328 A 
ATOM     33  H6  UNL     1      47.403  27.070  37.861  1.00  0.00     0.169 HD
HETATM   34  O3  UNL     1      46.197  25.071  38.918  1.00  0.00    -0.247 OA
BRANCH  30  35
HETATM   35  N5  UNL     1      49.598  26.634  36.297  1.00  0.00    -0.024 N 
ATOM     36  H53 UNL     1      50.231  25.850  36.458  1.00  0.00     0.280 HD
ATOM     37  H52 UNL     1      50.042  26.987  35.449  1.00  0.00     0.280 HD
ATOM     38  H51 UNL     1      49.596  27.311  37.060  1.00  0.00     0.280 HD
ENDBRANCH  30  35
BRANCH  30  39
HETATM   39  O2  UNL     1      47.559  27.131  35.238  1.00  0.00    -0.346 OA
ATOM     40  H2  UNL     1      47.400  27.925  35.737  1.00  0.00     0.214 HD
ENDBRANCH  30  39
ENDBRANCH   4  27
TORSDOF 11
ENDMDL
