MODEL 4
REMARK VINA RESULT: -8.957004049      1.339      1.617
REMARK  11 active torsions:
REMARK  status: ('A' for Active; 'I' for Inactive)
REMARK    1  A    between atoms: N1_2  and  C2_3 
REMARK    2  A    between atoms: C2_3  and  C3_4 
REMARK    3  A    between atoms: C3_4  and  C4_5 
REMARK    4  A    between atoms: C4_5  and  N2_6 
REMARK    5  A    between atoms: C4_5  and  C5_10 
REMARK    6  A    between atoms: C5_10  and  C6_11 
REMARK       I    between atoms: C6_11  and  N3_13 
REMARK    7  A    between atoms: N3_13  and  C7_15 
REMARK    8  A    between atoms: C10_18  and  N4_19 
REMARK    9  A    between atoms: C13_22  and  N5_23 
REMARK   10  A    between atoms: C13_22  and  O2_27 
REMARK   11  A    between atoms: C15_34  and  C16_35 
ROOT
HETATM    1  C7  UNL     1      44.958  18.876  38.078  1.00  0.00     0.147 C 
HETATM    2  C8  UNL     1      44.638  18.291  39.390  1.00  0.00     0.002 C 
HETATM    3  C9  UNL     1      44.050  17.121  39.531  1.00  0.00     0.025 C 
HETATM    4  C10 UNL     1      43.689  16.346  38.314  1.00  0.00     0.257 C 
HETATM    5  O4  UNL     1      44.723  16.553  37.397  1.00  0.00    -0.344 OA
HETATM    6  C15 UNL     1      44.785  17.872  36.993  1.00  0.00     0.251 C 
ENDROOT
BRANCH   1   7
HETATM    7  N3  UNL     1      44.087  20.037  37.901  1.00  0.00    -0.350 N 
HETATM    8  C6  UNL     1      44.524  21.242  37.304  1.00  0.00     0.220 C 
HETATM    9  O1  UNL     1      45.705  21.326  36.909  1.00  0.00    -0.274 OA
ATOM     10  H3  UNL     1      43.120  19.975  38.222  1.00  0.00     0.163 HD
BRANCH   8  11
HETATM   11  C5  UNL     1      43.609  22.385  37.147  1.00  0.00     0.135 C 
BRANCH  11  12
HETATM   12  C4  UNL     1      44.437  23.654  37.079  1.00  0.00     0.193 C 
BRANCH  12  13
HETATM   13  C3  UNL     1      43.738  24.781  37.817  1.00  0.00     0.053 C 
BRANCH  13  14
HETATM   14  C2  UNL     1      44.119  26.146  37.284  1.00  0.00     0.126 C 
BRANCH  14  15
HETATM   15  N1  UNL     1      42.891  26.914  37.047  1.00  0.00    -0.362 N 
HETATM   16  C1  UNL     1      41.644  26.205  36.975  1.00  0.00     0.152 C 
HETATM   17  C17 UNL     1      42.907  28.186  36.902  1.00  0.00     0.198 C 
HETATM   18  N7  UNL     1      44.129  28.880  36.973  1.00  0.00    -0.067 NA
HETATM   19  N8  UNL     1      41.706  28.893  36.670  1.00  0.00    -0.067 NA
ENDBRANCH  14  15
ENDBRANCH  13  14
ENDBRANCH  12  13
BRANCH  12  20
HETATM   20  N2  UNL     1      44.741  24.008  35.720  1.00  0.00    -0.074 N 
ATOM     21  H23 UNL     1      44.560  24.996  35.545  1.00  0.00     0.274 HD
ATOM     22  H22 UNL     1      45.748  23.996  35.551  1.00  0.00     0.274 HD
ATOM     23  H21 UNL     1      44.247  23.417  35.051  1.00  0.00     0.274 HD
ENDBRANCH  12  20
ENDBRANCH  11  12
ENDBRANCH   8  11
ENDBRANCH   1   7
BRANCH   6  24
HETATM   24  C16 UNL     1      45.981  18.000  36.086  1.00  0.00     0.205 C 
HETATM   25  O5  UNL     1      47.073  17.434  36.352  1.00  0.00    -0.646 OA
HETATM   26  O6  UNL     1      45.926  18.748  34.920  1.00  0.00    -0.646 OA
ENDBRANCH   6  24
BRANCH   4  27
HETATM   27  N4  UNL     1      43.703  14.944  38.700  1.00  0.00    -0.279 N 
HETATM   28  C11 UNL     1      44.725  14.447  39.552  1.00  0.00     0.101 A 
HETATM   29  C12 UNL     1      44.799  13.194  39.939  1.00  0.00     0.082 A 
HETATM   30  C13 UNL     1      43.822  12.176  39.523  1.00  0.00     0.326 A 
HETATM   31  N6  UNL     1      42.786  12.684  38.658  1.00  0.00    -0.284 N 
HETATM   32  C14 UNL     1      42.713  14.040  38.244  1.00  0.00     0.328 A 
ATOM     33  H6  UNL     1      42.070  12.036  38.327  1.00  0.00     0.169 HD
HETATM   34  O3  UNL     1      41.789  14.440  37.486  1.00  0.00    -0.247 OA
BRANCH  30  35
HETATM   35  N5  UNL     1      44.572  11.101  38.895  1.00  0.00    -0.024 N 
ATOM     36  H53 UNL     1      45.114  11.408  38.087  1.00  0.00     0.280 HD
ATOM     37  H52 UNL     1      45.356  10.775  39.461  1.00  0.00     0.280 HD
ATOM     38  H51 UNL     1      43.904  10.363  38.673  1.00  0.00     0.280 HD
ENDBRANCH  30  35
BRANCH  30  39
HETATM   39  O2  UNL     1      43.178  11.710  40.688  1.00  0.00    -0.346 OA
ATOM     40  H2  UNL     1      43.475  12.251  41.412  1.00  0.00     0.214 HD
ENDBRANCH  30  39
ENDBRANCH   4  27
TORSDOF 11
ENDMDL
