MODEL 5
REMARK VINA RESULT: -7.224699026      1.430      2.584
REMARK  12 active torsions:
REMARK  status: ('A' for Active; 'I' for Inactive)
REMARK    1  A    between atoms: C2_2  and  C3_3 
REMARK    2  A    between atoms: C3_3  and  C4_4 
REMARK    3  A    between atoms: C4_4  and  C5_5 
REMARK    4  A    between atoms: C5_5  and  C6_6 
REMARK    5  A    between atoms: C6_6  and  C7_7 
REMARK    6  A    between atoms: C6_6  and  C9_14 
REMARK    7  A    between atoms: C7_7  and  C8_8 
REMARK       I    between atoms: C8_8  and  N1_10 
REMARK    8  A    between atoms: N1_10  and  O2_12 
REMARK       I    between atoms: C9_14  and  N2_16 
REMARK    9  A    between atoms: N2_16  and  C10_18 
REMARK   10  A    between atoms: C10_18  and  C11_19 
REMARK   11  A    between atoms: C10_18  and  C17_29 
REMARK       I    between atoms: C11_19  and  N3_21 
REMARK   12  A    between atoms: C15_25  and  C16_26 
ROOT
HETATM    1  C9  UNL     1      -7.933  45.324  56.656  1.00  0.00     0.223 C 
HETATM    2  O3  UNL     1      -7.493  44.966  57.776  1.00  0.00    -0.273 OA
HETATM    3  N2  UNL     1      -8.881  46.359  56.562  1.00  0.00    -0.347 N 
ATOM      4  H2  UNL     1      -9.216  46.626  55.637  1.00  0.00     0.163 HD
ENDROOT
BRANCH   3   5
HETATM    5  C10 UNL     1      -9.410  47.070  57.720  1.00  0.00     0.180 C 
BRANCH   5   6
HETATM    6  C11 UNL     1     -10.524  46.353  58.349  1.00  0.00     0.243 C 
HETATM    7  O4  UNL     1     -10.463  46.109  59.573  1.00  0.00    -0.271 OA
HETATM    8  N3  UNL     1     -11.648  45.938  57.627  1.00  0.00    -0.336 N 
HETATM    9  C12 UNL     1     -12.801  45.175  58.144  1.00  0.00     0.127 C 
HETATM   10  C15 UNL     1     -11.904  46.212  56.230  1.00  0.00     0.188 C 
HETATM   11  C13 UNL     1     -13.462  44.603  56.928  1.00  0.00     0.022 C 
HETATM   12  C14 UNL     1     -12.580  44.918  55.755  1.00  0.00     0.038 C 
BRANCH  10  13
HETATM   13  C16 UNL     1     -12.925  47.298  56.099  1.00  0.00     0.196 C 
HETATM   14  O5  UNL     1     -13.573  47.339  55.026  1.00  0.00    -0.646 OA
HETATM   15  O6  UNL     1     -13.184  48.228  57.069  1.00  0.00    -0.646 OA
ENDBRANCH  10  13
ENDBRANCH   5   6
BRANCH   5  16
HETATM   16  C17 UNL     1      -9.792  48.485  57.314  1.00  0.00     0.009 C 
HETATM   17  C18 UNL     1      -9.915  49.390  58.525  1.00  0.00     0.012 C 
HETATM   18  C19 UNL     1      -8.792  49.140  56.400  1.00  0.00     0.012 C 
ENDBRANCH   5  16
ENDBRANCH   3   5
BRANCH   1  19
HETATM   19  C6  UNL     1      -7.387  44.591  55.469  1.00  0.00     0.086 C 
BRANCH  19  20
HETATM   20  C5  UNL     1      -8.057  43.273  55.267  1.00  0.00     0.014 C 
BRANCH  20  21
HETATM   21  C4  UNL     1      -9.523  43.511  55.000  1.00  0.00     0.001 C 
BRANCH  21  22
HETATM   22  C3  UNL     1      -9.947  42.928  53.662  1.00  0.00    -0.000 C 
BRANCH  22  23
HETATM   23  C2  UNL     1     -10.274  41.464  53.867  1.00  0.00    -0.005 C 
HETATM   24  C1  UNL     1     -11.049  41.217  55.122  1.00  0.00     0.005 C 
ENDBRANCH  22  23
ENDBRANCH  21  22
ENDBRANCH  20  21
ENDBRANCH  19  20
BRANCH  19  25
HETATM   25  C7  UNL     1      -5.900  44.568  55.441  1.00  0.00     0.119 C 
BRANCH  25  26
HETATM   26  C8  UNL     1      -5.292  44.222  54.168  1.00  0.00     0.241 C 
HETATM   27  O1  UNL     1      -5.671  44.791  53.116  1.00  0.00    -0.271 OA
HETATM   28  N1  UNL     1      -4.274  43.251  54.081  1.00  0.00    -0.237 N 
ATOM     29  H1  UNL     1      -3.944  42.772  54.919  1.00  0.00     0.197 HD
BRANCH  28  30
HETATM   30  O2  UNL     1      -3.738  42.964  52.871  1.00  0.00    -0.287 OA
ATOM     31  H2  UNL     1      -3.089  42.274  52.804  1.00  0.00     0.244 HD
ENDBRANCH  28  30
ENDBRANCH  25  26
ENDBRANCH  19  25
ENDBRANCH   1  19
TORSDOF 12
ENDMDL
