MODEL 7
REMARK VINA RESULT: -7.192638081      2.135      4.530
REMARK  12 active torsions:
REMARK  status: ('A' for Active; 'I' for Inactive)
REMARK    1  A    between atoms: C2_2  and  C3_3 
REMARK    2  A    between atoms: C3_3  and  C4_4 
REMARK    3  A    between atoms: C4_4  and  C5_5 
REMARK    4  A    between atoms: C5_5  and  C6_6 
REMARK    5  A    between atoms: C6_6  and  C7_7 
REMARK    6  A    between atoms: C6_6  and  C9_14 
REMARK    7  A    between atoms: C7_7  and  C8_8 
REMARK       I    between atoms: C8_8  and  N1_10 
REMARK    8  A    between atoms: N1_10  and  O2_12 
REMARK       I    between atoms: C9_14  and  N2_16 
REMARK    9  A    between atoms: N2_16  and  C10_18 
REMARK   10  A    between atoms: C10_18  and  C11_19 
REMARK   11  A    between atoms: C10_18  and  C17_29 
REMARK       I    between atoms: C11_19  and  N3_21 
REMARK   12  A    between atoms: C15_25  and  C16_26 
ROOT
HETATM    1  C9  UNL     1     -10.821  46.394  56.319  1.00  0.00     0.223 C 
HETATM    2  O3  UNL     1     -11.637  46.873  55.492  1.00  0.00    -0.273 OA
HETATM    3  N2  UNL     1     -10.394  47.159  57.420  1.00  0.00    -0.347 N 
ATOM      4  H2  UNL     1      -9.732  46.738  58.073  1.00  0.00     0.163 HD
ENDROOT
BRANCH   3   5
HETATM    5  C10 UNL     1     -10.847  48.520  57.676  1.00  0.00     0.180 C 
BRANCH   5   6
HETATM    6  C11 UNL     1      -9.746  49.406  58.070  1.00  0.00     0.243 C 
HETATM    7  O4  UNL     1      -9.803  49.975  59.181  1.00  0.00    -0.271 OA
HETATM    8  N3  UNL     1      -8.638  49.631  57.246  1.00  0.00    -0.336 N 
HETATM    9  C12 UNL     1      -7.499  50.531  57.518  1.00  0.00     0.127 C 
HETATM   10  C15 UNL     1      -8.385  48.990  55.974  1.00  0.00     0.188 C 
HETATM   11  C13 UNL     1      -6.862  50.761  56.182  1.00  0.00     0.022 C 
HETATM   12  C14 UNL     1      -7.744  50.118  55.153  1.00  0.00     0.038 C 
BRANCH  10  13
HETATM   13  C16 UNL     1      -7.340  47.931  56.131  1.00  0.00     0.196 C 
HETATM   14  O5  UNL     1      -6.798  47.512  55.081  1.00  0.00    -0.646 OA
HETATM   15  O6  UNL     1      -6.951  47.409  57.335  1.00  0.00    -0.646 OA
ENDBRANCH  10  13
ENDBRANCH   5   6
BRANCH   5  16
HETATM   16  C17 UNL     1     -11.963  48.497  58.709  1.00  0.00     0.009 C 
HETATM   17  C18 UNL     1     -13.321  48.652  58.053  1.00  0.00     0.012 C 
HETATM   18  C19 UNL     1     -12.023  47.220  59.502  1.00  0.00     0.012 C 
ENDBRANCH   5  16
ENDBRANCH   3   5
BRANCH   1  19
HETATM   19  C6  UNL     1     -10.358  44.995  56.052  1.00  0.00     0.086 C 
BRANCH  19  20
HETATM   20  C5  UNL     1     -11.474  44.009  56.138  1.00  0.00     0.014 C 
BRANCH  20  21
HETATM   21  C4  UNL     1     -11.553  43.252  54.834  1.00  0.00     0.001 C 
BRANCH  21  22
HETATM   22  C3  UNL     1     -11.005  41.842  54.974  1.00  0.00    -0.000 C 
BRANCH  22  23
HETATM   23  C2  UNL     1      -9.881  41.670  53.973  1.00  0.00    -0.005 C 
HETATM   24  C1  UNL     1      -8.575  41.345  54.625  1.00  0.00     0.005 C 
ENDBRANCH  22  23
ENDBRANCH  21  22
ENDBRANCH  20  21
ENDBRANCH  19  20
BRANCH  19  25
HETATM   25  C7  UNL     1      -9.128  44.642  56.811  1.00  0.00     0.119 C 
BRANCH  25  26
HETATM   26  C8  UNL     1      -7.920  44.470  56.023  1.00  0.00     0.241 C 
HETATM   27  O1  UNL     1      -6.861  44.085  56.574  1.00  0.00    -0.271 OA
HETATM   28  N1  UNL     1      -7.905  44.727  54.637  1.00  0.00    -0.237 N 
ATOM     29  H1  UNL     1      -8.751  45.041  54.161  1.00  0.00     0.197 HD
BRANCH  28  30
HETATM   30  O2  UNL     1      -6.754  44.552  53.946  1.00  0.00    -0.287 OA
ATOM     31  H2  UNL     1      -6.584  45.094  53.185  1.00  0.00     0.244 HD
ENDBRANCH  28  30
ENDBRANCH  25  26
ENDBRANCH  19  25
ENDBRANCH   1  19
TORSDOF 12
ENDMDL
