MODEL 3
REMARK VINA RESULT: -7.509818163      2.024      5.364
REMARK  12 active torsions:
REMARK  status: ('A' for Active; 'I' for Inactive)
REMARK    1  A    between atoms: C2_2  and  C3_3 
REMARK    2  A    between atoms: C3_3  and  C4_4 
REMARK    3  A    between atoms: C4_4  and  C5_5 
REMARK    4  A    between atoms: C5_5  and  C6_6 
REMARK    5  A    between atoms: C6_6  and  C7_7 
REMARK    6  A    between atoms: C6_6  and  C9_14 
REMARK    7  A    between atoms: C7_7  and  C8_8 
REMARK       I    between atoms: C8_8  and  N1_10 
REMARK    8  A    between atoms: N1_10  and  O2_12 
REMARK       I    between atoms: C9_14  and  N2_16 
REMARK    9  A    between atoms: N2_16  and  C10_18 
REMARK   10  A    between atoms: C10_18  and  C11_19 
REMARK   11  A    between atoms: C10_18  and  C17_29 
REMARK       I    between atoms: C11_19  and  N3_21 
REMARK   12  A    between atoms: C15_25  and  C16_26 
ROOT
HETATM    1  C9  UNL     1      -8.246  45.947  57.310  1.00  0.00     0.223 C 
HETATM    2  O3  UNL     1      -8.203  45.303  58.387  1.00  0.00    -0.273 OA
HETATM    3  N2  UNL     1      -9.435  45.996  56.558  1.00  0.00    -0.347 N 
ATOM      4  H2  UNL     1      -9.435  46.529  55.689  1.00  0.00     0.163 HD
ENDROOT
BRANCH   3   5
HETATM    5  C10 UNL     1     -10.665  45.324  56.957  1.00  0.00     0.180 C 
BRANCH   5   6
HETATM    6  C11 UNL     1     -11.330  44.669  55.826  1.00  0.00     0.243 C 
HETATM    7  O4  UNL     1     -12.316  45.234  55.303  1.00  0.00    -0.271 OA
HETATM    8  N3  UNL     1     -10.899  43.441  55.314  1.00  0.00    -0.336 N 
HETATM    9  C12 UNL     1     -11.516  42.673  54.215  1.00  0.00     0.127 C 
HETATM   10  C15 UNL     1      -9.734  42.704  55.754  1.00  0.00     0.188 C 
HETATM   11  C13 UNL     1     -10.986  41.281  54.372  1.00  0.00     0.022 C 
HETATM   12  C14 UNL     1     -10.205  41.246  55.653  1.00  0.00     0.038 C 
BRANCH  10  13
HETATM   13  C16 UNL     1      -8.623  42.862  54.765  1.00  0.00     0.196 C 
HETATM   14  O5  UNL     1      -8.625  43.909  54.075  1.00  0.00    -0.646 OA
HETATM   15  O6  UNL     1      -7.626  41.944  54.579  1.00  0.00    -0.646 OA
ENDBRANCH  10  13
ENDBRANCH   5   6
BRANCH   5  16
HETATM   16  C17 UNL     1     -11.576  46.314  57.666  1.00  0.00     0.009 C 
HETATM   17  C18 UNL     1     -11.622  46.047  59.158  1.00  0.00     0.012 C 
HETATM   18  C19 UNL     1     -11.145  47.748  57.509  1.00  0.00     0.012 C 
ENDBRANCH   5  16
ENDBRANCH   3   5
BRANCH   1  19
HETATM   19  C6  UNL     1      -6.980  46.635  56.903  1.00  0.00     0.086 C 
BRANCH  19  20
HETATM   20  C5  UNL     1      -7.054  48.111  57.106  1.00  0.00     0.014 C 
BRANCH  20  21
HETATM   21  C4  UNL     1      -7.193  48.779  55.759  1.00  0.00     0.001 C 
BRANCH  21  22
HETATM   22  C3  UNL     1      -7.550  50.248  55.900  1.00  0.00    -0.000 C 
BRANCH  22  23
HETATM   23  C2  UNL     1      -7.161  50.955  54.618  1.00  0.00    -0.005 C 
HETATM   24  C1  UNL     1      -8.267  50.973  53.612  1.00  0.00     0.005 C 
ENDBRANCH  22  23
ENDBRANCH  21  22
ENDBRANCH  20  21
ENDBRANCH  19  20
BRANCH  19  25
HETATM   25  C7  UNL     1      -6.487  46.193  55.571  1.00  0.00     0.119 C 
BRANCH  25  26
HETATM   26  C8  UNL     1      -5.812  44.907  55.536  1.00  0.00     0.241 C 
HETATM   27  O1  UNL     1      -5.574  44.294  56.604  1.00  0.00    -0.271 OA
HETATM   28  N1  UNL     1      -5.413  44.321  54.318  1.00  0.00    -0.237 N 
ATOM     29  H1  UNL     1      -5.593  44.795  53.433  1.00  0.00     0.197 HD
BRANCH  28  30
HETATM   30  O2  UNL     1      -4.787  43.120  54.337  1.00  0.00    -0.287 OA
ATOM     31  H2  UNL     1      -5.300  42.329  54.222  1.00  0.00     0.244 HD
ENDBRANCH  28  30
ENDBRANCH  25  26
ENDBRANCH  19  25
ENDBRANCH   1  19
TORSDOF 12
ENDMDL
