MODEL 6
REMARK VINA RESULT: -7.216335292      2.640      6.403
REMARK  12 active torsions:
REMARK  status: ('A' for Active; 'I' for Inactive)
REMARK    1  A    between atoms: C2_2  and  C3_3 
REMARK    2  A    between atoms: C3_3  and  C4_4 
REMARK    3  A    between atoms: C4_4  and  C5_5 
REMARK    4  A    between atoms: C5_5  and  C6_6 
REMARK    5  A    between atoms: C6_6  and  C7_7 
REMARK    6  A    between atoms: C6_6  and  C9_14 
REMARK    7  A    between atoms: C7_7  and  C8_8 
REMARK       I    between atoms: C8_8  and  N1_10 
REMARK    8  A    between atoms: N1_10  and  O2_12 
REMARK       I    between atoms: C9_14  and  N2_16 
REMARK    9  A    between atoms: N2_16  and  C10_18 
REMARK   10  A    between atoms: C10_18  and  C11_19 
REMARK   11  A    between atoms: C10_18  and  C17_29 
REMARK       I    between atoms: C11_19  and  N3_21 
REMARK   12  A    between atoms: C15_25  and  C16_26 
ROOT
HETATM    1  C9  UNL     1      -7.811  47.139  56.600  1.00  0.00     0.223 C 
HETATM    2  O3  UNL     1      -6.969  46.348  56.108  1.00  0.00    -0.273 OA
HETATM    3  N2  UNL     1      -9.057  46.662  57.049  1.00  0.00    -0.347 N 
ATOM      4  H2  UNL     1      -9.717  47.332  57.444  1.00  0.00     0.163 HD
ENDROOT
BRANCH   3   5
HETATM    5  C10 UNL     1      -9.453  45.261  56.978  1.00  0.00     0.180 C 
BRANCH   5   6
HETATM    6  C11 UNL     1     -10.151  44.945  55.727  1.00  0.00     0.243 C 
HETATM    7  O4  UNL     1     -10.834  45.839  55.180  1.00  0.00    -0.271 OA
HETATM    8  N3  UNL     1     -10.076  43.684  55.128  1.00  0.00    -0.336 N 
HETATM    9  C12 UNL     1     -10.769  43.242  53.901  1.00  0.00     0.127 C 
HETATM   10  C15 UNL     1      -9.270  42.575  55.589  1.00  0.00     0.188 C 
HETATM   11  C13 UNL     1     -10.735  41.746  53.955  1.00  0.00     0.022 C 
HETATM   12  C14 UNL     1     -10.166  41.364  55.290  1.00  0.00     0.038 C 
BRANCH  10  13
HETATM   13  C16 UNL     1      -8.056  42.429  54.728  1.00  0.00     0.196 C 
HETATM   14  O5  UNL     1      -7.590  41.272  54.598  1.00  0.00    -0.646 OA
HETATM   15  O6  UNL     1      -7.441  43.470  54.087  1.00  0.00    -0.646 OA
ENDBRANCH  10  13
ENDBRANCH   5   6
BRANCH   5  16
HETATM   16  C17 UNL     1     -10.279  44.905  58.204  1.00  0.00     0.009 C 
HETATM   17  C18 UNL     1      -9.825  45.690  59.419  1.00  0.00     0.012 C 
HETATM   18  C19 UNL     1     -11.749  45.191  58.044  1.00  0.00     0.012 C 
ENDBRANCH   5  16
ENDBRANCH   3   5
BRANCH   1  19
HETATM   19  C6  UNL     1      -7.401  48.578  56.671  1.00  0.00     0.086 C 
BRANCH  19  20
HETATM   20  C5  UNL     1      -7.013  48.983  58.053  1.00  0.00     0.014 C 
BRANCH  20  21
HETATM   21  C4  UNL     1      -8.035  49.964  58.574  1.00  0.00     0.001 C 
BRANCH  21  22
HETATM   22  C3  UNL     1      -8.953  49.321  59.599  1.00  0.00    -0.000 C 
BRANCH  22  23
HETATM   23  C2  UNL     1     -10.338  49.910  59.428  1.00  0.00    -0.005 C 
HETATM   24  C1  UNL     1     -11.146  49.190  58.395  1.00  0.00     0.005 C 
ENDBRANCH  22  23
ENDBRANCH  21  22
ENDBRANCH  20  21
ENDBRANCH  19  20
BRANCH  19  25
HETATM   25  C7  UNL     1      -8.357  49.483  55.979  1.00  0.00     0.119 C 
BRANCH  25  26
HETATM   26  C8  UNL     1      -7.823  50.241  54.861  1.00  0.00     0.241 C 
HETATM   27  O1  UNL     1      -6.604  50.537  54.828  1.00  0.00    -0.271 OA
HETATM   28  N1  UNL     1      -8.647  50.658  53.797  1.00  0.00    -0.237 N 
ATOM     29  H1  UNL     1      -9.642  50.432  53.795  1.00  0.00     0.197 HD
BRANCH  28  30
HETATM   30  O2  UNL     1      -8.102  51.362  52.776  1.00  0.00    -0.287 OA
ATOM     31  H2  UNL     1      -7.530  52.094  52.973  1.00  0.00     0.244 HD
ENDBRANCH  28  30
ENDBRANCH  25  26
ENDBRANCH  19  25
ENDBRANCH   1  19
TORSDOF 12
ENDMDL
