MODEL 4
REMARK VINA RESULT: -7.268218287      1.536      1.938
REMARK  12 active torsions:
REMARK  status: ('A' for Active; 'I' for Inactive)
REMARK    1  A    between atoms: C2_2  and  C3_3 
REMARK    2  A    between atoms: C3_3  and  C4_4 
REMARK    3  A    between atoms: C4_4  and  C5_5 
REMARK    4  A    between atoms: C5_5  and  C6_6 
REMARK    5  A    between atoms: C6_6  and  C7_7 
REMARK    6  A    between atoms: C6_6  and  C9_14 
REMARK    7  A    between atoms: C7_7  and  C8_8 
REMARK       I    between atoms: C8_8  and  N1_10 
REMARK    8  A    between atoms: N1_10  and  O2_12 
REMARK       I    between atoms: C9_14  and  N2_16 
REMARK    9  A    between atoms: N2_16  and  C10_18 
REMARK   10  A    between atoms: C10_18  and  C11_19 
REMARK   11  A    between atoms: C10_18  and  C17_29 
REMARK       I    between atoms: C11_19  and  N3_21 
REMARK   12  A    between atoms: C15_25  and  C16_26 
ROOT
HETATM    1  C9  UNL     1      -7.271  46.313  56.423  1.00  0.00     0.223 C 
HETATM    2  O3  UNL     1      -6.385  46.576  57.273  1.00  0.00    -0.273 OA
HETATM    3  N2  UNL     1      -8.444  47.087  56.355  1.00  0.00    -0.347 N 
ATOM      4  H2  UNL     1      -9.143  46.846  55.652  1.00  0.00     0.163 HD
ENDROOT
BRANCH   3   5
HETATM    5  C10 UNL     1      -8.713  48.215  57.239  1.00  0.00     0.180 C 
BRANCH   5   6
HETATM    6  C11 UNL     1     -10.132  48.310  57.599  1.00  0.00     0.243 C 
HETATM    7  O4  UNL     1     -10.644  49.445  57.718  1.00  0.00    -0.271 OA
HETATM    8  N3  UNL     1     -10.926  47.179  57.810  1.00  0.00    -0.336 N 
HETATM    9  C12 UNL     1     -12.345  47.156  58.218  1.00  0.00     0.127 C 
HETATM   10  C15 UNL     1     -10.507  45.806  57.635  1.00  0.00     0.188 C 
HETATM   11  C13 UNL     1     -12.574  45.773  58.744  1.00  0.00     0.022 C 
HETATM   12  C14 UNL     1     -11.240  45.085  58.776  1.00  0.00     0.038 C 
BRANCH  10  13
HETATM   13  C16 UNL     1     -11.062  45.258  56.359  1.00  0.00     0.196 C 
HETATM   14  O5  UNL     1     -10.924  45.965  55.332  1.00  0.00    -0.646 OA
HETATM   15  O6  UNL     1     -11.698  44.051  56.255  1.00  0.00    -0.646 OA
ENDBRANCH  10  13
ENDBRANCH   5   6
BRANCH   5  16
HETATM   16  C17 UNL     1      -8.194  49.494  56.600  1.00  0.00     0.009 C 
HETATM   17  C18 UNL     1      -7.027  50.064  57.383  1.00  0.00     0.012 C 
HETATM   18  C19 UNL     1      -7.703  49.306  55.190  1.00  0.00     0.012 C 
ENDBRANCH   5  16
ENDBRANCH   3   5
BRANCH   1  19
HETATM   19  C6  UNL     1      -6.992  45.153  55.517  1.00  0.00     0.086 C 
BRANCH  19  20
HETATM   20  C5  UNL     1      -7.893  43.996  55.792  1.00  0.00     0.014 C 
BRANCH  20  21
HETATM   21  C4  UNL     1      -8.298  43.375  54.477  1.00  0.00     0.001 C 
BRANCH  21  22
HETATM   22  C3  UNL     1      -8.315  41.859  54.559  1.00  0.00    -0.000 C 
BRANCH  22  23
HETATM   23  C2  UNL     1      -9.709  41.423  54.963  1.00  0.00    -0.005 C 
HETATM   24  C1  UNL     1     -10.702  41.573  53.854  1.00  0.00     0.005 C 
ENDBRANCH  22  23
ENDBRANCH  21  22
ENDBRANCH  20  21
ENDBRANCH  19  20
BRANCH  19  25
HETATM   25  C7  UNL     1      -5.542  44.831  55.426  1.00  0.00     0.119 C 
BRANCH  25  26
HETATM   26  C8  UNL     1      -5.076  44.347  54.138  1.00  0.00     0.241 C 
HETATM   27  O1  UNL     1      -5.533  44.841  53.079  1.00  0.00    -0.271 OA
HETATM   28  N1  UNL     1      -4.112  43.323  54.044  1.00  0.00    -0.237 N 
ATOM     29  H1  UNL     1      -3.722  42.902  54.887  1.00  0.00     0.197 HD
BRANCH  28  30
HETATM   30  O2  UNL     1      -3.710  42.906  52.819  1.00  0.00    -0.287 OA
ATOM     31  H2  UNL     1      -4.153  42.171  52.413  1.00  0.00     0.244 HD
ENDBRANCH  28  30
ENDBRANCH  25  26
ENDBRANCH  19  25
ENDBRANCH   1  19
TORSDOF 12
ENDMDL
