MODEL 11
REMARK VINA RESULT: -3.598434782      1.355      3.484
REMARK  6 active torsions:
REMARK  status: ('A' for Active; 'I' for Inactive)
REMARK    1  A    between atoms: O1_2  and  C2_3 
REMARK    2  A    between atoms: C3_5  and  C4_6 
REMARK    3  A    between atoms: C4_6  and  O3_7 
REMARK    4  A    between atoms: C5_9  and  O4_10 
REMARK    5  A    between atoms: C6_12  and  O5_13 
REMARK    6  A    between atoms: C7_15  and  O6_16 
ROOT
HETATM    1  C2  UNL     1      51.658  54.539  66.347  1.00  0.00     0.290 C 
HETATM    2  O2  UNL     1      51.235  54.835  67.628  1.00  0.00    -0.349 OA
HETATM    3  C3  UNL     1      50.650  56.066  67.669  1.00  0.00     0.179 C 
HETATM    4  C5  UNL     1      51.336  57.174  66.985  1.00  0.00     0.180 C 
HETATM    5  C6  UNL     1      52.430  56.830  66.051  1.00  0.00     0.183 C 
HETATM    6  C7  UNL     1      52.883  55.396  66.096  1.00  0.00     0.204 C 
ENDROOT
BRANCH   3   7
HETATM    7  C4  UNL     1      49.189  55.938  67.223  1.00  0.00     0.198 C 
BRANCH   7   8
HETATM    8  O3  UNL     1      48.544  54.888  67.820  1.00  0.00    -0.398 OA
ATOM      9  H3  UNL     1      48.963  54.612  68.627  1.00  0.00     0.209 HD
ENDBRANCH   7   8
ENDBRANCH   3   7
BRANCH   4  10
HETATM   10  O4  UNL     1      51.814  58.139  67.907  1.00  0.00    -0.390 OA
ATOM     11  H4  UNL     1      52.253  58.857  67.466  1.00  0.00     0.210 HD
ENDBRANCH   4  10
BRANCH   1  12
HETATM   12  O1  UNL     1      51.971  53.178  66.291  1.00  0.00    -0.363 OA
HETATM   13  C1  UNL     1      51.533  52.508  67.434  1.00  0.00     0.204 C 
ENDBRANCH   1  12
BRANCH   5  14
HETATM   14  O5  UNL     1      52.080  57.091  64.705  1.00  0.00    -0.390 OA
ATOM     15  H5  UNL     1      51.870  56.296  64.231  1.00  0.00     0.210 HD
ENDBRANCH   5  14
BRANCH   6  16
HETATM   16  O6  UNL     1      53.758  55.182  67.155  1.00  0.00    -0.388 OA
ATOM     17  H6  UNL     1      53.472  54.394  67.601  1.00  0.00     0.210 HD
ENDBRANCH   6  16
TORSDOF 6
ENDMDL
