MODEL 10
REMARK VINA RESULT: -3.643909088      4.021      6.625
REMARK  6 active torsions:
REMARK  status: ('A' for Active; 'I' for Inactive)
REMARK    1  A    between atoms: O1_2  and  C2_3 
REMARK    2  A    between atoms: C3_5  and  C4_6 
REMARK    3  A    between atoms: C4_6  and  O3_7 
REMARK    4  A    between atoms: C5_9  and  O4_10 
REMARK    5  A    between atoms: C6_12  and  O5_13 
REMARK    6  A    between atoms: C7_15  and  O6_16 
ROOT
HETATM    1  C2  UNL     1      51.222  62.225  70.637  1.00  0.00     0.290 C 
HETATM    2  O2  UNL     1      50.114  61.450  70.356  1.00  0.00    -0.349 OA
HETATM    3  C3  UNL     1      50.160  60.993  69.072  1.00  0.00     0.179 C 
HETATM    4  C5  UNL     1      50.514  61.954  68.015  1.00  0.00     0.180 C 
HETATM    5  C6  UNL     1      51.091  63.250  68.433  1.00  0.00     0.183 C 
HETATM    6  C7  UNL     1      51.019  63.537  69.908  1.00  0.00     0.204 C 
ENDROOT
BRANCH   3   7
HETATM    7  C4  UNL     1      51.041  59.739  69.021  1.00  0.00     0.198 C 
BRANCH   7   8
HETATM    8  O3  UNL     1      50.544  58.779  68.181  1.00  0.00    -0.398 OA
ATOM      9  H3  UNL     1      49.815  58.302  68.560  1.00  0.00     0.209 HD
ENDBRANCH   7   8
ENDBRANCH   3   7
BRANCH   4  10
HETATM   10  O4  UNL     1      49.419  62.203  67.149  1.00  0.00    -0.390 OA
ATOM     11  H4  UNL     1      49.228  63.132  67.085  1.00  0.00     0.210 HD
ENDBRANCH   4  10
BRANCH   1  12
HETATM   12  O1  UNL     1      51.283  62.417  72.021  1.00  0.00    -0.363 OA
HETATM   13  C1  UNL     1      51.257  61.201  72.705  1.00  0.00     0.204 C 
ENDBRANCH   1  12
BRANCH   5  14
HETATM   14  O5  UNL     1      52.456  63.363  68.074  1.00  0.00    -0.390 OA
ATOM     15  H5  UNL     1      52.753  64.266  68.084  1.00  0.00     0.210 HD
ENDBRANCH   5  14
BRANCH   6  16
HETATM   16  O6  UNL     1      49.762  64.015  70.262  1.00  0.00    -0.388 OA
ATOM     17  H6  UNL     1      49.874  64.914  70.548  1.00  0.00     0.210 HD
ENDBRANCH   6  16
TORSDOF 6
ENDMDL
