MODEL 8
REMARK VINA RESULT: -3.830527927      3.997      5.592
REMARK  6 active torsions:
REMARK  status: ('A' for Active; 'I' for Inactive)
REMARK    1  A    between atoms: O1_2  and  C2_3 
REMARK    2  A    between atoms: C3_5  and  C4_6 
REMARK    3  A    between atoms: C4_6  and  O3_7 
REMARK    4  A    between atoms: C5_9  and  O4_10 
REMARK    5  A    between atoms: C6_12  and  O5_13 
REMARK    6  A    between atoms: C7_15  and  O6_16 
ROOT
HETATM    1  C2  UNL     1      50.302  62.224  69.760  1.00  0.00     0.290 C 
HETATM    2  O2  UNL     1      49.321  61.268  69.937  1.00  0.00    -0.349 OA
HETATM    3  C3  UNL     1      49.877  60.036  70.117  1.00  0.00     0.179 C 
HETATM    4  C5  UNL     1      50.961  59.633  69.207  1.00  0.00     0.180 C 
HETATM    5  C6  UNL     1      51.581  60.685  68.372  1.00  0.00     0.183 C 
HETATM    6  C7  UNL     1      50.861  62.007  68.369  1.00  0.00     0.204 C 
ENDROOT
BRANCH   3   7
HETATM    7  C4  UNL     1      50.281  59.883  71.588  1.00  0.00     0.198 C 
BRANCH   7   8
HETATM    8  O3  UNL     1      49.299  59.305  72.348  1.00  0.00    -0.398 OA
ATOM      9  H3  UNL     1      49.146  59.769  73.163  1.00  0.00     0.209 HD
ENDBRANCH   7   8
ENDBRANCH   3   7
BRANCH   4  10
HETATM   10  O4  UNL     1      50.564  58.563  68.366  1.00  0.00    -0.390 OA
ATOM     11  H4  UNL     1      51.100  57.790  68.508  1.00  0.00     0.210 HD
ENDBRANCH   4  10
BRANCH   1  12
HETATM   12  O1  UNL     1      49.712  63.486  69.879  1.00  0.00    -0.363 OA
HETATM   13  C1  UNL     1      50.673  64.497  69.899  1.00  0.00     0.204 C 
ENDBRANCH   1  12
BRANCH   5  14
HETATM   14  O5  UNL     1      52.911  60.961  68.769  1.00  0.00    -0.390 OA
ATOM     15  H5  UNL     1      53.490  61.068  68.023  1.00  0.00     0.210 HD
ENDBRANCH   5  14
BRANCH   6  16
HETATM   16  O6  UNL     1      49.783  61.985  67.491  1.00  0.00    -0.388 OA
ATOM     17  H6  UNL     1      49.296  62.790  67.625  1.00  0.00     0.210 HD
ENDBRANCH   6  16
TORSDOF 6
ENDMDL
