MODEL 2
REMARK VINA RESULT: -4.440814251      1.591      3.536
REMARK  6 active torsions:
REMARK  status: ('A' for Active; 'I' for Inactive)
REMARK    1  A    between atoms: O1_2  and  C2_3 
REMARK    2  A    between atoms: C3_5  and  C4_6 
REMARK    3  A    between atoms: C4_6  and  O3_7 
REMARK    4  A    between atoms: C5_9  and  O4_10 
REMARK    5  A    between atoms: C6_12  and  O5_13 
REMARK    6  A    between atoms: C7_15  and  O6_16 
ROOT
HETATM    1  C2  UNL     1      51.078  54.231  66.715  1.00  0.00     0.290 C 
HETATM    2  O2  UNL     1      50.697  54.471  68.020  1.00  0.00    -0.349 OA
HETATM    3  C3  UNL     1      49.856  55.543  68.087  1.00  0.00     0.179 C 
HETATM    4  C5  UNL     1      50.224  56.750  67.331  1.00  0.00     0.180 C 
HETATM    5  C6  UNL     1      51.294  56.624  66.317  1.00  0.00     0.183 C 
HETATM    6  C7  UNL     1      52.058  55.329  66.350  1.00  0.00     0.204 C 
ENDROOT
BRANCH   3   7
HETATM    7  C4  UNL     1      48.431  55.079  67.763  1.00  0.00     0.198 C 
BRANCH   7   8
HETATM    8  O3  UNL     1      47.660  56.076  67.229  1.00  0.00    -0.398 OA
ATOM      9  H3  UNL     1      46.774  55.792  67.039  1.00  0.00     0.209 HD
ENDBRANCH   7   8
ENDBRANCH   3   7
BRANCH   4  10
HETATM   10  O4  UNL     1      50.542  57.829  68.193  1.00  0.00    -0.390 OA
ATOM     11  H4  UNL     1      51.429  58.141  68.052  1.00  0.00     0.210 HD
ENDBRANCH   4  10
BRANCH   1  12
HETATM   12  O1  UNL     1      51.682  52.972  66.658  1.00  0.00    -0.363 OA
HETATM   13  C1  UNL     1      51.400  52.221  67.799  1.00  0.00     0.204 C 
ENDBRANCH   1  12
BRANCH   5  14
HETATM   14  O5  UNL     1      50.794  56.754  64.999  1.00  0.00    -0.390 OA
ATOM     15  H5  UNL     1      51.411  56.434  64.351  1.00  0.00     0.210 HD
ENDBRANCH   5  14
BRANCH   6  16
HETATM   16  O6  UNL     1      53.036  55.352  67.339  1.00  0.00    -0.388 OA
ATOM     17  H6  UNL     1      53.760  55.869  67.005  1.00  0.00     0.210 HD
ENDBRANCH   6  16
TORSDOF 6
ENDMDL
