MODEL 4
REMARK VINA RESULT: -3.964410564      4.293      6.144
REMARK  6 active torsions:
REMARK  status: ('A' for Active; 'I' for Inactive)
REMARK    1  A    between atoms: O1_2  and  C2_3 
REMARK    2  A    between atoms: C3_5  and  C4_6 
REMARK    3  A    between atoms: C4_6  and  O3_7 
REMARK    4  A    between atoms: C5_9  and  O4_10 
REMARK    5  A    between atoms: C6_12  and  O5_13 
REMARK    6  A    between atoms: C7_15  and  O6_16 
ROOT
HETATM    1  C2  UNL     1      50.755  61.830  71.072  1.00  0.00     0.290 C 
HETATM    2  O2  UNL     1      51.544  61.982  69.949  1.00  0.00    -0.349 OA
HETATM    3  C3  UNL     1      50.944  61.422  68.860  1.00  0.00     0.179 C 
HETATM    4  C5  UNL     1      50.360  60.080  69.014  1.00  0.00     0.180 C 
HETATM    5  C6  UNL     1      50.183  59.564  70.389  1.00  0.00     0.183 C 
HETATM    6  C7  UNL     1      50.854  60.370  71.467  1.00  0.00     0.204 C 
ENDROOT
BRANCH   3   7
HETATM    7  C4  UNL     1      49.937  62.420  68.278  1.00  0.00     0.198 C 
BRANCH   7   8
HETATM    8  O3  UNL     1      49.533  62.085  67.013  1.00  0.00    -0.398 OA
ATOM      9  H3  UNL     1      48.663  62.407  66.809  1.00  0.00     0.209 HD
ENDBRANCH   7   8
ENDBRANCH   3   7
BRANCH   4  10
HETATM   10  O4  UNL     1      51.065  59.114  68.253  1.00  0.00    -0.390 OA
ATOM     11  H4  UNL     1      51.898  58.893  68.654  1.00  0.00     0.210 HD
ENDBRANCH   4  10
BRANCH   1  12
HETATM   12  O1  UNL     1      51.255  62.663  72.077  1.00  0.00    -0.363 OA
HETATM   13  C1  UNL     1      51.544  63.936  71.585  1.00  0.00     0.204 C 
ENDBRANCH   1  12
BRANCH   5  14
HETATM   14  O5  UNL     1      48.818  59.478  70.752  1.00  0.00    -0.390 OA
ATOM     15  H5  UNL     1      48.565  60.169  71.353  1.00  0.00     0.210 HD
ENDBRANCH   5  14
BRANCH   6  16
HETATM   16  O6  UNL     1      52.206  60.059  71.554  1.00  0.00    -0.388 OA
ATOM     17  H6  UNL     1      52.645  60.815  71.926  1.00  0.00     0.210 HD
ENDBRANCH   6  16
TORSDOF 6
ENDMDL
