MODEL 10
REMARK VINA RESULT: -3.828115228      5.902      8.038
REMARK  6 active torsions:
REMARK  status: ('A' for Active; 'I' for Inactive)
REMARK    1  A    between atoms: O1_2  and  C2_3 
REMARK    2  A    between atoms: C3_5  and  C4_6 
REMARK    3  A    between atoms: C4_6  and  O3_7 
REMARK    4  A    between atoms: C5_9  and  O4_10 
REMARK    5  A    between atoms: C6_12  and  O5_13 
REMARK    6  A    between atoms: C7_15  and  O6_16 
ROOT
HETATM    1  C2  UNL     1      50.846  62.208  71.182  1.00  0.00     0.290 C 
HETATM    2  O2  UNL     1      51.613  62.373  70.028  1.00  0.00    -0.349 OA
HETATM    3  C3  UNL     1      51.156  61.670  68.953  1.00  0.00     0.179 C 
HETATM    4  C5  UNL     1      50.307  60.499  69.245  1.00  0.00     0.180 C 
HETATM    5  C6  UNL     1      50.525  59.847  70.572  1.00  0.00     0.183 C 
HETATM    6  C7  UNL     1      51.106  60.761  71.615  1.00  0.00     0.204 C 
ENDROOT
BRANCH   3   7
HETATM    7  C4  UNL     1      50.418  62.656  68.039  1.00  0.00     0.198 C 
BRANCH   7   8
HETATM    8  O3  UNL     1      49.640  61.924  67.129  1.00  0.00    -0.398 OA
ATOM      9  H3  UNL     1      49.892  61.010  67.184  1.00  0.00     0.209 HD
ENDBRANCH   7   8
ENDBRANCH   3   7
BRANCH   4  10
HETATM   10  O4  UNL     1      50.487  59.547  68.217  1.00  0.00    -0.390 OA
ATOM     11  H4  UNL     1      50.549  58.686  68.612  1.00  0.00     0.210 HD
ENDBRANCH   4  10
BRANCH   1  12
HETATM   12  O1  UNL     1      51.312  63.110  72.113  1.00  0.00    -0.363 OA
HETATM   13  C1  UNL     1      51.761  64.295  71.545  1.00  0.00     0.204 C 
ENDBRANCH   1  12
BRANCH   5  14
HETATM   14  O5  UNL     1      49.328  59.255  71.007  1.00  0.00    -0.390 OA
ATOM     15  H5  UNL     1      49.161  58.469  70.502  1.00  0.00     0.210 HD
ENDBRANCH   5  14
BRANCH   6  16
HETATM   16  O6  UNL     1      50.595  60.495  72.863  1.00  0.00    -0.388 OA
ATOM     17  H6  UNL     1      51.272  60.474  73.529  1.00  0.00     0.210 HD
ENDBRANCH   6  16
TORSDOF 6
ENDMDL
