MODEL 13
REMARK VINA RESULT: -3.548782085      6.021      7.891
REMARK  6 active torsions:
REMARK  status: ('A' for Active; 'I' for Inactive)
REMARK    1  A    between atoms: O1_2  and  C2_3 
REMARK    2  A    between atoms: C3_5  and  C4_6 
REMARK    3  A    between atoms: C4_6  and  O3_7 
REMARK    4  A    between atoms: C5_9  and  O4_10 
REMARK    5  A    between atoms: C6_12  and  O5_13 
REMARK    6  A    between atoms: C7_15  and  O6_16 
ROOT
HETATM    1  C2  UNL     1      51.202  62.088  71.011  1.00  0.00     0.290 C 
HETATM    2  O2  UNL     1      50.341  61.030  70.712  1.00  0.00    -0.349 OA
HETATM    3  C3  UNL     1      50.223  60.772  69.378  1.00  0.00     0.179 C 
HETATM    4  C5  UNL     1      50.555  61.880  68.461  1.00  0.00     0.180 C 
HETATM    5  C6  UNL     1      50.379  63.258  69.010  1.00  0.00     0.183 C 
HETATM    6  C7  UNL     1      50.467  63.336  70.509  1.00  0.00     0.204 C 
ENDROOT
BRANCH   3   7
HETATM    7  C4  UNL     1      51.087  59.542  69.071  1.00  0.00     0.198 C 
BRANCH   7   8
HETATM    8  O3  UNL     1      50.467  58.806  68.049  1.00  0.00    -0.398 OA
ATOM      9  H3  UNL     1      49.930  59.397  67.535  1.00  0.00     0.209 HD
ENDBRANCH   7   8
ENDBRANCH   3   7
BRANCH   4  10
HETATM   10  O4  UNL     1      49.781  61.737  67.288  1.00  0.00    -0.390 OA
ATOM     11  H4  UNL     1      49.174  62.466  67.238  1.00  0.00     0.210 HD
ENDBRANCH   4  10
BRANCH   1  12
HETATM   12  O1  UNL     1      51.362  62.106  72.379  1.00  0.00    -0.363 OA
HETATM   13  C1  UNL     1      50.999  60.911  72.986  1.00  0.00     0.204 C 
ENDBRANCH   1  12
BRANCH   5  14
HETATM   14  O5  UNL     1      51.288  64.130  68.390  1.00  0.00    -0.390 OA
ATOM     15  H5  UNL     1      51.415  64.898  68.936  1.00  0.00     0.210 HD
ENDBRANCH   5  14
BRANCH   6  16
HETATM   16  O6  UNL     1      51.080  64.496  70.922  1.00  0.00    -0.388 OA
ATOM     17  H6  UNL     1      50.545  65.262  70.750  1.00  0.00     0.210 HD
ENDBRANCH   6  16
TORSDOF 6
ENDMDL
