MODEL 1
REMARK VINA RESULT: -4.916710980      0.000      0.000
REMARK  6 active torsions:
REMARK  status: ('A' for Active; 'I' for Inactive)
REMARK    1  A    between atoms: O1_2  and  C2_3 
REMARK    2  A    between atoms: C3_5  and  C4_6 
REMARK    3  A    between atoms: C4_6  and  O3_7 
REMARK    4  A    between atoms: C5_9  and  O4_10 
REMARK    5  A    between atoms: C6_12  and  O5_13 
REMARK    6  A    between atoms: C7_15  and  O6_16 
ROOT
HETATM    1  C2  UNL     1      51.191  53.935  67.055  1.00  0.00     0.290 C 
HETATM    2  O2  UNL     1      50.639  54.366  68.263  1.00  0.00    -0.349 OA
HETATM    3  C3  UNL     1      49.942  55.534  68.168  1.00  0.00     0.179 C 
HETATM    4  C5  UNL     1      50.278  56.411  67.029  1.00  0.00     0.180 C 
HETATM    5  C6  UNL     1      51.666  56.282  66.492  1.00  0.00     0.183 C 
HETATM    6  C7  UNL     1      52.304  54.947  66.758  1.00  0.00     0.204 C 
ENDROOT
BRANCH   3   7
HETATM    7  C4  UNL     1      48.450  55.178  68.151  1.00  0.00     0.198 C 
BRANCH   7   8
HETATM    8  O3  UNL     1      47.811  55.979  67.192  1.00  0.00    -0.398 OA
ATOM      9  H3  UNL     1      47.455  55.414  66.516  1.00  0.00     0.209 HD
ENDBRANCH   7   8
ENDBRANCH   3   7
BRANCH   4  10
HETATM   10  O4  UNL     1      50.043  57.751  67.411  1.00  0.00    -0.390 OA
ATOM     11  H4  UNL     1      49.813  58.248  66.636  1.00  0.00     0.210 HD
ENDBRANCH   4  10
BRANCH   1  12
HETATM   12  O1  UNL     1      51.694  52.671  67.267  1.00  0.00    -0.363 OA
HETATM   13  C1  UNL     1      51.161  52.053  68.390  1.00  0.00     0.204 C 
ENDBRANCH   1  12
BRANCH   5  14
HETATM   14  O5  UNL     1      51.672  56.598  65.124  1.00  0.00    -0.390 OA
ATOM     15  H5  UNL     1      50.797  56.492  64.770  1.00  0.00     0.210 HD
ENDBRANCH   5  14
BRANCH   6  16
HETATM   16  O6  UNL     1      53.098  54.546  65.709  1.00  0.00    -0.388 OA
ATOM     17  H6  UNL     1      53.318  55.269  65.133  1.00  0.00     0.210 HD
ENDBRANCH   6  16
TORSDOF 6
ENDMDL
