MODEL 9
REMARK VINA RESULT: -3.854337554      5.609      7.696
REMARK  6 active torsions:
REMARK  status: ('A' for Active; 'I' for Inactive)
REMARK    1  A    between atoms: O1_2  and  C2_3 
REMARK    2  A    between atoms: C3_5  and  C4_6 
REMARK    3  A    between atoms: C4_6  and  O3_7 
REMARK    4  A    between atoms: C5_9  and  O4_10 
REMARK    5  A    between atoms: C6_12  and  O5_13 
REMARK    6  A    between atoms: C7_15  and  O6_16 
ROOT
HETATM    1  C2  UNL     1      50.664  61.107  72.002  1.00  0.00     0.290 C 
HETATM    2  O2  UNL     1      51.767  60.948  71.161  1.00  0.00    -0.349 OA
HETATM    3  C3  UNL     1      51.474  60.350  69.971  1.00  0.00     0.179 C 
HETATM    4  C5  UNL     1      50.253  59.522  69.933  1.00  0.00     0.180 C 
HETATM    5  C6  UNL     1      49.826  58.925  71.235  1.00  0.00     0.183 C 
HETATM    6  C7  UNL     1      50.307  59.683  72.442  1.00  0.00     0.204 C 
ENDROOT
BRANCH   3   7
HETATM    7  C4  UNL     1      51.409  61.453  68.906  1.00  0.00     0.198 C 
BRANCH   7   8
HETATM    8  O3  UNL     1      50.301  61.211  68.080  1.00  0.00    -0.398 OA
ATOM      9  H3  UNL     1      49.535  61.605  68.480  1.00  0.00     0.209 HD
ENDBRANCH   7   8
ENDBRANCH   3   7
BRANCH   4  10
HETATM   10  O4  UNL     1      50.438  58.494  68.982  1.00  0.00    -0.390 OA
ATOM     11  H4  UNL     1      49.662  57.947  68.975  1.00  0.00     0.210 HD
ENDBRANCH   4  10
BRANCH   1  12
HETATM   12  O1  UNL     1      51.073  61.881  73.066  1.00  0.00    -0.363 OA
HETATM   13  C1  UNL     1      51.086  63.240  72.777  1.00  0.00     0.204 C 
ENDBRANCH   1  12
BRANCH   5  14
HETATM   14  O5  UNL     1      48.432  58.764  71.244  1.00  0.00    -0.390 OA
ATOM     15  H5  UNL     1      48.021  59.532  70.865  1.00  0.00     0.210 HD
ENDBRANCH   5  14
BRANCH   6  16
HETATM   16  O6  UNL     1      49.373  59.673  73.451  1.00  0.00    -0.388 OA
ATOM     17  H6  UNL     1      49.218  60.542  73.801  1.00  0.00     0.210 HD
ENDBRANCH   6  16
TORSDOF 6
ENDMDL
