MODEL 1
REMARK VINA RESULT: -8.377919343      0.000      0.000
REMARK  9 active torsions:
REMARK  status: ('A' for Active; 'I' for Inactive)
REMARK    1  A    between atoms: N4_12  and  C5_13 
REMARK    2  A    between atoms: C7_15  and  O3_16 
REMARK    3  A    between atoms: C8_18  and  C9_19 
REMARK    4  A    between atoms: C9_19  and  O4_20 
REMARK    5  A    between atoms: O4_20  and  P1_21 
REMARK    6  A    between atoms: P1_21  and  O7_24 
REMARK    7  A    between atoms: O7_24  and  P2_25 
REMARK    8  A    between atoms: P2_25  and  O10_28 
REMARK    9  A    between atoms: O10_28  and  P3_29 
ROOT
HETATM    1  C5  UNL     1     -33.135 -20.679   2.067  1.00  0.00     0.237 C 
HETATM    2  C6  UNL     1     -34.221 -19.659   1.853  1.00  0.00     0.088 C 
HETATM    3  C7  UNL     1     -34.660 -19.979   0.440  1.00  0.00     0.153 C 
HETATM    4  C8  UNL     1     -33.463 -20.634  -0.147  1.00  0.00     0.177 C 
HETATM    5  O14 UNL     1     -32.554 -20.911   0.829  1.00  0.00    -0.356 OA
ENDROOT
BRANCH   1   6
HETATM    6  N4  UNL     1     -32.161 -20.205   3.009  1.00  0.00    -0.255 N 
HETATM    7  C4  UNL     1     -32.054 -20.611   4.386  1.00  0.00     0.331 A 
HETATM    8  N3  UNL     1     -30.961 -19.898   4.938  1.00  0.00    -0.300 N 
HETATM    9  O2  UNL     1     -32.818 -21.445   4.936  1.00  0.00    -0.246 OA
HETATM   10  C3  UNL     1     -30.420 -19.131   4.058  1.00  0.00     0.150 A 
ATOM     11  H3  UNL     1     -30.645 -19.982   5.904  1.00  0.00     0.171 HD
HETATM   12  C2  UNL     1     -29.289 -18.204   4.100  1.00  0.00     0.278 A 
HETATM   13  C10 UNL     1     -31.139 -19.273   2.784  1.00  0.00     0.149 A 
HETATM   14  N2  UNL     1     -28.954 -17.499   2.914  1.00  0.00    -0.295 N 
HETATM   15  O1  UNL     1     -28.629 -18.034   5.155  1.00  0.00    -0.265 OA
HETATM   16  C1  UNL     1     -29.646 -17.681   1.817  1.00  0.00     0.196 A 
ATOM     17  H2  UNL     1     -28.169 -16.848   2.916  1.00  0.00     0.171 HD
HETATM   18  N1  UNL     1     -29.323 -16.987   0.629  1.00  0.00    -0.063 NA
HETATM   19  N5  UNL     1     -30.739 -18.577   1.776  1.00  0.00    -0.314 N 
ATOM     20  H5  UNL     1     -31.241 -18.679   0.894  1.00  0.00     0.170 HD
ENDBRANCH   1   6
BRANCH   3  21
HETATM   21  O3  UNL     1     -35.754 -20.859   0.468  1.00  0.00    -0.393 OA
ATOM     22  H3  UNL     1     -36.148 -20.911  -0.396  1.00  0.00     0.210 HD
ENDBRANCH   3  21
BRANCH   4  23
HETATM   23  C9  UNL     1     -32.829 -19.688  -1.175  1.00  0.00     0.216 C 
BRANCH  23  24
HETATM   24  O4  UNL     1     -32.391 -18.566  -0.526  1.00  0.00    -0.287 OA
BRANCH  24  25
HETATM   25  P1  UNL     1     -33.047 -17.140  -0.898  1.00  0.00     0.417 P 
HETATM   26  O5  UNL     1     -32.929 -15.832   0.148  1.00  0.00    -0.624 OA
HETATM   27  O6  UNL     1     -33.972 -16.924  -2.259  1.00  0.00    -0.624 OA
BRANCH  25  28
HETATM   28  O7  UNL     1     -31.801 -16.608  -1.614  1.00  0.00    -0.180 OA
BRANCH  28  29
HETATM   29  P2  UNL     1     -32.091 -16.228  -3.229  1.00  0.00     0.428 P 
HETATM   30  O8  UNL     1     -30.927 -15.488  -4.065  1.00  0.00    -0.624 OA
HETATM   31  O9  UNL     1     -32.770 -14.928  -2.703  1.00  0.00    -0.624 OA
BRANCH  29  32
HETATM   32  O10 UNL     1     -31.702 -17.688  -3.509  1.00  0.00    -0.173 OA
BRANCH  32  33
HETATM   33  P3  UNL     1     -30.984 -18.235  -4.856  1.00  0.00     0.431 P 
HETATM   34  O11 UNL     1     -31.852 -18.959  -6.091  1.00  0.00    -0.616 OA
HETATM   35  O12 UNL     1     -30.618 -19.587  -4.268  1.00  0.00    -0.616 OA
HETATM   36  O13 UNL     1     -29.391 -17.886  -5.198  1.00  0.00    -0.616 OA
ENDBRANCH  32  33
ENDBRANCH  29  32
ENDBRANCH  28  29
ENDBRANCH  25  28
ENDBRANCH  24  25
ENDBRANCH  23  24
ENDBRANCH   4  23
TORSDOF 9
ENDMDL
