MODEL 3
REMARK VINA RESULT: -8.222883558      5.980     10.826
REMARK  9 active torsions:
REMARK  status: ('A' for Active; 'I' for Inactive)
REMARK    1  A    between atoms: N4_12  and  C5_13 
REMARK    2  A    between atoms: C7_15  and  O3_16 
REMARK    3  A    between atoms: C8_18  and  C9_19 
REMARK    4  A    between atoms: C9_19  and  O4_20 
REMARK    5  A    between atoms: O4_20  and  P1_21 
REMARK    6  A    between atoms: P1_21  and  O7_24 
REMARK    7  A    between atoms: O7_24  and  P2_25 
REMARK    8  A    between atoms: P2_25  and  O10_28 
REMARK    9  A    between atoms: O10_28  and  P3_29 
ROOT
HETATM    1  C5  UNL     1     -28.445 -18.305   5.075  1.00  0.00     0.237 C 
HETATM    2  C6  UNL     1     -27.892 -19.629   5.529  1.00  0.00     0.088 C 
HETATM    3  C7  UNL     1     -26.607 -19.202   6.205  1.00  0.00     0.153 C 
HETATM    4  C8  UNL     1     -26.296 -17.904   5.554  1.00  0.00     0.177 C 
HETATM    5  O14 UNL     1     -27.358 -17.485   4.810  1.00  0.00    -0.356 OA
ENDROOT
BRANCH   1   6
HETATM    6  N4  UNL     1     -29.264 -18.462   3.907  1.00  0.00    -0.255 N 
HETATM    7  C4  UNL     1     -28.988 -17.914   2.604  1.00  0.00     0.331 A 
HETATM    8  N3  UNL     1     -30.052 -18.315   1.759  1.00  0.00    -0.300 N 
HETATM    9  O2  UNL     1     -27.976 -17.218   2.333  1.00  0.00    -0.246 OA
HETATM   10  C3  UNL     1     -30.910 -19.025   2.403  1.00  0.00     0.150 A 
ATOM     11  H3  UNL     1     -30.128 -18.073   0.771  1.00  0.00     0.171 HD
HETATM   12  C2  UNL     1     -32.162 -19.675   2.016  1.00  0.00     0.278 A 
HETATM   13  C10 UNL     1     -30.471 -19.165   3.798  1.00  0.00     0.149 A 
HETATM   14  N2  UNL     1     -32.877 -20.399   3.006  1.00  0.00    -0.295 N 
HETATM   15  O1  UNL     1     -32.596 -19.597   0.840  1.00  0.00    -0.265 OA
HETATM   16  C1  UNL     1     -32.419 -20.477   4.230  1.00  0.00     0.196 A 
ATOM     17  H2  UNL     1     -33.753 -20.863   2.762  1.00  0.00     0.171 HD
HETATM   18  N1  UNL     1     -33.120 -21.194   5.225  1.00  0.00    -0.063 NA
HETATM   19  N5  UNL     1     -31.209 -19.849   4.604  1.00  0.00    -0.314 N 
ATOM     20  H5  UNL     1     -30.901 -19.944   5.572  1.00  0.00     0.170 HD
ENDBRANCH   1   6
BRANCH   3  21
HETATM   21  O3  UNL     1     -26.825 -19.037   7.583  1.00  0.00    -0.393 OA
ATOM     22  H3  UNL     1     -25.992 -18.985   8.038  1.00  0.00     0.210 HD
ENDBRANCH   3  21
BRANCH   4  23
HETATM   23  C9  UNL     1     -25.077 -18.082   4.641  1.00  0.00     0.216 C 
BRANCH  23  24
HETATM   24  O4  UNL     1     -23.943 -18.020   5.405  1.00  0.00    -0.287 OA
BRANCH  24  25
HETATM   25  P1  UNL     1     -22.952 -19.292   5.441  1.00  0.00     0.417 P 
HETATM   26  O5  UNL     1     -21.538 -19.315   4.535  1.00  0.00    -0.624 OA
HETATM   27  O6  UNL     1     -23.332 -20.682   6.264  1.00  0.00    -0.624 OA
BRANCH  25  28
HETATM   28  O7  UNL     1     -22.122 -18.775   6.621  1.00  0.00    -0.180 OA
BRANCH  28  29
HETATM   29  P2  UNL     1     -21.890 -19.941   7.814  1.00  0.00     0.428 P 
HETATM   30  O8  UNL     1     -20.993 -19.557   9.098  1.00  0.00    -0.624 OA
HETATM   31  O9  UNL     1     -20.714 -20.467   6.939  1.00  0.00    -0.624 OA
BRANCH  29  32
HETATM   32  O10 UNL     1     -23.265 -19.494   8.335  1.00  0.00    -0.173 OA
BRANCH  32  33
HETATM   33  P3  UNL     1     -23.613 -19.095   9.868  1.00  0.00     0.431 P 
HETATM   34  O11 UNL     1     -23.727 -20.245  11.079  1.00  0.00    -0.616 OA
HETATM   35  O12 UNL     1     -25.119 -19.101   9.666  1.00  0.00    -0.616 OA
HETATM   36  O13 UNL     1     -23.627 -17.507  10.373  1.00  0.00    -0.616 OA
ENDBRANCH  32  33
ENDBRANCH  29  32
ENDBRANCH  28  29
ENDBRANCH  25  28
ENDBRANCH  24  25
ENDBRANCH  23  24
ENDBRANCH   4  23
TORSDOF 9
ENDMDL
