MODEL 2
REMARK VINA RESULT: -8.361743019      5.592     10.199
REMARK  9 active torsions:
REMARK  status: ('A' for Active; 'I' for Inactive)
REMARK    1  A    between atoms: N4_12  and  C5_13 
REMARK    2  A    between atoms: C7_15  and  O3_16 
REMARK    3  A    between atoms: C8_18  and  C9_19 
REMARK    4  A    between atoms: C9_19  and  O4_20 
REMARK    5  A    between atoms: O4_20  and  P1_21 
REMARK    6  A    between atoms: P1_21  and  O7_24 
REMARK    7  A    between atoms: O7_24  and  P2_25 
REMARK    8  A    between atoms: P2_25  and  O10_28 
REMARK    9  A    between atoms: O10_28  and  P3_29 
ROOT
HETATM    1  C5  UNL     1     -29.013 -18.739   5.390  1.00  0.00     0.237 C 
HETATM    2  C6  UNL     1     -28.067 -19.906   5.484  1.00  0.00     0.088 C 
HETATM    3  C7  UNL     1     -26.836 -19.248   6.071  1.00  0.00     0.153 C 
HETATM    4  C8  UNL     1     -26.990 -17.824   5.674  1.00  0.00     0.177 C 
HETATM    5  O14 UNL     1     -28.238 -17.610   5.171  1.00  0.00    -0.356 OA
ENDROOT
BRANCH   1   6
HETATM    6  N4  UNL     1     -29.957 -18.926   4.325  1.00  0.00    -0.255 N 
HETATM    7  C4  UNL     1     -31.074 -19.834   4.338  1.00  0.00     0.331 A 
HETATM    8  N3  UNL     1     -31.732 -19.691   3.092  1.00  0.00    -0.300 N 
HETATM    9  O2  UNL     1     -31.358 -20.586   5.306  1.00  0.00    -0.246 OA
HETATM   10  C3  UNL     1     -31.141 -18.817   2.357  1.00  0.00     0.150 A 
ATOM     11  H3  UNL     1     -32.564 -20.212   2.814  1.00  0.00     0.171 HD
HETATM   12  C2  UNL     1     -31.401 -18.300   1.013  1.00  0.00     0.278 A 
HETATM   13  C10 UNL     1     -29.984 -18.276   3.084  1.00  0.00     0.149 A 
HETATM   14  N2  UNL     1     -30.525 -17.311   0.492  1.00  0.00    -0.295 N 
HETATM   15  O1  UNL     1     -32.372 -18.717   0.335  1.00  0.00    -0.265 OA
HETATM   16  C1  UNL     1     -29.514 -16.881   1.204  1.00  0.00     0.196 A 
ATOM     17  H2  UNL     1     -30.685 -16.934  -0.442  1.00  0.00     0.171 HD
HETATM   18  N1  UNL     1     -28.634 -15.898   0.698  1.00  0.00    -0.063 NA
HETATM   19  N5  UNL     1     -29.262 -17.380   2.502  1.00  0.00    -0.314 N 
ATOM     20  H5  UNL     1     -28.460 -17.008   3.010  1.00  0.00     0.170 HD
ENDBRANCH   1   6
BRANCH   3  21
HETATM   21  O3  UNL     1     -26.843 -19.385   7.469  1.00  0.00    -0.393 OA
ATOM     22  H3  UNL     1     -25.969 -19.239   7.812  1.00  0.00     0.210 HD
ENDBRANCH   3  21
BRANCH   4  23
HETATM   23  C9  UNL     1     -25.947 -17.490   4.600  1.00  0.00     0.216 C 
BRANCH  23  24
HETATM   24  O4  UNL     1     -24.790 -17.101   5.219  1.00  0.00    -0.287 OA
BRANCH  24  25
HETATM   25  P1  UNL     1     -23.538 -18.117   5.248  1.00  0.00     0.417 P 
HETATM   26  O5  UNL     1     -21.958 -17.548   5.212  1.00  0.00    -0.624 OA
HETATM   27  O6  UNL     1     -23.738 -19.764   5.189  1.00  0.00    -0.624 OA
BRANCH  25  28
HETATM   28  O7  UNL     1     -23.432 -18.147   6.777  1.00  0.00    -0.180 OA
BRANCH  28  29
HETATM   29  P2  UNL     1     -22.652 -19.525   7.348  1.00  0.00     0.428 P 
HETATM   30  O8  UNL     1     -21.458 -19.344   8.419  1.00  0.00    -0.624 OA
HETATM   31  O9  UNL     1     -21.754 -19.428   6.080  1.00  0.00    -0.624 OA
BRANCH  29  32
HETATM   32  O10 UNL     1     -23.836 -19.636   8.321  1.00  0.00    -0.173 OA
BRANCH  32  33
HETATM   33  P3  UNL     1     -23.838 -19.158   9.870  1.00  0.00     0.431 P 
HETATM   34  O11 UNL     1     -23.810 -20.253  11.136  1.00  0.00    -0.616 OA
HETATM   35  O12 UNL     1     -25.349 -19.027   9.965  1.00  0.00    -0.616 OA
HETATM   36  O13 UNL     1     -23.614 -17.561  10.289  1.00  0.00    -0.616 OA
ENDBRANCH  32  33
ENDBRANCH  29  32
ENDBRANCH  28  29
ENDBRANCH  25  28
ENDBRANCH  24  25
ENDBRANCH  23  24
ENDBRANCH   4  23
TORSDOF 9
ENDMDL
