MODEL 5
REMARK VINA RESULT: -8.018063676      2.620      5.503
REMARK  4 active torsions:
REMARK  status: ('A' for Active; 'I' for Inactive)
REMARK    1  A    between atoms: N1_1  and  C1_5 
REMARK    2  A    between atoms: C1_5  and  C2_6 
REMARK    3  A    between atoms: C1_5  and  C11_19 
REMARK    4  A    between atoms: C2_6  and  C3_7 
ROOT
HETATM    1  C3  UNL     1      14.044   7.874  20.455  1.00  0.00    -0.041 C 
HETATM    2  C4  UNL     1      14.526   6.830  21.089  1.00  0.00    -0.018 C 
HETATM    3  C5  UNL     1      14.415   6.411  22.516  1.00  0.00     0.028 C 
HETATM    4  C6  UNL     1      14.588   7.618  23.423  1.00  0.00     0.010 C 
HETATM    5  C7  UNL     1      13.285   8.348  23.609  1.00  0.00     0.068 C 
HETATM    6  C8  UNL     1      12.901   9.119  22.403  1.00  0.00     0.092 A 
HETATM    7  O1  UNL     1      12.127  10.205  22.438  1.00  0.00    -0.238 OA
HETATM    8  N2  UNL     1      11.947  10.680  21.255  1.00  0.00    -0.225 N 
ATOM      9  H2  UNL     1      11.389  11.507  21.041  1.00  0.00     0.198 HD
HETATM   10  C9  UNL     1      12.596   9.937  20.340  1.00  0.00     0.278 A 
HETATM   11  O2  UNL     1      12.659  10.078  19.100  1.00  0.00    -0.265 OA
HETATM   12  C10 UNL     1      13.214   8.928  21.075  1.00  0.00     0.071 A 
ENDROOT
BRANCH   1  13
HETATM   13  C2  UNL     1      14.281   8.096  19.029  1.00  0.00     0.083 C 
BRANCH  13  14
HETATM   14  C1  UNL     1      15.738   8.312  18.656  1.00  0.00     0.287 C 
BRANCH  14  15
HETATM   15  N1  UNL     1      15.882   9.287  17.607  1.00  0.00    -0.065 N 
ATOM     16  H13 UNL     1      15.734  10.234  17.957  1.00  0.00     0.275 HD
ATOM     17  H12 UNL     1      16.854   9.376  17.312  1.00  0.00     0.275 HD
ATOM     18  H11 UNL     1      15.270   9.085  16.815  1.00  0.00     0.275 HD
ENDBRANCH  14  15
BRANCH  14  19
HETATM   19  C11 UNL     1      16.372   7.042  18.224  1.00  0.00     0.204 C 
HETATM   20  O3  UNL     1      17.554   6.949  17.804  1.00  0.00    -0.646 OA
HETATM   21  O4  UNL     1      15.624   5.876  18.283  1.00  0.00    -0.646 OA
ENDBRANCH  14  19
ENDBRANCH  13  14
ENDBRANCH   1  13
TORSDOF 4
ENDMDL
