MODEL 6
REMARK VINA RESULT: -7.909534300      1.160      1.204
REMARK  4 active torsions:
REMARK  status: ('A' for Active; 'I' for Inactive)
REMARK    1  A    between atoms: N1_1  and  C1_5 
REMARK    2  A    between atoms: C1_5  and  C2_6 
REMARK    3  A    between atoms: C1_5  and  C11_19 
REMARK    4  A    between atoms: C2_6  and  C3_7 
ROOT
HETATM    1  C3  UNL     1      13.832   8.567  22.009  1.00  0.00    -0.041 C 
HETATM    2  C4  UNL     1      12.823   9.248  22.500  1.00  0.00    -0.018 C 
HETATM    3  C5  UNL     1      11.671   9.915  21.829  1.00  0.00     0.028 C 
HETATM    4  C6  UNL     1      12.148  10.640  20.581  1.00  0.00     0.010 C 
HETATM    5  C7  UNL     1      12.205   9.708  19.401  1.00  0.00     0.068 C 
HETATM    6  C8  UNL     1      13.354   8.775  19.483  1.00  0.00     0.092 A 
HETATM    7  O1  UNL     1      13.932   8.222  18.416  1.00  0.00    -0.238 OA
HETATM    8  N2  UNL     1      14.902   7.452  18.765  1.00  0.00    -0.225 N 
ATOM      9  H2  UNL     1      15.487   6.924  18.116  1.00  0.00     0.198 HD
HETATM   10  C9  UNL     1      15.040   7.436  20.103  1.00  0.00     0.278 A 
HETATM   11  O2  UNL     1      15.859   6.814  20.813  1.00  0.00    -0.265 OA
HETATM   12  C10 UNL     1      14.043   8.289  20.572  1.00  0.00     0.071 A 
ENDROOT
BRANCH   1  13
HETATM   13  C2  UNL     1      14.872   7.992  22.862  1.00  0.00     0.083 C 
BRANCH  13  14
HETATM   14  C1  UNL     1      14.559   6.602  23.390  1.00  0.00     0.287 C 
BRANCH  14  15
HETATM   15  N1  UNL     1      13.801   5.828  22.441  1.00  0.00    -0.065 N 
ATOM     16  H13 UNL     1      12.883   5.581  22.812  1.00  0.00     0.275 HD
ATOM     17  H12 UNL     1      13.504   6.399  21.649  1.00  0.00     0.275 HD
ATOM     18  H11 UNL     1      14.312   5.001  22.133  1.00  0.00     0.275 HD
ENDBRANCH  14  15
BRANCH  14  19
HETATM   19  C11 UNL     1      13.805   6.673  24.666  1.00  0.00     0.204 C 
HETATM   20  O3  UNL     1      14.339   6.678  25.804  1.00  0.00    -0.646 OA
HETATM   21  O4  UNL     1      12.420   6.738  24.613  1.00  0.00    -0.646 OA
ENDBRANCH  14  19
ENDBRANCH  13  14
ENDBRANCH   1  13
TORSDOF 4
ENDMDL
