MODEL 12
REMARK VINA RESULT: -7.229531553      2.487      4.585
REMARK  4 active torsions:
REMARK  status: ('A' for Active; 'I' for Inactive)
REMARK    1  A    between atoms: N1_1  and  C1_5 
REMARK    2  A    between atoms: C1_5  and  C2_6 
REMARK    3  A    between atoms: C1_5  and  C11_19 
REMARK    4  A    between atoms: C2_6  and  C3_7 
ROOT
HETATM    1  C3  UNL     1      13.615   8.330  20.902  1.00  0.00    -0.041 C 
HETATM    2  C4  UNL     1      12.982   8.799  21.952  1.00  0.00    -0.018 C 
HETATM    3  C5  UNL     1      13.174   8.545  23.408  1.00  0.00     0.028 C 
HETATM    4  C6  UNL     1      13.420   7.063  23.646  1.00  0.00     0.010 C 
HETATM    5  C7  UNL     1      14.873   6.719  23.466  1.00  0.00     0.068 C 
HETATM    6  C8  UNL     1      15.271   6.711  22.038  1.00  0.00     0.092 A 
HETATM    7  O1  UNL     1      16.283   5.987  21.559  1.00  0.00    -0.238 OA
HETATM    8  N2  UNL     1      16.416   6.163  20.291  1.00  0.00    -0.225 N 
ATOM      9  H2  UNL     1      17.125   5.711  19.714  1.00  0.00     0.198 HD
HETATM   10  C9  UNL     1      15.493   7.027  19.831  1.00  0.00     0.278 A 
HETATM   11  O2  UNL     1      15.303   7.447  18.670  1.00  0.00    -0.265 OA
HETATM   12  C10 UNL     1      14.750   7.384  20.954  1.00  0.00     0.071 A 
ENDROOT
BRANCH   1  13
HETATM   13  C2  UNL     1      13.254   8.716  19.538  1.00  0.00     0.083 C 
BRANCH  13  14
HETATM   14  C1  UNL     1      12.900  10.184  19.369  1.00  0.00     0.287 C 
BRANCH  14  15
HETATM   15  N1  UNL     1      13.834  11.040  20.055  1.00  0.00    -0.065 N 
ATOM     16  H13 UNL     1      13.932  10.773  21.034  1.00  0.00     0.275 HD
ATOM     17  H12 UNL     1      14.791  10.869  19.746  1.00  0.00     0.275 HD
ATOM     18  H11 UNL     1      13.583  12.025  19.961  1.00  0.00     0.275 HD
ENDBRANCH  14  15
BRANCH  14  19
HETATM   19  C11 UNL     1      11.532  10.464  19.870  1.00  0.00     0.204 C 
HETATM   20  O3  UNL     1      11.260  11.338  20.731  1.00  0.00    -0.646 OA
HETATM   21  O4  UNL     1      10.477   9.720  19.362  1.00  0.00    -0.646 OA
ENDBRANCH  14  19
ENDBRANCH  13  14
ENDBRANCH   1  13
TORSDOF 4
ENDMDL
