MODEL 11
REMARK VINA RESULT: -7.413656788      2.811      4.460
REMARK  4 active torsions:
REMARK  status: ('A' for Active; 'I' for Inactive)
REMARK    1  A    between atoms: N1_1  and  C1_5 
REMARK    2  A    between atoms: C1_5  and  C2_6 
REMARK    3  A    between atoms: C1_5  and  C11_19 
REMARK    4  A    between atoms: C2_6  and  C3_7 
ROOT
HETATM    1  C3  UNL     1      13.738   8.349  20.721  1.00  0.00    -0.041 C 
HETATM    2  C4  UNL     1      13.519   8.534  22.003  1.00  0.00    -0.018 C 
HETATM    3  C5  UNL     1      14.239   8.024  23.205  1.00  0.00     0.028 C 
HETATM    4  C6  UNL     1      14.601   6.561  23.008  1.00  0.00     0.010 C 
HETATM    5  C7  UNL     1      15.897   6.418  22.258  1.00  0.00     0.068 C 
HETATM    6  C8  UNL     1      15.745   6.731  20.817  1.00  0.00     0.092 A 
HETATM    7  O1  UNL     1      16.533   6.229  19.866  1.00  0.00    -0.238 OA
HETATM    8  N2  UNL     1      16.187   6.661  18.704  1.00  0.00    -0.225 N 
ATOM      9  H2  UNL     1      16.649   6.410  17.830  1.00  0.00     0.198 HD
HETATM   10  C9  UNL     1      15.132   7.492  18.801  1.00  0.00     0.278 A 
HETATM   11  O2  UNL     1      14.517   8.106  17.903  1.00  0.00    -0.265 OA
HETATM   12  C10 UNL     1      14.842   7.541  20.162  1.00  0.00     0.071 A 
ENDROOT
BRANCH   1  13
HETATM   13  C2  UNL     1      12.891   8.951  19.692  1.00  0.00     0.083 C 
BRANCH  13  14
HETATM   14  C1  UNL     1      12.773  10.464  19.775  1.00  0.00     0.287 C 
BRANCH  14  15
HETATM   15  N1  UNL     1      13.984  11.067  20.268  1.00  0.00    -0.065 N 
ATOM     16  H13 UNL     1      14.799  10.742  19.747  1.00  0.00     0.275 HD
ATOM     17  H12 UNL     1      14.029  12.058  20.031  1.00  0.00     0.275 HD
ATOM     18  H11 UNL     1      14.100  10.919  21.270  1.00  0.00     0.275 HD
ENDBRANCH  14  15
BRANCH  14  19
HETATM   19  C11 UNL     1      11.644  10.864  20.651  1.00  0.00     0.204 C 
HETATM   20  O3  UNL     1      11.776  11.507  21.723  1.00  0.00    -0.646 OA
HETATM   21  O4  UNL     1      10.357  10.513  20.272  1.00  0.00    -0.646 OA
ENDBRANCH  14  19
ENDBRANCH  13  14
ENDBRANCH   1  13
TORSDOF 4
ENDMDL
