MODEL 8
REMARK VINA RESULT: -7.739939545      1.537      1.735
REMARK  4 active torsions:
REMARK  status: ('A' for Active; 'I' for Inactive)
REMARK    1  A    between atoms: N1_1  and  C1_5 
REMARK    2  A    between atoms: C1_5  and  C2_6 
REMARK    3  A    between atoms: C1_5  and  C11_19 
REMARK    4  A    between atoms: C2_6  and  C3_7 
ROOT
HETATM    1  C3  UNL     1      13.946   7.986  21.060  1.00  0.00    -0.041 C 
HETATM    2  C4  UNL     1      12.907   8.775  21.209  1.00  0.00    -0.018 C 
HETATM    3  C5  UNL     1      12.287   9.766  20.283  1.00  0.00     0.028 C 
HETATM    4  C6  UNL     1      13.372  10.566  19.580  1.00  0.00     0.010 C 
HETATM    5  C7  UNL     1      13.873   9.843  18.358  1.00  0.00     0.068 C 
HETATM    6  C8  UNL     1      14.737   8.691  18.708  1.00  0.00     0.092 A 
HETATM    7  O1  UNL     1      15.683   8.208  17.902  1.00  0.00    -0.238 OA
HETATM    8  N2  UNL     1      16.284   7.207  18.445  1.00  0.00    -0.225 N 
ATOM      9  H2  UNL     1      17.042   6.681  18.010  1.00  0.00     0.198 HD
HETATM   10  C9  UNL     1      15.774   6.950  19.663  1.00  0.00     0.278 A 
HETATM   11  O2  UNL     1      16.089   6.065  20.488  1.00  0.00    -0.265 OA
HETATM   12  C10 UNL     1      14.775   7.904  19.839  1.00  0.00     0.071 A 
ENDROOT
BRANCH   1  13
HETATM   13  C2  UNL     1      14.392   7.079  22.117  1.00  0.00     0.083 C 
BRANCH  13  14
HETATM   14  C1  UNL     1      14.398   7.685  23.510  1.00  0.00     0.287 C 
BRANCH  14  15
HETATM   15  N1  UNL     1      15.733   7.789  24.041  1.00  0.00    -0.065 N 
ATOM     16  H13 UNL     1      16.411   7.332  23.432  1.00  0.00     0.275 HD
ATOM     17  H12 UNL     1      16.083   8.745  23.982  1.00  0.00     0.275 HD
ATOM     18  H11 UNL     1      15.789   7.430  24.995  1.00  0.00     0.275 HD
ENDBRANCH  14  15
BRANCH  14  19
HETATM   19  C11 UNL     1      13.568   6.885  24.444  1.00  0.00     0.204 C 
HETATM   20  O3  UNL     1      12.335   6.688  24.303  1.00  0.00    -0.646 OA
HETATM   21  O4  UNL     1      14.182   6.312  25.548  1.00  0.00    -0.646 OA
ENDBRANCH  14  19
ENDBRANCH  13  14
ENDBRANCH   1  13
TORSDOF 4
ENDMDL
