MODEL 1
REMARK VINA RESULT: -10.071846168      0.000      0.000
REMARK  4 active torsions:
REMARK  status: ('A' for Active; 'I' for Inactive)
REMARK    1  A    between atoms: N1_1  and  C1_5 
REMARK    2  A    between atoms: C1_5  and  C2_6 
REMARK    3  A    between atoms: C1_5  and  C11_19 
REMARK    4  A    between atoms: C2_6  and  C3_7 
ROOT
HETATM    1  C3  UNL     1      13.582   8.523  22.016  1.00  0.00    -0.041 C 
HETATM    2  C4  UNL     1      12.819   9.588  22.111  1.00  0.00    -0.018 C 
HETATM    3  C5  UNL     1      12.189  10.439  21.062  1.00  0.00     0.028 C 
HETATM    4  C6  UNL     1      13.178  10.684  19.932  1.00  0.00     0.010 C 
HETATM    5  C7  UNL     1      13.150   9.557  18.935  1.00  0.00     0.068 C 
HETATM    6  C8  UNL     1      13.812   8.337  19.454  1.00  0.00     0.092 A 
HETATM    7  O1  UNL     1      14.369   7.412  18.672  1.00  0.00    -0.238 OA
HETATM    8  N2  UNL     1      14.871   6.457  19.374  1.00  0.00    -0.225 N 
ATOM      9  H2  UNL     1      15.347   5.641  18.988  1.00  0.00     0.198 HD
HETATM   10  C9  UNL     1      14.681   6.681  20.687  1.00  0.00     0.278 A 
HETATM   11  O2  UNL     1      15.020   5.988  21.671  1.00  0.00    -0.265 OA
HETATM   12  C10 UNL     1      13.998   7.893  20.745  1.00  0.00     0.071 A 
ENDROOT
BRANCH   1  13
HETATM   13  C2  UNL     1      14.104   7.832  23.195  1.00  0.00     0.083 C 
BRANCH  13  14
HETATM   14  C1  UNL     1      13.125   6.872  23.849  1.00  0.00     0.287 C 
BRANCH  14  15
HETATM   15  N1  UNL     1      11.764   7.323  23.714  1.00  0.00    -0.065 N 
ATOM     16  H13 UNL     1      11.454   7.821  24.549  1.00  0.00     0.275 HD
ATOM     17  H12 UNL     1      11.689   8.083  23.038  1.00  0.00     0.275 HD
ATOM     18  H11 UNL     1      11.132   6.556  23.483  1.00  0.00     0.275 HD
ENDBRANCH  14  15
BRANCH  14  19
HETATM   19  C11 UNL     1      13.433   6.694  25.290  1.00  0.00     0.204 C 
HETATM   20  O3  UNL     1      14.511   6.217  25.728  1.00  0.00    -0.646 OA
HETATM   21  O4  UNL     1      12.479   7.074  26.222  1.00  0.00    -0.646 OA
ENDBRANCH  14  19
ENDBRANCH  13  14
ENDBRANCH   1  13
TORSDOF 4
ENDMDL
