MODEL 4
REMARK VINA RESULT: -8.389145803      1.372      1.406
REMARK  4 active torsions:
REMARK  status: ('A' for Active; 'I' for Inactive)
REMARK    1  A    between atoms: N1_1  and  C1_5 
REMARK    2  A    between atoms: C1_5  and  C2_6 
REMARK    3  A    between atoms: C1_5  and  C11_19 
REMARK    4  A    between atoms: C2_6  and  C3_7 
ROOT
HETATM    1  C3  UNL     1      13.463   8.297  21.603  1.00  0.00    -0.041 C 
HETATM    2  C4  UNL     1      12.505   9.094  22.018  1.00  0.00    -0.018 C 
HETATM    3  C5  UNL     1      11.795  10.213  21.334  1.00  0.00     0.028 C 
HETATM    4  C6  UNL     1      12.791  11.059  20.558  1.00  0.00     0.010 C 
HETATM    5  C7  UNL     1      13.046  10.481  19.192  1.00  0.00     0.068 C 
HETATM    6  C8  UNL     1      13.893   9.266  19.252  1.00  0.00     0.092 A 
HETATM    7  O1  UNL     1      14.668   8.858  18.246  1.00  0.00    -0.238 OA
HETATM    8  N2  UNL     1      15.295   7.778  18.556  1.00  0.00    -0.225 N 
ATOM      9  H2  UNL     1      15.943   7.286  17.940  1.00  0.00     0.198 HD
HETATM   10  C9  UNL     1      14.979   7.386  19.804  1.00  0.00     0.278 A 
HETATM   11  O2  UNL     1      15.378   6.395  20.452  1.00  0.00    -0.265 OA
HETATM   12  C10 UNL     1      14.074   8.342  20.258  1.00  0.00     0.071 A 
ENDROOT
BRANCH   1  13
HETATM   13  C2  UNL     1      14.027   7.250  22.454  1.00  0.00     0.083 C 
BRANCH  13  14
HETATM   14  C1  UNL     1      14.342   7.690  23.873  1.00  0.00     0.287 C 
BRANCH  14  15
HETATM   15  N1  UNL     1      15.760   7.707  24.125  1.00  0.00    -0.065 N 
ATOM     16  H13 UNL     1      16.280   7.306  23.345  1.00  0.00     0.275 HD
ATOM     17  H12 UNL     1      16.132   8.657  24.092  1.00  0.00     0.275 HD
ATOM     18  H11 UNL     1      15.994   7.246  25.004  1.00  0.00     0.275 HD
ENDBRANCH  14  15
BRANCH  14  19
HETATM   19  C11 UNL     1      13.687   6.802  24.866  1.00  0.00     0.204 C 
HETATM   20  O3  UNL     1      14.307   6.126  25.726  1.00  0.00    -0.646 OA
HETATM   21  O4  UNL     1      12.304   6.704  24.853  1.00  0.00    -0.646 OA
ENDBRANCH  14  19
ENDBRANCH  13  14
ENDBRANCH   1  13
TORSDOF 4
ENDMDL
