MODEL 6
REMARK VINA RESULT: -8.884579031      1.421      2.449
REMARK  7 active torsions:
REMARK  status: ('A' for Active; 'I' for Inactive)
REMARK    1  A    between atoms: C3_4  and  O2_5 
REMARK    2  A    between atoms: N1_7  and  C4_8 
REMARK    3  A    between atoms: C5_10  and  C6_11 
REMARK    4  A    between atoms: C6_11  and  O4_12 
REMARK    5  A    between atoms: O4_12  and  P1_13 
REMARK    6  A    between atoms: C7_17  and  O8_18 
REMARK    7  A    between atoms: C8_20  and  O9_21 
ROOT
HETATM    1  C4  UNL     1      25.822 -18.307  13.571  1.00  0.00     0.266 C 
HETATM    2  O3  UNL     1      25.769 -18.367  12.161  1.00  0.00    -0.353 OA
HETATM    3  C5  UNL     1      24.542 -17.758  11.925  1.00  0.00     0.180 C 
HETATM    4  C7  UNL     1      24.744 -16.422  12.618  1.00  0.00     0.182 C 
HETATM    5  C8  UNL     1      25.380 -16.886  13.916  1.00  0.00     0.198 C 
ENDROOT
BRANCH   1   6
HETATM    6  N1  UNL     1      27.115 -18.603  14.082  1.00  0.00    -0.249 N 
HETATM    7  C3  UNL     1      27.287 -19.572  14.989  1.00  0.00     0.153 A 
HETATM    8  C2  UNL     1      28.559 -19.870  15.498  1.00  0.00     0.130 A 
HETATM    9  C1  UNL     1      29.655 -19.146  15.054  1.00  0.00     0.253 A 
HETATM   10  O1  UNL     1      30.824 -19.389  15.496  1.00  0.00    -0.268 OA
HETATM   11  N2  UNL     1      29.433 -18.185  14.146  1.00  0.00    -0.275 N 
HETATM   12  C9  UNL     1      28.197 -17.927  13.679  1.00  0.00     0.333 A 
ATOM     13  H2  UNL     1      30.220 -17.635  13.801  1.00  0.00     0.173 HD
HETATM   14  O10 UNL     1      28.062 -17.016  12.833  1.00  0.00    -0.246 OA
BRANCH   7  15
HETATM   15  O2  UNL     1      26.234 -20.332  15.474  1.00  0.00    -0.346 OA
ATOM     16  H2  UNL     1      25.603 -19.881  16.021  1.00  0.00     0.219 HD
ENDBRANCH   7  15
ENDBRANCH   1   6
BRANCH   5  17
HETATM   17  O9  UNL     1      24.407 -16.914  14.908  1.00  0.00    -0.388 OA
ATOM     18  H9  UNL     1      24.544 -16.202  15.521  1.00  0.00     0.210 HD
ENDBRANCH   5  17
BRANCH   3  19
HETATM   19  C6  UNL     1      24.311 -17.479  10.451  1.00  0.00     0.217 C 
BRANCH  19  20
HETATM   20  O4  UNL     1      25.076 -16.403  10.131  1.00  0.00    -0.280 OA
BRANCH  20  21
HETATM   21  P1  UNL     1      25.450 -16.100   8.595  1.00  0.00     0.422 P 
HETATM   22  O5  UNL     1      26.926 -16.565   7.926  1.00  0.00    -0.617 OA
HETATM   23  O6  UNL     1      24.784 -17.349   8.043  1.00  0.00    -0.617 OA
HETATM   24  O7  UNL     1      24.489 -15.109   7.680  1.00  0.00    -0.617 OA
ENDBRANCH  20  21
ENDBRANCH  19  20
ENDBRANCH   3  19
BRANCH   4  25
HETATM   25  O8  UNL     1      23.569 -15.731  12.810  1.00  0.00    -0.390 OA
ATOM     26  H8  UNL     1      23.092 -16.014  13.581  1.00  0.00     0.210 HD
ENDBRANCH   4  25
TORSDOF 7
ENDMDL
