MODEL 14
REMARK VINA RESULT: -7.754973970      3.074      6.645
REMARK  7 active torsions:
REMARK  status: ('A' for Active; 'I' for Inactive)
REMARK    1  A    between atoms: C3_4  and  O2_5 
REMARK    2  A    between atoms: N1_7  and  C4_8 
REMARK    3  A    between atoms: C5_10  and  C6_11 
REMARK    4  A    between atoms: C6_11  and  O4_12 
REMARK    5  A    between atoms: O4_12  and  P1_13 
REMARK    6  A    between atoms: C7_17  and  O8_18 
REMARK    7  A    between atoms: C8_20  and  O9_21 
ROOT
HETATM    1  C4  UNL     1      25.440 -16.651  12.192  1.00  0.00     0.266 C 
HETATM    2  O3  UNL     1      26.588 -17.431  12.452  1.00  0.00    -0.353 OA
HETATM    3  C5  UNL     1      26.443 -17.653  13.817  1.00  0.00     0.180 C 
HETATM    4  C7  UNL     1      25.067 -18.295  13.860  1.00  0.00     0.182 C 
HETATM    5  C8  UNL     1      24.309 -17.369  12.926  1.00  0.00     0.198 C 
ENDROOT
BRANCH   1   6
HETATM    6  N1  UNL     1      25.174 -16.518  10.802  1.00  0.00    -0.249 N 
HETATM    7  C3  UNL     1      24.354 -15.561  10.351  1.00  0.00     0.153 A 
HETATM    8  C2  UNL     1      24.087 -15.423   8.982  1.00  0.00     0.130 A 
HETATM    9  C1  UNL     1      24.681 -16.294   8.082  1.00  0.00     0.253 A 
HETATM   10  O1  UNL     1      24.460 -16.198   6.832  1.00  0.00    -0.268 OA
HETATM   11  N2  UNL     1      25.494 -17.237   8.581  1.00  0.00    -0.275 N 
HETATM   12  C9  UNL     1      25.728 -17.339   9.903  1.00  0.00     0.333 A 
ATOM     13  H2  UNL     1      25.946 -17.892   7.943  1.00  0.00     0.173 HD
HETATM   14  O10 UNL     1      26.498 -18.241  10.300  1.00  0.00    -0.246 OA
BRANCH   7  15
HETATM   15  O2  UNL     1      23.727 -14.659  11.197  1.00  0.00    -0.346 OA
ATOM     16  H2  UNL     1      23.304 -15.023  11.965  1.00  0.00     0.219 HD
ENDBRANCH   7  15
ENDBRANCH   1   6
BRANCH   5  17
HETATM   17  O9  UNL     1      23.580 -16.462  13.688  1.00  0.00    -0.388 OA
ATOM     18  H9  UNL     1      23.778 -15.574  13.417  1.00  0.00     0.210 HD
ENDBRANCH   5  17
BRANCH   3  19
HETATM   19  C6  UNL     1      27.438 -18.669  14.345  1.00  0.00     0.217 C 
BRANCH  19  20
HETATM   20  O4  UNL     1      28.668 -18.100  14.247  1.00  0.00    -0.280 OA
BRANCH  20  21
HETATM   21  P1  UNL     1      29.953 -18.826  14.891  1.00  0.00     0.422 P 
HETATM   22  O5  UNL     1      31.172 -19.495  13.937  1.00  0.00    -0.617 OA
HETATM   23  O6  UNL     1      30.760 -17.551  15.061  1.00  0.00    -0.617 OA
HETATM   24  O7  UNL     1      30.005 -19.150  16.514  1.00  0.00    -0.617 OA
ENDBRANCH  20  21
ENDBRANCH  19  20
ENDBRANCH   3  19
BRANCH   4  25
HETATM   25  O8  UNL     1      24.532 -18.339  15.128  1.00  0.00    -0.390 OA
ATOM     26  H8  UNL     1      24.129 -19.175  15.332  1.00  0.00     0.210 HD
ENDBRANCH   4  25
TORSDOF 7
ENDMDL
