MODEL 13
REMARK VINA RESULT: -8.080122934      3.031      6.654
REMARK  7 active torsions:
REMARK  status: ('A' for Active; 'I' for Inactive)
REMARK    1  A    between atoms: C3_4  and  O2_5 
REMARK    2  A    between atoms: N1_7  and  C4_8 
REMARK    3  A    between atoms: C5_10  and  C6_11 
REMARK    4  A    between atoms: C6_11  and  O4_12 
REMARK    5  A    between atoms: O4_12  and  P1_13 
REMARK    6  A    between atoms: C7_17  and  O8_18 
REMARK    7  A    between atoms: C8_20  and  O9_21 
ROOT
HETATM    1  C4  UNL     1      25.325 -16.573  12.319  1.00  0.00     0.266 C 
HETATM    2  O3  UNL     1      26.497 -17.250  12.719  1.00  0.00    -0.353 OA
HETATM    3  C5  UNL     1      26.278 -17.355  14.088  1.00  0.00     0.180 C 
HETATM    4  C7  UNL     1      24.941 -18.077  14.112  1.00  0.00     0.182 C 
HETATM    5  C8  UNL     1      24.192 -17.291  13.051  1.00  0.00     0.198 C 
ENDROOT
BRANCH   1   6
HETATM    6  N1  UNL     1      25.141 -16.585  10.910  1.00  0.00    -0.249 N 
HETATM    7  C3  UNL     1      25.387 -17.691  10.196  1.00  0.00     0.153 A 
HETATM    8  C2  UNL     1      25.208 -17.710   8.806  1.00  0.00     0.130 A 
HETATM    9  C1  UNL     1      24.771 -16.563   8.161  1.00  0.00     0.253 A 
HETATM   10  O1  UNL     1      24.599 -16.546   6.900  1.00  0.00    -0.268 OA
HETATM   11  N2  UNL     1      24.539 -15.480   8.917  1.00  0.00    -0.275 N 
HETATM   12  C9  UNL     1      24.721 -15.499  10.251  1.00  0.00     0.333 A 
ATOM     13  H2  UNL     1      24.217 -14.622   8.470  1.00  0.00     0.173 HD
HETATM   14  O10 UNL     1      24.485 -14.453  10.895  1.00  0.00    -0.246 OA
BRANCH   7  15
HETATM   15  O2  UNL     1      25.826 -18.869  10.779  1.00  0.00    -0.346 OA
ATOM     16  H2  UNL     1      26.393 -18.782  11.535  1.00  0.00     0.219 HD
ENDBRANCH   7  15
ENDBRANCH   1   6
BRANCH   5  17
HETATM   17  O9  UNL     1      23.365 -16.367  13.678  1.00  0.00    -0.388 OA
ATOM     18  H9  UNL     1      23.161 -16.655  14.560  1.00  0.00     0.210 HD
ENDBRANCH   5  17
BRANCH   3  19
HETATM   19  C6  UNL     1      27.294 -18.253  14.768  1.00  0.00     0.217 C 
BRANCH  19  20
HETATM   20  O4  UNL     1      26.645 -19.398  15.103  1.00  0.00    -0.280 OA
BRANCH  20  21
HETATM   21  P1  UNL     1      27.435 -20.800  15.135  1.00  0.00     0.422 P 
HETATM   22  O5  UNL     1      29.017 -20.922  15.704  1.00  0.00    -0.617 OA
HETATM   23  O6  UNL     1      26.895 -21.232  16.487  1.00  0.00    -0.617 OA
HETATM   24  O7  UNL     1      26.801 -22.135  14.387  1.00  0.00    -0.617 OA
ENDBRANCH  20  21
ENDBRANCH  19  20
ENDBRANCH   3  19
BRANCH   4  25
HETATM   25  O8  UNL     1      24.330 -18.039  15.344  1.00  0.00    -0.390 OA
ATOM     26  H8  UNL     1      23.436 -18.359  15.325  1.00  0.00     0.210 HD
ENDBRANCH   4  25
TORSDOF 7
ENDMDL
