MODEL 3
REMARK VINA RESULT: -9.009511007      0.622      1.207
REMARK  7 active torsions:
REMARK  status: ('A' for Active; 'I' for Inactive)
REMARK    1  A    between atoms: C3_4  and  O2_5 
REMARK    2  A    between atoms: N1_7  and  C4_8 
REMARK    3  A    between atoms: C5_10  and  C6_11 
REMARK    4  A    between atoms: C6_11  and  O4_12 
REMARK    5  A    between atoms: O4_12  and  P1_13 
REMARK    6  A    between atoms: C7_17  and  O8_18 
REMARK    7  A    between atoms: C8_20  and  O9_21 
ROOT
HETATM    1  C4  UNL     1      25.864 -18.834  14.076  1.00  0.00     0.266 C 
HETATM    2  O3  UNL     1      25.687 -18.640  12.689  1.00  0.00    -0.353 OA
HETATM    3  C5  UNL     1      24.365 -18.211  12.656  1.00  0.00     0.180 C 
HETATM    4  C7  UNL     1      24.427 -17.012  13.586  1.00  0.00     0.182 C 
HETATM    5  C8  UNL     1      25.247 -17.596  14.723  1.00  0.00     0.198 C 
ENDROOT
BRANCH   1   6
HETATM    6  N1  UNL     1      27.229 -19.000  14.435  1.00  0.00    -0.249 N 
HETATM    7  C3  UNL     1      28.165 -18.162  13.974  1.00  0.00     0.153 A 
HETATM    8  C2  UNL     1      29.513 -18.319  14.323  1.00  0.00     0.130 A 
HETATM    9  C1  UNL     1      29.882 -19.361  15.160  1.00  0.00     0.253 A 
HETATM   10  O1  UNL     1      31.097 -19.533  15.497  1.00  0.00    -0.268 OA
HETATM   11  N2  UNL     1      28.909 -20.175  15.597  1.00  0.00    -0.275 N 
HETATM   12  C9  UNL     1      27.624 -19.993  15.240  1.00  0.00     0.333 A 
ATOM     13  H2  UNL     1      29.150 -20.951  16.214  1.00  0.00     0.173 HD
HETATM   14  O10 UNL     1      26.768 -20.789  15.684  1.00  0.00    -0.246 OA
BRANCH   7  15
HETATM   15  O2  UNL     1      27.864 -17.101  13.134  1.00  0.00    -0.346 OA
ATOM     16  H2  UNL     1      26.943 -16.933  12.977  1.00  0.00     0.219 HD
ENDBRANCH   7  15
ENDBRANCH   1   6
BRANCH   5  17
HETATM   17  O9  UNL     1      24.387 -17.969  15.750  1.00  0.00    -0.388 OA
ATOM     18  H9  UNL     1      23.993 -17.200  16.143  1.00  0.00     0.210 HD
ENDBRANCH   5  17
BRANCH   3  19
HETATM   19  C6  UNL     1      23.956 -17.706  11.285  1.00  0.00     0.217 C 
BRANCH  19  20
HETATM   20  O4  UNL     1      24.549 -16.495  11.120  1.00  0.00    -0.280 OA
BRANCH  20  21
HETATM   21  P1  UNL     1      24.540 -15.776   9.680  1.00  0.00     0.422 P 
HETATM   22  O5  UNL     1      25.964 -15.406   8.857  1.00  0.00    -0.617 OA
HETATM   23  O6  UNL     1      24.392 -17.062   8.885  1.00  0.00    -0.617 OA
HETATM   24  O7  UNL     1      23.132 -15.160   9.062  1.00  0.00    -0.617 OA
ENDBRANCH  20  21
ENDBRANCH  19  20
ENDBRANCH   3  19
BRANCH   4  25
HETATM   25  O8  UNL     1      23.185 -16.574  13.985  1.00  0.00    -0.390 OA
ATOM     26  H8  UNL     1      22.629 -16.320  13.258  1.00  0.00     0.210 HD
ENDBRANCH   4  25
TORSDOF 7
ENDMDL
