MODEL 5
REMARK VINA RESULT: -8.920865708      1.362      2.195
REMARK  7 active torsions:
REMARK  status: ('A' for Active; 'I' for Inactive)
REMARK    1  A    between atoms: C3_4  and  O2_5 
REMARK    2  A    between atoms: N1_7  and  C4_8 
REMARK    3  A    between atoms: C5_10  and  C6_11 
REMARK    4  A    between atoms: C6_11  and  O4_12 
REMARK    5  A    between atoms: O4_12  and  P1_13 
REMARK    6  A    between atoms: C7_17  and  O8_18 
REMARK    7  A    between atoms: C8_20  and  O9_21 
ROOT
HETATM    1  C4  UNL     1      25.733 -18.339  13.697  1.00  0.00     0.266 C 
HETATM    2  O3  UNL     1      25.549 -18.513  12.308  1.00  0.00    -0.353 OA
HETATM    3  C5  UNL     1      24.297 -17.933  12.141  1.00  0.00     0.180 C 
HETATM    4  C7  UNL     1      24.544 -16.544  12.704  1.00  0.00     0.182 C 
HETATM    5  C8  UNL     1      25.305 -16.898  13.968  1.00  0.00     0.198 C 
ENDROOT
BRANCH   1   6
HETATM    6  N1  UNL     1      27.072 -18.585  14.106  1.00  0.00    -0.249 N 
HETATM    7  C3  UNL     1      27.351 -19.546  14.996  1.00  0.00     0.153 A 
HETATM    8  C2  UNL     1      28.668 -19.793  15.404  1.00  0.00     0.130 A 
HETATM    9  C1  UNL     1      29.698 -19.029  14.878  1.00  0.00     0.253 A 
HETATM   10  O1  UNL     1      30.906 -19.227  15.227  1.00  0.00    -0.268 OA
HETATM   11  N2  UNL     1      29.370 -18.079  13.991  1.00  0.00    -0.275 N 
HETATM   12  C9  UNL     1      28.092 -17.869  13.621  1.00  0.00     0.333 A 
ATOM     13  H2  UNL     1      30.107 -17.500  13.586  1.00  0.00     0.173 HD
HETATM   14  O10 UNL     1      27.857 -16.966  12.789  1.00  0.00    -0.246 OA
BRANCH   7  15
HETATM   15  O2  UNL     1      26.368 -20.344  15.560  1.00  0.00    -0.346 OA
ATOM     16  H2  UNL     1      25.642 -20.583  14.998  1.00  0.00     0.219 HD
ENDBRANCH   7  15
ENDBRANCH   1   6
BRANCH   5  17
HETATM   17  O9  UNL     1      24.429 -16.853  15.047  1.00  0.00    -0.388 OA
ATOM     18  H9  UNL     1      24.219 -15.951  15.260  1.00  0.00     0.210 HD
ENDBRANCH   5  17
BRANCH   3  19
HETATM   19  C6  UNL     1      23.925 -17.775  10.678  1.00  0.00     0.217 C 
BRANCH  19  20
HETATM   20  O4  UNL     1      24.532 -16.641  10.240  1.00  0.00    -0.280 OA
BRANCH  20  21
HETATM   21  P1  UNL     1      25.173 -16.581   8.765  1.00  0.00     0.422 P 
HETATM   22  O5  UNL     1      24.335 -15.936   7.452  1.00  0.00    -0.617 OA
HETATM   23  O6  UNL     1      25.891 -15.260   8.980  1.00  0.00    -0.617 OA
HETATM   24  O7  UNL     1      26.593 -17.369   8.437  1.00  0.00    -0.617 OA
ENDBRANCH  20  21
ENDBRANCH  19  20
ENDBRANCH   3  19
BRANCH   4  25
HETATM   25  O8  UNL     1      23.383 -15.847  12.949  1.00  0.00    -0.390 OA
ATOM     26  H8  UNL     1      23.171 -15.792  13.874  1.00  0.00     0.210 HD
ENDBRANCH   4  25
TORSDOF 7
ENDMDL
