MODEL 4
REMARK VINA RESULT: -8.926249194      1.547      2.440
REMARK  7 active torsions:
REMARK  status: ('A' for Active; 'I' for Inactive)
REMARK    1  A    between atoms: C3_4  and  O2_5 
REMARK    2  A    between atoms: N1_7  and  C4_8 
REMARK    3  A    between atoms: C5_10  and  C6_11 
REMARK    4  A    between atoms: C6_11  and  O4_12 
REMARK    5  A    between atoms: O4_12  and  P1_13 
REMARK    6  A    between atoms: C7_17  and  O8_18 
REMARK    7  A    between atoms: C8_20  and  O9_21 
ROOT
HETATM    1  C4  UNL     1      25.899 -18.116  13.119  1.00  0.00     0.266 C 
HETATM    2  O3  UNL     1      26.183 -17.489  11.887  1.00  0.00    -0.353 OA
HETATM    3  C5  UNL     1      24.931 -16.977  11.564  1.00  0.00     0.180 C 
HETATM    4  C7  UNL     1      24.638 -16.134  12.793  1.00  0.00     0.182 C 
HETATM    5  C8  UNL     1      25.057 -17.099  13.888  1.00  0.00     0.198 C 
ENDROOT
BRANCH   1   6
HETATM    6  N1  UNL     1      27.073 -18.482  13.830  1.00  0.00    -0.249 N 
HETATM    7  C3  UNL     1      27.044 -19.458  14.746  1.00  0.00     0.153 A 
HETATM    8  C2  UNL     1      28.198 -19.824  15.451  1.00  0.00     0.130 A 
HETATM    9  C1  UNL     1      29.390 -19.163  15.195  1.00  0.00     0.253 A 
HETATM   10  O1  UNL     1      30.457 -19.470  15.818  1.00  0.00    -0.268 OA
HETATM   11  N2  UNL     1      29.371 -18.193  14.270  1.00  0.00    -0.275 N 
HETATM   12  C9  UNL     1      28.242 -17.868  13.612  1.00  0.00     0.333 A 
ATOM     13  H2  UNL     1      30.232 -17.688  14.060  1.00  0.00     0.173 HD
HETATM   14  O10 UNL     1      28.295 -16.953  12.761  1.00  0.00    -0.246 OA
BRANCH   7  15
HETATM   15  O2  UNL     1      25.886 -20.157  15.050  1.00  0.00    -0.346 OA
ATOM     16  H2  UNL     1      25.101 -19.640  15.180  1.00  0.00     0.219 HD
ENDBRANCH   7  15
ENDBRANCH   1   6
BRANCH   5  17
HETATM   17  O9  UNL     1      23.921 -17.710  14.405  1.00  0.00    -0.388 OA
ATOM     18  H9  UNL     1      23.791 -17.449  15.309  1.00  0.00     0.210 HD
ENDBRANCH   5  17
BRANCH   3  19
HETATM   19  C6  UNL     1      24.979 -16.044  10.369  1.00  0.00     0.217 C 
BRANCH  19  20
HETATM   20  O4  UNL     1      24.946 -16.827   9.259  1.00  0.00    -0.280 OA
BRANCH  20  21
HETATM   21  P1  UNL     1      25.296 -16.204   7.816  1.00  0.00     0.422 P 
HETATM   22  O5  UNL     1      24.482 -16.679   6.418  1.00  0.00    -0.617 OA
HETATM   23  O6  UNL     1      24.381 -15.000   7.961  1.00  0.00    -0.617 OA
HETATM   24  O7  UNL     1      26.631 -15.245   7.620  1.00  0.00    -0.617 OA
ENDBRANCH  20  21
ENDBRANCH  19  20
ENDBRANCH   3  19
BRANCH   4  25
HETATM   25  O8  UNL     1      23.318 -15.754  12.884  1.00  0.00    -0.390 OA
ATOM     26  H8  UNL     1      22.911 -16.017  13.701  1.00  0.00     0.210 HD
ENDBRANCH   4  25
TORSDOF 7
ENDMDL
