MODEL 9
REMARK VINA RESULT: -8.317992648      3.187      6.753
REMARK  7 active torsions:
REMARK  status: ('A' for Active; 'I' for Inactive)
REMARK    1  A    between atoms: C3_4  and  O2_5 
REMARK    2  A    between atoms: N1_7  and  C4_8 
REMARK    3  A    between atoms: C5_10  and  C6_11 
REMARK    4  A    between atoms: C6_11  and  O4_12 
REMARK    5  A    between atoms: O4_12  and  P1_13 
REMARK    6  A    between atoms: C7_17  and  O8_18 
REMARK    7  A    between atoms: C8_20  and  O9_21 
ROOT
HETATM    1  C4  UNL     1      25.483 -16.655  12.027  1.00  0.00     0.266 C 
HETATM    2  O3  UNL     1      26.610 -17.442  12.348  1.00  0.00    -0.353 OA
HETATM    3  C5  UNL     1      26.435 -17.593  13.719  1.00  0.00     0.180 C 
HETATM    4  C7  UNL     1      25.046 -18.206  13.767  1.00  0.00     0.182 C 
HETATM    5  C8  UNL     1      24.324 -17.314  12.774  1.00  0.00     0.198 C 
ENDROOT
BRANCH   1   6
HETATM    6  N1  UNL     1      25.245 -16.586  10.628  1.00  0.00    -0.249 N 
HETATM    7  C3  UNL     1      25.594 -17.598   9.823  1.00  0.00     0.153 A 
HETATM    8  C2  UNL     1      25.363 -17.536   8.442  1.00  0.00     0.130 A 
HETATM    9  C1  UNL     1      24.765 -16.408   7.902  1.00  0.00     0.253 A 
HETATM   10  O1  UNL     1      24.542 -16.319   6.652  1.00  0.00    -0.268 OA
HETATM   11  N2  UNL     1      24.434 -15.421   8.747  1.00  0.00    -0.275 N 
HETATM   12  C9  UNL     1      24.671 -15.515  10.069  1.00  0.00     0.333 A 
ATOM     13  H2  UNL     1      23.993 -14.578   8.378  1.00  0.00     0.173 HD
HETATM   14  O10 UNL     1      24.336 -14.557  10.800  1.00  0.00    -0.246 OA
BRANCH   7  15
HETATM   15  O2  UNL     1      26.196 -18.752  10.298  1.00  0.00    -0.346 OA
ATOM     16  H2  UNL     1      25.949 -19.029  11.172  1.00  0.00     0.219 HD
ENDBRANCH   7  15
ENDBRANCH   1   6
BRANCH   5  17
HETATM   17  O9  UNL     1      23.599 -16.358  13.475  1.00  0.00    -0.388 OA
ATOM     18  H9  UNL     1      23.054 -15.858  12.879  1.00  0.00     0.210 HD
ENDBRANCH   5  17
BRANCH   3  19
HETATM   19  C6  UNL     1      27.400 -18.600  14.317  1.00  0.00     0.217 C 
BRANCH  19  20
HETATM   20  O4  UNL     1      28.647 -18.075  14.182  1.00  0.00    -0.280 OA
BRANCH  20  21
HETATM   21  P1  UNL     1      29.914 -18.813  14.846  1.00  0.00     0.422 P 
HETATM   22  O5  UNL     1      31.159 -19.463  13.912  1.00  0.00    -0.617 OA
HETATM   23  O6  UNL     1      30.715 -17.541  15.062  1.00  0.00    -0.617 OA
HETATM   24  O7  UNL     1      29.923 -19.168  16.463  1.00  0.00    -0.617 OA
ENDBRANCH  20  21
ENDBRANCH  19  20
ENDBRANCH   3  19
BRANCH   4  25
HETATM   25  O8  UNL     1      24.487 -18.178  15.024  1.00  0.00    -0.390 OA
ATOM     26  H8  UNL     1      23.925 -17.425  15.164  1.00  0.00     0.210 HD
ENDBRANCH   4  25
TORSDOF 7
ENDMDL
