MODEL 2
REMARK VINA RESULT: -9.026865226      0.580      1.707
REMARK  7 active torsions:
REMARK  status: ('A' for Active; 'I' for Inactive)
REMARK    1  A    between atoms: C3_4  and  O2_5 
REMARK    2  A    between atoms: N1_7  and  C4_8 
REMARK    3  A    between atoms: C5_10  and  C6_11 
REMARK    4  A    between atoms: C6_11  and  O4_12 
REMARK    5  A    between atoms: O4_12  and  P1_13 
REMARK    6  A    between atoms: C7_17  and  O8_18 
REMARK    7  A    between atoms: C8_20  and  O9_21 
ROOT
HETATM    1  C4  UNL     1      25.853 -18.826  14.059  1.00  0.00     0.266 C 
HETATM    2  O3  UNL     1      25.673 -18.611  12.675  1.00  0.00    -0.353 OA
HETATM    3  C5  UNL     1      24.347 -18.193  12.651  1.00  0.00     0.180 C 
HETATM    4  C7  UNL     1      24.400 -17.010  13.601  1.00  0.00     0.182 C 
HETATM    5  C8  UNL     1      25.225 -17.605  14.727  1.00  0.00     0.198 C 
ENDROOT
BRANCH   1   6
HETATM    6  N1  UNL     1      27.220 -18.986  14.414  1.00  0.00    -0.249 N 
HETATM    7  C3  UNL     1      27.604 -19.971  15.235  1.00  0.00     0.153 A 
HETATM    8  C2  UNL     1      28.950 -20.134  15.590  1.00  0.00     0.130 A 
HETATM    9  C1  UNL     1      29.898 -19.259  15.082  1.00  0.00     0.253 A 
HETATM   10  O1  UNL     1      31.129 -19.378  15.385  1.00  0.00    -0.268 OA
HETATM   11  N2  UNL     1      29.466 -18.288  14.264  1.00  0.00    -0.275 N 
HETATM   12  C9  UNL     1      28.164 -18.162  13.944  1.00  0.00     0.333 A 
ATOM     13  H2  UNL     1      30.141 -17.629  13.875  1.00  0.00     0.173 HD
HETATM   14  O10 UNL     1      27.831 -17.234  13.176  1.00  0.00    -0.246 OA
BRANCH   7  15
HETATM   15  O2  UNL     1      26.708 -20.878  15.778  1.00  0.00    -0.346 OA
ATOM     16  H2  UNL     1      25.877 -20.974  15.327  1.00  0.00     0.219 HD
ENDBRANCH   7  15
ENDBRANCH   1   6
BRANCH   5  17
HETATM   17  O9  UNL     1      24.370 -18.003  15.748  1.00  0.00    -0.388 OA
ATOM     18  H9  UNL     1      23.497 -17.662  15.596  1.00  0.00     0.210 HD
ENDBRANCH   5  17
BRANCH   3  19
HETATM   19  C6  UNL     1      23.932 -17.670  11.289  1.00  0.00     0.217 C 
BRANCH  19  20
HETATM   20  O4  UNL     1      23.914 -16.314  11.379  1.00  0.00    -0.280 OA
BRANCH  20  21
HETATM   21  P1  UNL     1      23.721 -15.415  10.058  1.00  0.00     0.422 P 
HETATM   22  O5  UNL     1      22.212 -14.825   9.590  1.00  0.00    -0.617 OA
HETATM   23  O6  UNL     1      24.045 -14.097  10.741  1.00  0.00    -0.617 OA
HETATM   24  O7  UNL     1      24.966 -15.234   8.981  1.00  0.00    -0.617 OA
ENDBRANCH  20  21
ENDBRANCH  19  20
ENDBRANCH   3  19
BRANCH   4  25
HETATM   25  O8  UNL     1      23.154 -16.590  14.008  1.00  0.00    -0.390 OA
ATOM     26  H8  UNL     1      22.487 -16.702  13.341  1.00  0.00     0.210 HD
ENDBRANCH   4  25
TORSDOF 7
ENDMDL
