MODEL 3
REMARK VINA RESULT: -8.623284967      1.445      3.163
REMARK  6 active torsions:
REMARK  status: ('A' for Active; 'I' for Inactive)
REMARK    1  A    between atoms: O1_1  and  C1_3 
REMARK    2  A    between atoms: C1_3  and  C2_4 
REMARK    3  A    between atoms: C3_5  and  O2_6 
REMARK    4  A    between atoms: C4_8  and  O3_9 
REMARK    5  A    between atoms: C5_11  and  O4_12 
REMARK    6  A    between atoms: C7_17  and  C8_18 
ROOT
HETATM    1  C2  UNL     1      24.641  25.628  33.577  1.00  0.00     0.145 C 
HETATM    2  C3  UNL     1      23.634  24.673  34.175  1.00  0.00     0.175 C 
HETATM    3  C4  UNL     1      24.148  24.255  35.529  1.00  0.00     0.185 C 
HETATM    4  C5  UNL     1      23.907  25.463  36.444  1.00  0.00     0.217 C 
HETATM    5  C6  UNL     1      24.782  26.546  35.863  1.00  0.00     0.116 A 
HETATM    6  N1  UNL     1      25.391  27.604  36.427  1.00  0.00    -0.342 N 
ATOM      7  H1  UNL     1      25.336  27.836  37.418  1.00  0.00     0.167 HD
HETATM    8  C7  UNL     1      26.080  28.315  35.523  1.00  0.00     0.059 A 
HETATM    9  C14 UNL     1      25.891  27.667  34.323  1.00  0.00     0.123 A 
HETATM   10  N2  UNL     1      25.092  26.586  34.559  1.00  0.00    -0.333 N 
ENDROOT
BRANCH   8  11
HETATM   11  C8  UNL     1      26.877  29.533  35.735  1.00  0.00    -0.008 A 
HETATM   12  C9  UNL     1      26.687  30.640  34.939  1.00  0.00     0.014 A 
HETATM   13  C10 UNL     1      27.436  31.790  35.135  1.00  0.00     0.001 A 
HETATM   14  C11 UNL     1      28.388  31.852  36.132  1.00  0.00     0.000 A 
HETATM   15  C12 UNL     1      28.575  30.750  36.921  1.00  0.00     0.001 A 
HETATM   16  C13 UNL     1      27.831  29.613  36.725  1.00  0.00     0.014 A 
ENDBRANCH   8  11
BRANCH   4  17
HETATM   17  O4  UNL     1      24.318  25.100  37.711  1.00  0.00    -0.385 OA
ATOM     18  H4  UNL     1      24.319  24.151  37.742  1.00  0.00     0.210 HD
ENDBRANCH   4  17
BRANCH   1  19
HETATM   19  C1  UNL     1      23.974  26.314  32.381  1.00  0.00     0.192 C 
BRANCH  19  20
HETATM   20  O1  UNL     1      23.239  27.410  32.783  1.00  0.00    -0.399 OA
ATOM     21  H1  UNL     1      22.882  27.874  32.036  1.00  0.00     0.209 HD
ENDBRANCH  19  20
ENDBRANCH   1  19
BRANCH   3  22
HETATM   22  O3  UNL     1      23.504  23.126  36.023  1.00  0.00    -0.390 OA
ATOM     23  H3  UNL     1      23.111  22.599  35.339  1.00  0.00     0.210 HD
ENDBRANCH   3  22
BRANCH   2  24
HETATM   24  O2  UNL     1      23.466  23.531  33.416  1.00  0.00    -0.391 OA
ATOM     25  H2  UNL     1      23.030  22.835  33.893  1.00  0.00     0.210 HD
ENDBRANCH   2  24
TORSDOF 6
ENDMDL
