MODEL 7
REMARK VINA RESULT: -7.773762398      3.892      6.762
REMARK  6 active torsions:
REMARK  status: ('A' for Active; 'I' for Inactive)
REMARK    1  A    between atoms: O1_1  and  C1_3 
REMARK    2  A    between atoms: C1_3  and  C2_4 
REMARK    3  A    between atoms: C3_5  and  O2_6 
REMARK    4  A    between atoms: C4_8  and  O3_9 
REMARK    5  A    between atoms: C5_11  and  O4_12 
REMARK    6  A    between atoms: C7_17  and  C8_18 
ROOT
HETATM    1  C2  UNL     1      27.240  30.713  35.063  1.00  0.00     0.145 C 
HETATM    2  C3  UNL     1      26.812  32.158  34.941  1.00  0.00     0.175 C 
HETATM    3  C4  UNL     1      26.044  32.300  33.652  1.00  0.00     0.185 C 
HETATM    4  C5  UNL     1      24.673  31.666  33.927  1.00  0.00     0.217 C 
HETATM    5  C6  UNL     1      24.985  30.215  34.193  1.00  0.00     0.116 A 
HETATM    6  N1  UNL     1      24.264  29.095  34.006  1.00  0.00    -0.342 N 
ATOM      7  H1  UNL     1      23.319  29.078  33.624  1.00  0.00     0.167 HD
HETATM    8  C7  UNL     1      24.943  28.003  34.386  1.00  0.00     0.059 A 
HETATM    9  C14 UNL     1      26.159  28.464  34.838  1.00  0.00     0.123 A 
HETATM   10  N2  UNL     1      26.160  29.823  34.708  1.00  0.00    -0.333 N 
ENDROOT
BRANCH   8  11
HETATM   11  C8  UNL     1      24.509  26.599  34.344  1.00  0.00    -0.008 A 
HETATM   12  C9  UNL     1      24.425  25.929  33.144  1.00  0.00     0.014 A 
HETATM   13  C10 UNL     1      24.015  24.604  33.099  1.00  0.00     0.001 A 
HETATM   14  C11 UNL     1      23.684  23.927  34.255  1.00  0.00     0.000 A 
HETATM   15  C12 UNL     1      23.769  24.596  35.446  1.00  0.00     0.001 A 
HETATM   16  C13 UNL     1      24.175  25.907  35.487  1.00  0.00     0.014 A 
ENDBRANCH   8  11
BRANCH   4  17
HETATM   17  O4  UNL     1      23.918  31.824  32.782  1.00  0.00    -0.385 OA
ATOM     18  H4  UNL     1      24.350  32.484  32.252  1.00  0.00     0.210 HD
ENDBRANCH   4  17
BRANCH   1  19
HETATM   19  C1  UNL     1      27.708  30.489  36.504  1.00  0.00     0.192 C 
BRANCH  19  20
HETATM   20  O1  UNL     1      29.048  30.785  36.643  1.00  0.00    -0.399 OA
ATOM     21  H1  UNL     1      29.374  30.503  37.489  1.00  0.00     0.209 HD
ENDBRANCH  19  20
ENDBRANCH   1  19
BRANCH   3  22
HETATM   22  O3  UNL     1      25.903  33.625  33.255  1.00  0.00    -0.390 OA
ATOM     23  H3  UNL     1      25.450  34.155  33.899  1.00  0.00     0.210 HD
ENDBRANCH   3  22
BRANCH   2  24
HETATM   24  O2  UNL     1      27.884  33.028  34.892  1.00  0.00    -0.391 OA
ATOM     25  H2  UNL     1      27.624  33.918  34.686  1.00  0.00     0.210 HD
ENDBRANCH   2  24
TORSDOF 6
ENDMDL
