MODEL 5
REMARK VINA RESULT: -8.302897823      2.337      3.431
REMARK  6 active torsions:
REMARK  status: ('A' for Active; 'I' for Inactive)
REMARK    1  A    between atoms: O1_1  and  C1_3 
REMARK    2  A    between atoms: C1_3  and  C2_4 
REMARK    3  A    between atoms: C3_5  and  O2_6 
REMARK    4  A    between atoms: C4_8  and  O3_9 
REMARK    5  A    between atoms: C5_11  and  O4_12 
REMARK    6  A    between atoms: C7_17  and  C8_18 
ROOT
HETATM    1  C2  UNL     1      26.208  28.536  36.144  1.00  0.00     0.145 C 
HETATM    2  C3  UNL     1      26.128  27.044  35.914  1.00  0.00     0.175 C 
HETATM    3  C4  UNL     1      24.774  26.745  35.323  1.00  0.00     0.185 C 
HETATM    4  C5  UNL     1      24.859  27.209  33.862  1.00  0.00     0.217 C 
HETATM    5  C6  UNL     1      25.069  28.699  33.960  1.00  0.00     0.116 A 
HETATM    6  N1  UNL     1      24.739  29.707  33.134  1.00  0.00    -0.342 N 
ATOM      7  H1  UNL     1      24.256  29.584  32.244  1.00  0.00     0.167 HD
HETATM    8  C7  UNL     1      25.123  30.894  33.625  1.00  0.00     0.059 A 
HETATM    9  C14 UNL     1      25.731  30.615  34.829  1.00  0.00     0.123 A 
HETATM   10  N2  UNL     1      25.685  29.263  35.010  1.00  0.00    -0.333 N 
ENDROOT
BRANCH   8  11
HETATM   11  C8  UNL     1      24.950  32.227  33.030  1.00  0.00    -0.008 A 
HETATM   12  C9  UNL     1      24.875  32.379  31.663  1.00  0.00     0.014 A 
HETATM   13  C10 UNL     1      24.712  33.634  31.097  1.00  0.00     0.001 A 
HETATM   14  C11 UNL     1      24.620  34.760  31.890  1.00  0.00     0.000 A 
HETATM   15  C12 UNL     1      24.694  34.606  33.248  1.00  0.00     0.001 A 
HETATM   16  C13 UNL     1      24.855  33.362  33.805  1.00  0.00     0.014 A 
ENDBRANCH   8  11
BRANCH   4  17
HETATM   17  O4  UNL     1      23.651  26.902  33.269  1.00  0.00    -0.385 OA
ATOM     18  H4  UNL     1      23.758  27.034  32.334  1.00  0.00     0.210 HD
ENDBRANCH   4  17
BRANCH   1  19
HETATM   19  C1  UNL     1      27.676  28.885  36.411  1.00  0.00     0.192 C 
BRANCH  19  20
HETATM   20  O1  UNL     1      28.042  28.537  37.694  1.00  0.00    -0.399 OA
ATOM     21  H1  UNL     1      28.693  29.138  38.038  1.00  0.00     0.209 HD
ENDBRANCH  19  20
ENDBRANCH   1  19
BRANCH   3  22
HETATM   22  O3  UNL     1      24.444  25.396  35.392  1.00  0.00    -0.390 OA
ATOM     23  H3  UNL     1      24.070  25.152  36.230  1.00  0.00     0.210 HD
ENDBRANCH   3  22
BRANCH   2  24
HETATM   24  O2  UNL     1      26.248  26.318  37.082  1.00  0.00    -0.391 OA
ATOM     25  H2  UNL     1      25.545  25.690  37.198  1.00  0.00     0.210 HD
ENDBRANCH   2  24
TORSDOF 6
ENDMDL
