MODEL 4
REMARK VINA RESULT: -8.616786264      1.448      3.313
REMARK  6 active torsions:
REMARK  status: ('A' for Active; 'I' for Inactive)
REMARK    1  A    between atoms: O1_1  and  C1_3 
REMARK    2  A    between atoms: C1_3  and  C2_4 
REMARK    3  A    between atoms: C3_5  and  O2_6 
REMARK    4  A    between atoms: C4_8  and  O3_9 
REMARK    5  A    between atoms: C5_11  and  O4_12 
REMARK    6  A    between atoms: C7_17  and  C8_18 
ROOT
HETATM    1  C2  UNL     1      24.639  25.631  33.577  1.00  0.00     0.145 C 
HETATM    2  C3  UNL     1      23.633  24.676  34.176  1.00  0.00     0.175 C 
HETATM    3  C4  UNL     1      24.148  24.259  35.529  1.00  0.00     0.185 C 
HETATM    4  C5  UNL     1      23.907  25.468  36.444  1.00  0.00     0.217 C 
HETATM    5  C6  UNL     1      24.781  26.551  35.862  1.00  0.00     0.116 A 
HETATM    6  N1  UNL     1      25.390  27.609  36.425  1.00  0.00    -0.342 N 
ATOM      7  H1  UNL     1      25.335  27.842  37.416  1.00  0.00     0.167 HD
HETATM    8  C7  UNL     1      26.078  28.320  35.521  1.00  0.00     0.059 A 
HETATM    9  C14 UNL     1      25.889  27.671  34.320  1.00  0.00     0.123 A 
HETATM   10  N2  UNL     1      25.090  26.590  34.557  1.00  0.00    -0.333 N 
ENDROOT
BRANCH   8  11
HETATM   11  C8  UNL     1      26.874  29.538  35.731  1.00  0.00    -0.008 A 
HETATM   12  C9  UNL     1      27.823  29.589  36.729  1.00  0.00     0.014 A 
HETATM   13  C10 UNL     1      28.575  30.737  36.932  1.00  0.00     0.001 A 
HETATM   14  C11 UNL     1      28.393  31.851  36.139  1.00  0.00     0.000 A 
HETATM   15  C12 UNL     1      27.450  31.796  35.150  1.00  0.00     0.001 A 
HETATM   16  C13 UNL     1      26.706  30.660  34.951  1.00  0.00     0.014 A 
ENDBRANCH   8  11
BRANCH   4  17
HETATM   17  O4  UNL     1      24.319  25.105  37.711  1.00  0.00    -0.385 OA
ATOM     18  H4  UNL     1      24.550  25.905  38.168  1.00  0.00     0.210 HD
ENDBRANCH   4  17
BRANCH   1  19
HETATM   19  C1  UNL     1      23.972  26.316  32.380  1.00  0.00     0.192 C 
BRANCH  19  20
HETATM   20  O1  UNL     1      23.238  27.412  32.782  1.00  0.00    -0.399 OA
ATOM     21  H1  UNL     1      22.493  27.149  33.311  1.00  0.00     0.209 HD
ENDBRANCH  19  20
ENDBRANCH   1  19
BRANCH   3  22
HETATM   22  O3  UNL     1      23.504  23.130  36.025  1.00  0.00    -0.390 OA
ATOM     23  H3  UNL     1      24.110  22.480  36.359  1.00  0.00     0.210 HD
ENDBRANCH   3  22
BRANCH   2  24
HETATM   24  O2  UNL     1      23.466  23.534  33.418  1.00  0.00    -0.391 OA
ATOM     25  H2  UNL     1      23.832  22.761  33.832  1.00  0.00     0.210 HD
ENDBRANCH   2  24
TORSDOF 6
ENDMDL
