MODEL 6
REMARK VINA RESULT: -8.180916011      2.341      3.505
REMARK  6 active torsions:
REMARK  status: ('A' for Active; 'I' for Inactive)
REMARK    1  A    between atoms: O1_1  and  C1_3 
REMARK    2  A    between atoms: C1_3  and  C2_4 
REMARK    3  A    between atoms: C3_5  and  O2_6 
REMARK    4  A    between atoms: C4_8  and  O3_9 
REMARK    5  A    between atoms: C5_11  and  O4_12 
REMARK    6  A    between atoms: C7_17  and  C8_18 
ROOT
HETATM    1  C2  UNL     1      26.285  28.521  36.210  1.00  0.00     0.145 C 
HETATM    2  C3  UNL     1      26.184  27.031  35.981  1.00  0.00     0.175 C 
HETATM    3  C4  UNL     1      24.827  26.751  35.386  1.00  0.00     0.185 C 
HETATM    4  C5  UNL     1      24.923  27.214  33.925  1.00  0.00     0.217 C 
HETATM    5  C6  UNL     1      25.155  28.701  34.023  1.00  0.00     0.116 A 
HETATM    6  N1  UNL     1      24.841  29.713  33.196  1.00  0.00    -0.342 N 
ATOM      7  H1  UNL     1      24.359  29.597  32.305  1.00  0.00     0.167 HD
HETATM    8  C7  UNL     1      25.242  30.894  33.687  1.00  0.00     0.059 A 
HETATM    9  C14 UNL     1      25.842  30.607  34.893  1.00  0.00     0.123 A 
HETATM   10  N2  UNL     1      25.776  29.255  35.075  1.00  0.00    -0.333 N 
ENDROOT
BRANCH   8  11
HETATM   11  C8  UNL     1      25.089  32.229  33.091  1.00  0.00    -0.008 A 
HETATM   12  C9  UNL     1      25.231  33.360  33.864  1.00  0.00     0.014 A 
HETATM   13  C10 UNL     1      25.087  34.622  33.307  1.00  0.00     0.001 A 
HETATM   14  C11 UNL     1      24.800  34.773  31.965  1.00  0.00     0.000 A 
HETATM   15  C12 UNL     1      24.660  33.648  31.201  1.00  0.00     0.001 A 
HETATM   16  C13 UNL     1      24.802  32.401  31.755  1.00  0.00     0.014 A 
ENDBRANCH   8  11
BRANCH   4  17
HETATM   17  O4  UNL     1      23.712  26.924  33.329  1.00  0.00    -0.385 OA
ATOM     18  H4  UNL     1      23.899  26.408  32.554  1.00  0.00     0.210 HD
ENDBRANCH   4  17
BRANCH   1  19
HETATM   19  C1  UNL     1      27.756  28.849  36.482  1.00  0.00     0.192 C 
BRANCH  19  20
HETATM   20  O1  UNL     1      28.072  28.652  37.810  1.00  0.00    -0.399 OA
ATOM     21  H1  UNL     1      27.878  27.762  38.078  1.00  0.00     0.209 HD
ENDBRANCH  19  20
ENDBRANCH   1  19
BRANCH   3  22
HETATM   22  O3  UNL     1      24.477  25.407  35.455  1.00  0.00    -0.390 OA
ATOM     23  H3  UNL     1      23.674  25.262  35.939  1.00  0.00     0.210 HD
ENDBRANCH   3  22
BRANCH   2  24
HETATM   24  O2  UNL     1      26.290  26.304  37.149  1.00  0.00    -0.391 OA
ATOM     25  H2  UNL     1      25.694  25.565  37.177  1.00  0.00     0.210 HD
ENDBRANCH   2  24
TORSDOF 6
ENDMDL
