MODEL 7
REMARK VINA RESULT: -7.975856088      2.227      4.130
REMARK  8 active torsions:
REMARK  status: ('A' for Active; 'I' for Inactive)
REMARK    1  A    between atoms: O1_1  and  C1_3 
REMARK    2  A    between atoms: C1_3  and  C2_4 
REMARK    3  A    between atoms: C3_5  and  O2_6 
REMARK    4  A    between atoms: C4_8  and  O3_9 
REMARK    5  A    between atoms: C5_11  and  O4_12 
REMARK    6  A    between atoms: C7_17  and  C8_18 
REMARK    7  A    between atoms: C8_18  and  N2_19 
REMARK    8  A    between atoms: N2_19  and  C9_21 
ROOT
HETATM    1  C2  UNL     1      25.346  28.269  36.215  1.00  0.00     0.145 C 
HETATM    2  C3  UNL     1      25.340  26.780  36.027  1.00  0.00     0.175 C 
HETATM    3  C4  UNL     1      23.985  26.383  35.456  1.00  0.00     0.185 C 
HETATM    4  C5  UNL     1      23.965  26.835  34.022  1.00  0.00     0.217 C 
HETATM    5  C6  UNL     1      24.220  28.312  34.024  1.00  0.00     0.116 A 
HETATM    6  N1  UNL     1      23.877  29.193  33.068  1.00  0.00    -0.344 N 
ATOM      7  H1  UNL     1      23.390  28.973  32.200  1.00  0.00     0.167 HD
HETATM    8  C7  UNL     1      24.289  30.418  33.454  1.00  0.00     0.044 A 
HETATM    9  C15 UNL     1      24.898  30.233  34.696  1.00  0.00     0.119 A 
HETATM   10  N3  UNL     1      24.847  28.932  35.032  1.00  0.00    -0.333 N 
ENDROOT
BRANCH   8  11
HETATM   11  C8  UNL     1      24.123  31.691  32.709  1.00  0.00     0.178 C 
BRANCH  11  12
HETATM   12  N2  UNL     1      23.287  32.569  33.460  1.00  0.00    -0.384 N 
ATOM     13  H2  UNL     1      22.330  32.293  33.680  1.00  0.00     0.160 HD
BRANCH  12  14
HETATM   14  C9  UNL     1      23.779  33.823  33.903  1.00  0.00     0.028 A 
HETATM   15  C10 UNL     1      25.090  33.941  34.302  1.00  0.00     0.029 A 
HETATM   16  C11 UNL     1      25.601  35.132  34.735  1.00  0.00     0.002 A 
HETATM   17  C12 UNL     1      24.805  36.255  34.782  1.00  0.00     0.000 A 
HETATM   18  C13 UNL     1      23.484  36.128  34.379  1.00  0.00     0.002 A 
HETATM   19  C14 UNL     1      22.977  34.933  33.946  1.00  0.00     0.029 A 
ENDBRANCH  12  14
ENDBRANCH  11  12
ENDBRANCH   8  11
BRANCH   4  20
HETATM   20  O4  UNL     1      22.781  26.569  33.380  1.00  0.00    -0.385 OA
ATOM     21  H4  UNL     1      22.708  25.672  33.075  1.00  0.00     0.210 HD
ENDBRANCH   4  20
BRANCH   1  22
HETATM   22  C1  UNL     1      26.784  28.704  36.490  1.00  0.00     0.192 C 
BRANCH  22  23
HETATM   23  O1  UNL     1      27.197  28.320  37.755  1.00  0.00    -0.399 OA
ATOM     24  H1  UNL     1      27.710  29.000  38.175  1.00  0.00     0.209 HD
ENDBRANCH  22  23
ENDBRANCH   1  22
BRANCH   3  25
HETATM   25  O3  UNL     1      23.816  25.004  35.481  1.00  0.00    -0.390 OA
ATOM     26  H3  UNL     1      24.293  24.588  34.773  1.00  0.00     0.210 HD
ENDBRANCH   3  25
BRANCH   2  27
HETATM   27  O2  UNL     1      25.595  26.091  37.183  1.00  0.00    -0.391 OA
ATOM     28  H2  UNL     1      26.066  25.278  37.037  1.00  0.00     0.210 HD
ENDBRANCH   2  27
TORSDOF 8
ENDMDL
