MODEL 9
REMARK VINA RESULT: -7.881193247      4.203      7.604
REMARK  8 active torsions:
REMARK  status: ('A' for Active; 'I' for Inactive)
REMARK    1  A    between atoms: O1_1  and  C1_3 
REMARK    2  A    between atoms: C1_3  and  C2_4 
REMARK    3  A    between atoms: C3_5  and  O2_6 
REMARK    4  A    between atoms: C4_8  and  O3_9 
REMARK    5  A    between atoms: C5_11  and  O4_12 
REMARK    6  A    between atoms: C7_17  and  C8_18 
REMARK    7  A    between atoms: C8_18  and  N2_19 
REMARK    8  A    between atoms: N2_19  and  C9_21 
ROOT
HETATM    1  C2  UNL     1      28.698  29.275  37.278  1.00  0.00     0.145 C 
HETATM    2  C3  UNL     1      29.404  30.594  37.390  1.00  0.00     0.175 C 
HETATM    3  C4  UNL     1      29.414  31.241  36.011  1.00  0.00     0.185 C 
HETATM    4  C5  UNL     1      28.012  31.709  35.736  1.00  0.00     0.217 C 
HETATM    5  C6  UNL     1      27.120  30.509  35.843  1.00  0.00     0.116 A 
HETATM    6  N1  UNL     1      25.911  30.347  35.278  1.00  0.00    -0.344 N 
ATOM      7  H1  UNL     1      25.429  31.029  34.692  1.00  0.00     0.167 HD
HETATM    8  C7  UNL     1      25.444  29.130  35.621  1.00  0.00     0.044 A 
HETATM    9  C15 UNL     1      26.434  28.560  36.421  1.00  0.00     0.119 A 
HETATM   10  N3  UNL     1      27.460  29.422  36.548  1.00  0.00    -0.333 N 
ENDROOT
BRANCH   8  11
HETATM   11  C8  UNL     1      24.146  28.527  35.223  1.00  0.00     0.178 C 
BRANCH  11  12
HETATM   12  N2  UNL     1      23.999  27.263  35.866  1.00  0.00    -0.384 N 
ATOM     13  H2  UNL     1      24.105  27.194  36.878  1.00  0.00     0.160 HD
BRANCH  12  14
HETATM   14  C9  UNL     1      23.706  26.102  35.106  1.00  0.00     0.028 A 
HETATM   15  C10 UNL     1      23.858  26.123  33.739  1.00  0.00     0.029 A 
HETATM   16  C11 UNL     1      23.586  25.025  32.973  1.00  0.00     0.002 A 
HETATM   17  C12 UNL     1      23.148  23.858  33.559  1.00  0.00     0.000 A 
HETATM   18  C13 UNL     1      22.996  23.845  34.937  1.00  0.00     0.002 A 
HETATM   19  C14 UNL     1      23.270  24.947  35.701  1.00  0.00     0.029 A 
ENDBRANCH  12  14
ENDBRANCH  11  12
ENDBRANCH   8  11
BRANCH   4  20
HETATM   20  O4  UNL     1      27.861  32.292  34.502  1.00  0.00    -0.385 OA
ATOM     21  H4  UNL     1      27.810  31.665  33.789  1.00  0.00     0.210 HD
ENDBRANCH   4  20
BRANCH   1  22
HETATM   22  C1  UNL     1      28.414  28.770  38.692  1.00  0.00     0.192 C 
BRANCH  22  23
HETATM   23  O1  UNL     1      29.482  28.047  39.195  1.00  0.00    -0.399 OA
ATOM     24  H1  UNL     1      29.847  27.464  38.540  1.00  0.00     0.209 HD
ENDBRANCH  22  23
ENDBRANCH   1  22
BRANCH   3  25
HETATM   25  O3  UNL     1      30.257  32.346  35.983  1.00  0.00    -0.390 OA
ATOM     26  H3  UNL     1      31.156  32.087  35.820  1.00  0.00     0.210 HD
ENDBRANCH   3  25
BRANCH   2  27
HETATM   27  O2  UNL     1      30.678  30.483  37.879  1.00  0.00    -0.391 OA
ATOM     28  H2  UNL     1      31.026  31.304  38.206  1.00  0.00     0.210 HD
ENDBRANCH   2  27
TORSDOF 8
ENDMDL
