MODEL 5
REMARK VINA RESULT: -8.024472685      2.293      3.398
REMARK  8 active torsions:
REMARK  status: ('A' for Active; 'I' for Inactive)
REMARK    1  A    between atoms: O1_1  and  C1_3 
REMARK    2  A    between atoms: C1_3  and  C2_4 
REMARK    3  A    between atoms: C3_5  and  O2_6 
REMARK    4  A    between atoms: C4_8  and  O3_9 
REMARK    5  A    between atoms: C5_11  and  O4_12 
REMARK    6  A    between atoms: C7_17  and  C8_18 
REMARK    7  A    between atoms: C8_18  and  N2_19 
REMARK    8  A    between atoms: N2_19  and  C9_21 
ROOT
HETATM    1  C2  UNL     1      23.892  25.383  33.934  1.00  0.00     0.145 C 
HETATM    2  C3  UNL     1      22.836  24.538  34.584  1.00  0.00     0.175 C 
HETATM    3  C4  UNL     1      23.417  23.967  35.871  1.00  0.00     0.185 C 
HETATM    4  C5  UNL     1      23.498  25.099  36.856  1.00  0.00     0.217 C 
HETATM    5  C6  UNL     1      24.338  26.169  36.227  1.00  0.00     0.116 A 
HETATM    6  N1  UNL     1      25.024  27.136  36.860  1.00  0.00    -0.344 N 
ATOM      7  H1  UNL     1      25.066  27.275  37.870  1.00  0.00     0.167 HD
HETATM    8  C7  UNL     1      25.646  27.891  35.932  1.00  0.00     0.044 A 
HETATM    9  C15 UNL     1      25.303  27.330  34.702  1.00  0.00     0.119 A 
HETATM   10  N3  UNL     1      24.498  26.270  34.900  1.00  0.00    -0.333 N 
ENDROOT
BRANCH   8  11
HETATM   11  C8  UNL     1      26.514  29.071  36.177  1.00  0.00     0.178 C 
BRANCH  11  12
HETATM   12  N2  UNL     1      27.388  28.792  37.268  1.00  0.00    -0.384 N 
ATOM     13  H2  UNL     1      27.803  27.864  37.361  1.00  0.00     0.160 HD
BRANCH  12  14
HETATM   14  C9  UNL     1      27.684  29.795  38.225  1.00  0.00     0.028 A 
HETATM   15  C10 UNL     1      27.399  29.580  39.554  1.00  0.00     0.029 A 
HETATM   16  C11 UNL     1      27.669  30.523  40.505  1.00  0.00     0.002 A 
HETATM   17  C12 UNL     1      28.241  31.725  40.151  1.00  0.00     0.000 A 
HETATM   18  C13 UNL     1      28.527  31.935  38.810  1.00  0.00     0.002 A 
HETATM   19  C14 UNL     1      28.254  30.987  37.861  1.00  0.00     0.029 A 
ENDBRANCH  12  14
ENDBRANCH  11  12
ENDBRANCH   8  11
BRANCH   4  20
HETATM   20  O4  UNL     1      24.036  24.737  38.066  1.00  0.00    -0.385 OA
ATOM     21  H4  UNL     1      24.255  25.476  38.621  1.00  0.00     0.210 HD
ENDBRANCH   4  20
BRANCH   1  22
HETATM   22  C1  UNL     1      23.228  26.196  32.823  1.00  0.00     0.192 C 
BRANCH  22  23
HETATM   23  O1  UNL     1      22.762  25.379  31.807  1.00  0.00    -0.399 OA
ATOM     24  H1  UNL     1      22.250  25.868  31.175  1.00  0.00     0.209 HD
ENDBRANCH  22  23
ENDBRANCH   1  22
BRANCH   3  25
HETATM   25  O3  UNL     1      22.588  22.985  36.401  1.00  0.00    -0.390 OA
ATOM     26  H3  UNL     1      21.899  22.752  35.789  1.00  0.00     0.210 HD
ENDBRANCH   3  25
BRANCH   2  27
HETATM   27  O2  UNL     1      22.378  23.532  33.774  1.00  0.00    -0.391 OA
ATOM     28  H2  UNL     1      22.990  23.299  33.085  1.00  0.00     0.210 HD
ENDBRANCH   2  27
TORSDOF 8
ENDMDL
