MODEL 8
REMARK VINA RESULT: -7.906828961      4.055      7.354
REMARK  8 active torsions:
REMARK  status: ('A' for Active; 'I' for Inactive)
REMARK    1  A    between atoms: O1_1  and  C1_3 
REMARK    2  A    between atoms: C1_3  and  C2_4 
REMARK    3  A    between atoms: C3_5  and  O2_6 
REMARK    4  A    between atoms: C4_8  and  O3_9 
REMARK    5  A    between atoms: C5_11  and  O4_12 
REMARK    6  A    between atoms: C7_17  and  C8_18 
REMARK    7  A    between atoms: C8_18  and  N2_19 
REMARK    8  A    between atoms: N2_19  and  C9_21 
ROOT
HETATM    1  C2  UNL     1      28.209  31.493  36.896  1.00  0.00     0.145 C 
HETATM    2  C3  UNL     1      29.306  31.111  37.845  1.00  0.00     0.175 C 
HETATM    3  C4  UNL     1      28.675  30.380  39.023  1.00  0.00     0.185 C 
HETATM    4  C5  UNL     1      28.265  29.022  38.526  1.00  0.00     0.217 C 
HETATM    5  C6  UNL     1      27.334  29.239  37.371  1.00  0.00     0.116 A 
HETATM    6  N1  UNL     1      26.410  28.382  36.905  1.00  0.00    -0.344 N 
ATOM      7  H1  UNL     1      26.213  27.454  37.279  1.00  0.00     0.167 HD
HETATM    8  C7  UNL     1      25.788  28.960  35.857  1.00  0.00     0.044 A 
HETATM    9  C15 UNL     1      26.383  30.213  35.713  1.00  0.00     0.119 A 
HETATM   10  N3  UNL     1      27.333  30.370  36.653  1.00  0.00    -0.333 N 
ENDROOT
BRANCH   8  11
HETATM   11  C8  UNL     1      24.697  28.377  35.034  1.00  0.00     0.178 C 
BRANCH  11  12
HETATM   12  N2  UNL     1      24.097  27.298  35.748  1.00  0.00    -0.384 N 
ATOM     13  H2  UNL     1      23.915  27.390  36.747  1.00  0.00     0.160 HD
BRANCH  12  14
HETATM   14  C9  UNL     1      23.751  26.099  35.075  1.00  0.00     0.028 A 
HETATM   15  C10 UNL     1      23.898  26.013  33.710  1.00  0.00     0.029 A 
HETATM   16  C11 UNL     1      23.576  24.875  33.026  1.00  0.00     0.002 A 
HETATM   17  C12 UNL     1      23.092  23.773  33.697  1.00  0.00     0.000 A 
HETATM   18  C13 UNL     1      22.947  23.867  35.073  1.00  0.00     0.002 A 
HETATM   19  C14 UNL     1      23.270  25.010  35.754  1.00  0.00     0.029 A 
ENDBRANCH  12  14
ENDBRANCH  11  12
ENDBRANCH   8  11
BRANCH   4  20
HETATM   20  O4  UNL     1      27.648  28.252  39.481  1.00  0.00    -0.385 OA
ATOM     21  H4  UNL     1      27.826  28.535  40.371  1.00  0.00     0.210 HD
ENDBRANCH   4  20
BRANCH   1  22
HETATM   22  C1  UNL     1      28.854  31.945  35.586  1.00  0.00     0.192 C 
BRANCH  22  23
HETATM   23  O1  UNL     1      30.057  31.296  35.364  1.00  0.00    -0.399 OA
ATOM     24  H1  UNL     1      30.493  31.628  34.589  1.00  0.00     0.209 HD
ENDBRANCH  22  23
ENDBRANCH   1  22
BRANCH   3  25
HETATM   25  O3  UNL     1      29.591  30.209  40.054  1.00  0.00    -0.390 OA
ATOM     26  H3  UNL     1      29.199  29.748  40.787  1.00  0.00     0.210 HD
ENDBRANCH   3  25
BRANCH   2  27
HETATM   27  O2  UNL     1      30.038  32.184  38.281  1.00  0.00    -0.391 OA
ATOM     28  H2  UNL     1      30.831  31.933  38.740  1.00  0.00     0.210 HD
ENDBRANCH   2  27
TORSDOF 8
ENDMDL
