MODEL 2
REMARK VINA RESULT: -8.179465271      2.453      3.341
REMARK  8 active torsions:
REMARK  status: ('A' for Active; 'I' for Inactive)
REMARK    1  A    between atoms: O1_1  and  C1_3 
REMARK    2  A    between atoms: C1_3  and  C2_4 
REMARK    3  A    between atoms: C3_5  and  O2_6 
REMARK    4  A    between atoms: C4_8  and  O3_9 
REMARK    5  A    between atoms: C5_11  and  O4_12 
REMARK    6  A    between atoms: C7_17  and  C8_18 
REMARK    7  A    between atoms: C8_18  and  N2_19 
REMARK    8  A    between atoms: N2_19  and  C9_21 
ROOT
HETATM    1  C2  UNL     1      23.885  25.271  33.922  1.00  0.00     0.145 C 
HETATM    2  C3  UNL     1      22.808  24.420  34.526  1.00  0.00     0.175 C 
HETATM    3  C4  UNL     1      23.365  23.784  35.794  1.00  0.00     0.185 C 
HETATM    4  C5  UNL     1      23.458  24.873  36.826  1.00  0.00     0.217 C 
HETATM    5  C6  UNL     1      24.324  25.953  36.249  1.00  0.00     0.116 A 
HETATM    6  N1  UNL     1      25.021  26.880  36.929  1.00  0.00    -0.344 N 
ATOM      7  H1  UNL     1      25.055  26.976  37.944  1.00  0.00     0.167 HD
HETATM    8  C7  UNL     1      25.665  27.661  36.039  1.00  0.00     0.044 A 
HETATM    9  C15 UNL     1      25.324  27.158  34.783  1.00  0.00     0.119 A 
HETATM   10  N3  UNL     1      24.498  26.106  34.930  1.00  0.00    -0.333 N 
ENDROOT
BRANCH   8  11
HETATM   11  C8  UNL     1      26.553  28.813  36.341  1.00  0.00     0.178 C 
BRANCH  11  12
HETATM   12  N2  UNL     1      27.180  28.603  37.604  1.00  0.00    -0.384 N 
ATOM     13  H2  UNL     1      27.340  27.654  37.939  1.00  0.00     0.160 HD
BRANCH  12  14
HETATM   14  C9  UNL     1      27.583  29.708  38.396  1.00  0.00     0.028 A 
HETATM   15  C10 UNL     1      28.154  30.808  37.797  1.00  0.00     0.029 A 
HETATM   16  C11 UNL     1      28.555  31.891  38.526  1.00  0.00     0.002 A 
HETATM   17  C12 UNL     1      28.395  31.908  39.894  1.00  0.00     0.000 A 
HETATM   18  C13 UNL     1      27.819  30.797  40.491  1.00  0.00     0.002 A 
HETATM   19  C14 UNL     1      27.419  29.713  39.756  1.00  0.00     0.029 A 
ENDBRANCH  12  14
ENDBRANCH  11  12
ENDBRANCH   8  11
BRANCH   4  20
HETATM   20  O4  UNL     1      23.977  24.451  38.024  1.00  0.00    -0.385 OA
ATOM     21  H4  UNL     1      24.626  25.043  38.386  1.00  0.00     0.210 HD
ENDBRANCH   4  20
BRANCH   1  22
HETATM   22  C1  UNL     1      23.247  26.142  32.840  1.00  0.00     0.192 C 
BRANCH  22  23
HETATM   23  O1  UNL     1      22.731  25.373  31.811  1.00  0.00    -0.399 OA
ATOM     24  H1  UNL     1      22.674  25.869  31.003  1.00  0.00     0.209 HD
ENDBRANCH  22  23
ENDBRANCH   1  22
BRANCH   3  25
HETATM   25  O3  UNL     1      22.513  22.797  36.275  1.00  0.00    -0.390 OA
ATOM     26  H3  UNL     1      21.839  23.169  36.831  1.00  0.00     0.210 HD
ENDBRANCH   3  25
BRANCH   2  27
HETATM   27  O2  UNL     1      22.340  23.457  33.671  1.00  0.00    -0.391 OA
ATOM     28  H2  UNL     1      22.979  22.779  33.486  1.00  0.00     0.210 HD
ENDBRANCH   2  27
TORSDOF 8
ENDMDL
