MODEL 2
REMARK VINA RESULT: -5.532772808      1.237      1.803
REMARK  3 active torsions:
REMARK  status: ('A' for Active; 'I' for Inactive)
REMARK    1  A    between atoms: C4_6  and  O3_7 
REMARK    2  A    between atoms: C5_9  and  O4_10 
REMARK    3  A    between atoms: C6_12  and  O5_13 
ROOT
HETATM    1  C1  UNL     1       7.599  32.668   9.620  1.00  0.00     0.043 C 
HETATM    2  C2  UNL     1       8.905  32.242   9.029  1.00  0.00     0.159 C 
HETATM    3  O1  UNL     1      10.005  32.545   9.896  1.00  0.00    -0.312 OA
HETATM    4  C3  UNL     1      11.255  32.391   9.264  1.00  0.00     0.290 C 
HETATM    5  O2  UNL     1      12.281  32.964   9.686  1.00  0.00    -0.262 OA
HETATM    6  C4  UNL     1      11.235  31.501   8.071  1.00  0.00     0.248 C 
HETATM    7  C5  UNL     1      10.246  31.948   7.030  1.00  0.00     0.188 C 
HETATM    8  C6  UNL     1       9.213  32.850   7.708  1.00  0.00     0.179 C 
ENDROOT
BRANCH   6   9
HETATM    9  O3  UNL     1      12.508  31.317   7.544  1.00  0.00    -0.383 OA
ATOM     10  H3  UNL     1      12.503  31.339   6.594  1.00  0.00     0.210 HD
ENDBRANCH   6   9
BRANCH   7  11
HETATM   11  O4  UNL     1      10.819  32.551   5.935  1.00  0.00    -0.390 OA
ATOM     12  H4  UNL     1      10.216  33.076   5.422  1.00  0.00     0.210 HD
ENDBRANCH   7  11
BRANCH   8  13
HETATM   13  O5  UNL     1       8.117  33.084   6.911  1.00  0.00    -0.390 OA
ATOM     14  H5  UNL     1       7.383  33.493   7.354  1.00  0.00     0.210 HD
ENDBRANCH   8  13
TORSDOF 3
ENDMDL
