MODEL 18
REMARK VINA RESULT: -4.484751572      6.068      7.787
REMARK  3 active torsions:
REMARK  status: ('A' for Active; 'I' for Inactive)
REMARK    1  A    between atoms: C4_6  and  O3_7 
REMARK    2  A    between atoms: C5_9  and  O4_10 
REMARK    3  A    between atoms: C6_12  and  O5_13 
ROOT
HETATM    1  C1  UNL     1      12.732  24.865   2.624  1.00  0.00     0.043 C 
HETATM    2  C2  UNL     1      12.855  26.142   3.391  1.00  0.00     0.159 C 
HETATM    3  O1  UNL     1      11.938  27.137   2.919  1.00  0.00    -0.312 OA
HETATM    4  C3  UNL     1      12.204  28.417   3.444  1.00  0.00     0.290 C 
HETATM    5  O2  UNL     1      11.802  29.456   2.880  1.00  0.00    -0.262 OA
HETATM    6  C4  UNL     1      12.994  28.411   4.705  1.00  0.00     0.248 C 
HETATM    7  C5  UNL     1      14.307  27.691   4.565  1.00  0.00     0.188 C 
HETATM    8  C6  UNL     1      14.211  26.753   3.360  1.00  0.00     0.179 C 
ENDROOT
BRANCH   6   9
HETATM    9  O3  UNL     1      13.149  29.693   5.222  1.00  0.00    -0.383 OA
ATOM     10  H3  UNL     1      13.358  29.676   6.149  1.00  0.00     0.210 HD
ENDBRANCH   6   9
BRANCH   7  11
HETATM   11  O4  UNL     1      15.398  28.523   4.486  1.00  0.00    -0.390 OA
ATOM     12  H4  UNL     1      15.855  28.644   5.310  1.00  0.00     0.210 HD
ENDBRANCH   7  11
BRANCH   8  13
HETATM   13  O5  UNL     1      15.248  25.852   3.312  1.00  0.00    -0.390 OA
ATOM     14  H5  UNL     1      15.726  25.752   4.126  1.00  0.00     0.210 HD
ENDBRANCH   8  13
TORSDOF 3
ENDMDL
