MODEL 13
REMARK VINA RESULT: -4.569173687      4.677      6.349
REMARK  3 active torsions:
REMARK  status: ('A' for Active; 'I' for Inactive)
REMARK    1  A    between atoms: C4_6  and  O3_7 
REMARK    2  A    between atoms: C5_9  and  O4_10 
REMARK    3  A    between atoms: C6_12  and  O5_13 
ROOT
HETATM    1  C1  UNL     1      10.212  30.505   2.127  1.00  0.00     0.043 C 
HETATM    2  C2  UNL     1      11.277  29.928   3.003  1.00  0.00     0.159 C 
HETATM    3  O1  UNL     1      11.670  28.619   2.571  1.00  0.00    -0.312 OA
HETATM    4  C3  UNL     1      12.478  27.954   3.515  1.00  0.00     0.290 C 
HETATM    5  O2  UNL     1      12.592  26.711   3.523  1.00  0.00    -0.262 OA
HETATM    6  C4  UNL     1      13.165  28.856   4.479  1.00  0.00     0.248 C 
HETATM    7  C5  UNL     1      12.208  29.736   5.235  1.00  0.00     0.188 C 
HETATM    8  C6  UNL     1      10.904  29.818   4.438  1.00  0.00     0.179 C 
ENDROOT
BRANCH   6   9
HETATM    9  O3  UNL     1      14.014  28.153   5.327  1.00  0.00    -0.383 OA
ATOM     10  H3  UNL     1      13.587  27.926   6.144  1.00  0.00     0.210 HD
ENDBRANCH   6   9
BRANCH   7  11
HETATM   11  O4  UNL     1      11.994  29.346   6.535  1.00  0.00    -0.390 OA
ATOM     12  H4  UNL     1      12.602  28.686   6.848  1.00  0.00     0.210 HD
ENDBRANCH   7  11
BRANCH   8  13
HETATM   13  O5  UNL     1      10.071  30.811   4.895  1.00  0.00    -0.390 OA
ATOM     14  H5  UNL     1       9.519  30.562   5.628  1.00  0.00     0.210 HD
ENDBRANCH   8  13
TORSDOF 3
ENDMDL
