MODEL 16
REMARK VINA RESULT: -4.497067537      8.053      8.876
REMARK  3 active torsions:
REMARK  status: ('A' for Active; 'I' for Inactive)
REMARK    1  A    between atoms: C4_6  and  O3_7 
REMARK    2  A    between atoms: C5_9  and  O4_10 
REMARK    3  A    between atoms: C6_12  and  O5_13 
ROOT
HETATM    1  C1  UNL     1      15.865  29.426   3.561  1.00  0.00     0.043 C 
HETATM    2  C2  UNL     1      14.738  28.456   3.405  1.00  0.00     0.159 C 
HETATM    3  O1  UNL     1      15.066  27.168   3.941  1.00  0.00    -0.312 OA
HETATM    4  C3  UNL     1      14.133  26.174   3.583  1.00  0.00     0.290 C 
HETATM    5  O2  UNL     1      14.425  24.961   3.601  1.00  0.00    -0.262 OA
HETATM    6  C4  UNL     1      12.797  26.700   3.190  1.00  0.00     0.248 C 
HETATM    7  C5  UNL     1      12.872  27.688   2.059  1.00  0.00     0.188 C 
HETATM    8  C6  UNL     1      14.297  28.242   2.001  1.00  0.00     0.179 C 
ENDROOT
BRANCH   6   9
HETATM    9  O3  UNL     1      11.895  25.674   2.934  1.00  0.00    -0.383 OA
ATOM     10  H3  UNL     1      11.586  25.692   2.036  1.00  0.00     0.210 HD
ENDBRANCH   6   9
BRANCH   7  11
HETATM   11  O4  UNL     1      12.464  27.185   0.847  1.00  0.00    -0.390 OA
ATOM     12  H4  UNL     1      12.949  27.523   0.103  1.00  0.00     0.210 HD
ENDBRANCH   7  11
BRANCH   8  13
HETATM   13  O5  UNL     1      14.399  29.347   1.190  1.00  0.00    -0.390 OA
ATOM     14  H5  UNL     1      14.569  29.155   0.275  1.00  0.00     0.210 HD
ENDBRANCH   8  13
TORSDOF 3
ENDMDL
