MODEL 1
REMARK VINA RESULT: -5.671882281      0.000      0.000
REMARK  3 active torsions:
REMARK  status: ('A' for Active; 'I' for Inactive)
REMARK    1  A    between atoms: C4_6  and  O3_7 
REMARK    2  A    between atoms: C5_9  and  O4_10 
REMARK    3  A    between atoms: C6_12  and  O5_13 
ROOT
HETATM    1  C1  UNL     1       8.041  32.041   8.644  1.00  0.00     0.043 C 
HETATM    2  C2  UNL     1       9.459  31.764   9.028  1.00  0.00     0.159 C 
HETATM    3  O1  UNL     1       9.900  32.623  10.087  1.00  0.00    -0.312 OA
HETATM    4  C3  UNL     1      11.293  32.564  10.294  1.00  0.00     0.290 C 
HETATM    5  O2  UNL     1      11.914  33.485  10.864  1.00  0.00    -0.262 OA
HETATM    6  C4  UNL     1      11.937  31.325   9.779  1.00  0.00     0.248 C 
HETATM    7  C5  UNL     1      11.681  31.104   8.313  1.00  0.00     0.188 C 
HETATM    8  C6  UNL     1      10.439  31.906   7.919  1.00  0.00     0.179 C 
ENDROOT
BRANCH   6   9
HETATM    9  O3  UNL     1      13.292  31.281  10.089  1.00  0.00    -0.383 OA
ATOM     10  H3  UNL     1      13.637  30.397  10.039  1.00  0.00     0.210 HD
ENDBRANCH   6   9
BRANCH   7  11
HETATM   11  O4  UNL     1      12.757  31.389   7.507  1.00  0.00    -0.390 OA
ATOM     12  H4  UNL     1      12.660  31.090   6.610  1.00  0.00     0.210 HD
ENDBRANCH   7  11
BRANCH   8  13
HETATM   13  O5  UNL     1       9.961  31.557   6.678  1.00  0.00    -0.390 OA
ATOM     14  H5  UNL     1      10.055  32.227   6.012  1.00  0.00     0.210 HD
ENDBRANCH   8  13
TORSDOF 3
ENDMDL
