MODEL 18
REMARK VINA RESULT: -8.594932847      1.565      6.742
REMARK  1 active torsions:
REMARK  status: ('A' for Active; 'I' for Inactive)
REMARK    1  A    between atoms: C11_11  and  O1_12 
ROOT
HETATM    1  C1  UNL     1      16.924 -10.457  41.714  1.00  0.00     0.024 C 
HETATM    2  C2  UNL     1      17.056  -9.185  42.514  1.00  0.00     0.021 C 
HETATM    3  C3  UNL     1      17.523  -8.026  41.711  1.00  0.00     0.018 C 
HETATM    4  C4  UNL     1      18.831  -8.456  41.050  1.00  0.00     0.007 C 
HETATM    5  C5  UNL     1      19.837  -8.684  42.128  1.00  0.00    -0.002 C 
HETATM    6  C6  UNL     1      19.413  -9.685  43.172  1.00  0.00    -0.004 C 
HETATM    7  C7  UNL     1      20.383  -9.507  44.350  1.00  0.00     0.006 C 
HETATM    8  C8  UNL     1      21.804  -9.709  43.941  1.00  0.00     0.006 C 
HETATM    9  C9  UNL     1      22.185  -8.951  42.688  1.00  0.00    -0.004 C 
HETATM   10  C10 UNL     1      23.564  -9.343  42.298  1.00  0.00     0.037 C 
HETATM   11  C11 UNL     1      23.903  -9.137  40.872  1.00  0.00     0.118 C 
HETATM   12  C12 UNL     1      23.003  -8.257  40.101  1.00  0.00     0.032 C 
HETATM   13  C13 UNL     1      21.570  -8.297  40.426  1.00  0.00     0.012 C 
HETATM   14  C14 UNL     1      21.175  -9.141  41.585  1.00  0.00    -0.036 C 
HETATM   15  C15 UNL     1      21.046 -10.606  41.195  1.00  0.00     0.016 C 
HETATM   16  C16 UNL     1      18.059  -9.351  43.668  1.00  0.00     0.006 C 
HETATM   17  C17 UNL     1      17.371 -10.383  44.485  1.00  0.00     0.013 C 
HETATM   18  C18 UNL     1      15.909  -9.918  44.436  1.00  0.00     0.079 C 
HETATM   19  C19 UNL     1      15.827  -8.991  43.277  1.00  0.00     0.135 C 
HETATM   20  O2  UNL     1      14.916  -8.241  43.039  1.00  0.00    -0.297 OA
ENDROOT
BRANCH  11  21
HETATM   21  O1  UNL     1      25.202  -8.575  40.822  1.00  0.00    -0.396 OA
ATOM     22  H1  UNL     1      25.304  -8.173  39.967  1.00  0.00     0.210 HD
ENDBRANCH  11  21
TORSDOF 1
ENDMDL
