MODEL 7
REMARK VINA RESULT: -9.469313452      1.282      2.849
REMARK  1 active torsions:
REMARK  status: ('A' for Active; 'I' for Inactive)
REMARK    1  A    between atoms: C11_11  and  O1_12 
ROOT
HETATM    1  C1  UNL     1      23.797  -6.538  42.509  1.00  0.00     0.024 C 
HETATM    2  C2  UNL     1      23.687  -7.897  41.864  1.00  0.00     0.021 C 
HETATM    3  C3  UNL     1      22.857  -7.902  40.631  1.00  0.00     0.018 C 
HETATM    4  C4  UNL     1      21.503  -7.312  41.019  1.00  0.00     0.007 C 
HETATM    5  C5  UNL     1      20.859  -8.242  41.993  1.00  0.00    -0.002 C 
HETATM    6  C6  UNL     1      21.687  -8.527  43.220  1.00  0.00    -0.004 C 
HETATM    7  C7  UNL     1      21.042  -9.749  43.892  1.00  0.00     0.006 C 
HETATM    8  C8  UNL     1      19.611  -9.507  44.241  1.00  0.00     0.006 C 
HETATM    9  C9  UNL     1      18.807  -8.912  43.105  1.00  0.00    -0.004 C 
HETATM   10  C10 UNL     1      17.449  -8.579  43.610  1.00  0.00     0.037 C 
HETATM   11  C11 UNL     1      16.723  -7.542  42.843  1.00  0.00     0.118 C 
HETATM   12  C12 UNL     1      17.247  -7.229  41.499  1.00  0.00     0.032 C 
HETATM   13  C13 UNL     1      18.704  -7.272  41.310  1.00  0.00     0.012 C 
HETATM   14  C14 UNL     1      19.511  -7.741  42.469  1.00  0.00    -0.036 C 
HETATM   15  C15 UNL     1      19.754  -6.624  43.473  1.00  0.00     0.016 C 
HETATM   16  C16 UNL     1      23.056  -8.922  42.821  1.00  0.00     0.006 C 
HETATM   17  C17 UNL     1      24.082  -8.964  43.895  1.00  0.00     0.013 C 
HETATM   18  C18 UNL     1      25.393  -8.955  43.097  1.00  0.00     0.079 C 
HETATM   19  C19 UNL     1      25.028  -8.460  41.743  1.00  0.00     0.135 C 
HETATM   20  O2  UNL     1      25.721  -8.523  40.760  1.00  0.00    -0.297 OA
ENDROOT
BRANCH  11  21
HETATM   21  O1  UNL     1      15.387  -7.985  42.692  1.00  0.00    -0.396 OA
ATOM     22  H1  UNL     1      14.898  -7.280  42.283  1.00  0.00     0.210 HD
ENDBRANCH  11  21
TORSDOF 1
ENDMDL
