MODEL 8
REMARK VINA RESULT: -9.332738888      1.735      2.462
REMARK  1 active torsions:
REMARK  status: ('A' for Active; 'I' for Inactive)
REMARK    1  A    between atoms: C11_11  and  O1_12 
ROOT
HETATM    1  C1  UNL     1      26.008  -8.172  41.052  1.00  0.00     0.024 C 
HETATM    2  C2  UNL     1      25.723  -8.246  42.532  1.00  0.00     0.021 C 
HETATM    3  C3  UNL     1      25.354  -9.608  42.997  1.00  0.00     0.018 C 
HETATM    4  C4  UNL     1      24.173 -10.053  42.137  1.00  0.00     0.007 C 
HETATM    5  C5  UNL     1      23.021  -9.154  42.437  1.00  0.00    -0.002 C 
HETATM    6  C6  UNL     1      23.307  -7.688  42.230  1.00  0.00    -0.004 C 
HETATM    7  C7  UNL     1      22.165  -6.931  42.925  1.00  0.00     0.006 C 
HETATM    8  C8  UNL     1      20.828  -7.310  42.381  1.00  0.00     0.006 C 
HETATM    9  C9  UNL     1      20.623  -8.806  42.275  1.00  0.00    -0.004 C 
HETATM   10  C10 UNL     1      19.330  -9.059  41.588  1.00  0.00     0.037 C 
HETATM   11  C11 UNL     1      19.206 -10.382  40.935  1.00  0.00     0.118 C 
HETATM   12  C12 UNL     1      20.190 -11.408  41.333  1.00  0.00     0.032 C 
HETATM   13  C13 UNL     1      21.557 -10.960  41.632  1.00  0.00     0.012 C 
HETATM   14  C14 UNL     1      21.793  -9.490  41.616  1.00  0.00    -0.036 C 
HETATM   15  C15 UNL     1      22.018  -8.974  40.203  1.00  0.00     0.016 C 
HETATM   16  C16 UNL     1      24.561  -7.319  42.925  1.00  0.00     0.006 C 
HETATM   17  C17 UNL     1      25.143  -5.992  42.596  1.00  0.00     0.013 C 
HETATM   18  C18 UNL     1      26.583  -6.130  43.109  1.00  0.00     0.079 C 
HETATM   19  C19 UNL     1      26.816  -7.592  43.245  1.00  0.00     0.135 C 
HETATM   20  O2  UNL     1      27.733  -8.108  43.831  1.00  0.00    -0.297 OA
ENDROOT
BRANCH  11  21
HETATM   21  O1  UNL     1      17.916 -10.883  41.233  1.00  0.00    -0.396 OA
ATOM     22  H1  UNL     1      17.627 -11.389  40.483  1.00  0.00     0.210 HD
ENDBRANCH  11  21
TORSDOF 1
ENDMDL
