MODEL 20
REMARK VINA RESULT: -8.502328468      1.655      6.684
REMARK  1 active torsions:
REMARK  status: ('A' for Active; 'I' for Inactive)
REMARK    1  A    between atoms: C11_11  and  O1_12 
ROOT
HETATM    1  C1  UNL     1      16.953  -8.960  40.748  1.00  0.00     0.024 C 
HETATM    2  C2  UNL     1      17.305  -7.677  41.459  1.00  0.00     0.021 C 
HETATM    3  C3  UNL     1      18.288  -6.841  40.723  1.00  0.00     0.018 C 
HETATM    4  C4  UNL     1      19.501  -7.731  40.459  1.00  0.00     0.007 C 
HETATM    5  C5  UNL     1      20.111  -8.078  41.777  1.00  0.00    -0.002 C 
HETATM    6  C6  UNL     1      19.164  -8.741  42.744  1.00  0.00    -0.004 C 
HETATM    7  C7  UNL     1      19.848  -8.679  44.118  1.00  0.00     0.006 C 
HETATM    8  C8  UNL     1      21.182  -9.349  44.110  1.00  0.00     0.006 C 
HETATM    9  C9  UNL     1      22.058  -8.934  42.948  1.00  0.00    -0.004 C 
HETATM   10  C10 UNL     1      23.288  -9.768  42.961  1.00  0.00     0.037 C 
HETATM   11  C11 UNL     1      23.987  -9.890  41.661  1.00  0.00     0.118 C 
HETATM   12  C12 UNL     1      23.615  -8.912  40.620  1.00  0.00     0.032 C 
HETATM   13  C13 UNL     1      22.212  -8.479  40.562  1.00  0.00     0.012 C 
HETATM   14  C14 UNL     1      21.316  -8.985  41.637  1.00  0.00    -0.036 C 
HETATM   15  C15 UNL     1      20.813 -10.389  41.334  1.00  0.00     0.016 C 
HETATM   16  C16 UNL     1      17.915  -7.953  42.844  1.00  0.00     0.006 C 
HETATM   17  C17 UNL     1      16.766  -8.602  43.527  1.00  0.00     0.013 C 
HETATM   18  C18 UNL     1      15.582  -7.741  43.064  1.00  0.00     0.079 C 
HETATM   19  C19 UNL     1      16.066  -7.017  41.859  1.00  0.00     0.135 C 
HETATM   20  O2  UNL     1      15.523  -6.078  41.337  1.00  0.00    -0.297 OA
ENDROOT
BRANCH  11  21
HETATM   21  O1  UNL     1      25.373  -9.748  41.911  1.00  0.00    -0.396 OA
ATOM     22  H1  UNL     1      25.599  -8.840  41.751  1.00  0.00     0.210 HD
ENDBRANCH  11  21
TORSDOF 1
ENDMDL
