MODEL 5
REMARK VINA RESULT: -9.554307135      0.985      6.398
REMARK  1 active torsions:
REMARK  status: ('A' for Active; 'I' for Inactive)
REMARK    1  A    between atoms: C11_11  and  O1_12 
ROOT
HETATM    1  C1  UNL     1      18.570  -9.137  41.479  1.00  0.00     0.024 C 
HETATM    2  C2  UNL     1      18.737  -8.186  42.638  1.00  0.00     0.021 C 
HETATM    3  C3  UNL     1      19.459  -6.938  42.280  1.00  0.00     0.018 C 
HETATM    4  C4  UNL     1      20.789  -7.369  41.663  1.00  0.00     0.007 C 
HETATM    5  C5  UNL     1      21.585  -8.056  42.722  1.00  0.00    -0.002 C 
HETATM    6  C6  UNL     1      20.888  -9.230  43.359  1.00  0.00    -0.004 C 
HETATM    7  C7  UNL     1      21.684  -9.556  44.632  1.00  0.00     0.006 C 
HETATM    8  C8  UNL     1      23.115  -9.862  44.335  1.00  0.00     0.006 C 
HETATM    9  C9  UNL     1      23.771  -8.851  43.421  1.00  0.00    -0.004 C 
HETATM   10  C10 UNL     1      25.133  -9.334  43.079  1.00  0.00     0.037 C 
HETATM   11  C11 UNL     1      25.706  -8.788  41.828  1.00  0.00     0.118 C 
HETATM   12  C12 UNL     1      25.048  -7.591  41.270  1.00  0.00     0.032 C 
HETATM   13  C13 UNL     1      23.589  -7.487  41.413  1.00  0.00     0.012 C 
HETATM   14  C14 UNL     1      22.922  -8.551  42.211  1.00  0.00    -0.036 C 
HETATM   15  C15 UNL     1      22.673  -9.802  41.382  1.00  0.00     0.016 C 
HETATM   16  C16 UNL     1      19.527  -8.835  43.786  1.00  0.00     0.006 C 
HETATM   17  C17 UNL     1      18.601  -9.931  44.173  1.00  0.00     0.013 C 
HETATM   18  C18 UNL     1      17.232  -9.240  44.112  1.00  0.00     0.079 C 
HETATM   19  C19 UNL     1      17.441  -8.020  43.288  1.00  0.00     0.135 C 
HETATM   20  O2  UNL     1      16.677  -7.095  43.194  1.00  0.00    -0.297 OA
ENDROOT
BRANCH  11  21
HETATM   21  O1  UNL     1      27.057  -8.455  42.090  1.00  0.00    -0.396 OA
ATOM     22  H1  UNL     1      27.588  -8.881  41.427  1.00  0.00     0.210 HD
ENDBRANCH  11  21
TORSDOF 1
ENDMDL
