MODEL 6
REMARK VINA RESULT: -9.520213889      1.331      6.309
REMARK  1 active torsions:
REMARK  status: ('A' for Active; 'I' for Inactive)
REMARK    1  A    between atoms: C11_11  and  O1_12 
ROOT
HETATM    1  C1  UNL     1      18.884  -7.420  40.601  1.00  0.00     0.024 C 
HETATM    2  C2  UNL     1      18.792  -7.979  41.999  1.00  0.00     0.021 C 
HETATM    3  C3  UNL     1      19.498  -7.155  43.014  1.00  0.00     0.018 C 
HETATM    4  C4  UNL     1      20.937  -7.003  42.524  1.00  0.00     0.007 C 
HETATM    5  C5  UNL     1      21.569  -8.355  42.530  1.00  0.00    -0.002 C 
HETATM    6  C6  UNL     1      20.834  -9.388  41.714  1.00  0.00    -0.004 C 
HETATM    7  C7  UNL     1      21.409 -10.749  42.136  1.00  0.00     0.006 C 
HETATM    8  C8  UNL     1      22.884 -10.826  41.918  1.00  0.00     0.006 C 
HETATM    9  C9  UNL     1      23.636  -9.628  42.456  1.00  0.00    -0.004 C 
HETATM   10  C10 UNL     1      25.061  -9.744  42.053  1.00  0.00     0.037 C 
HETATM   11  C11 UNL     1      25.817  -8.471  42.015  1.00  0.00     0.118 C 
HETATM   12  C12 UNL     1      25.204  -7.321  42.709  1.00  0.00     0.032 C 
HETATM   13  C13 UNL     1      23.739  -7.206  42.674  1.00  0.00     0.012 C 
HETATM   14  C14 UNL     1      23.000  -8.328  42.034  1.00  0.00    -0.036 C 
HETATM   15  C15 UNL     1      22.969  -8.188  40.519  1.00  0.00     0.016 C 
HETATM   16  C16 UNL     1      19.400  -9.389  42.080  1.00  0.00     0.006 C 
HETATM   17  C17 UNL     1      18.481 -10.137  41.183  1.00  0.00     0.013 C 
HETATM   18  C18 UNL     1      17.109  -9.571  41.576  1.00  0.00     0.079 C 
HETATM   19  C19 UNL     1      17.394  -8.293  42.279  1.00  0.00     0.135 C 
HETATM   20  O2  UNL     1      16.610  -7.662  42.940  1.00  0.00    -0.297 OA
ENDROOT
BRANCH  11  21
HETATM   21  O1  UNL     1      27.080  -8.710  42.608  1.00  0.00    -0.396 OA
ATOM     22  H1  UNL     1      26.995  -8.534  43.538  1.00  0.00     0.210 HD
ENDBRANCH  11  21
TORSDOF 1
ENDMDL
