MODEL 1
REMARK VINA RESULT: -10.280932081      0.000      0.000
REMARK  1 active torsions:
REMARK  status: ('A' for Active; 'I' for Inactive)
REMARK    1  A    between atoms: C11_11  and  O1_12 
ROOT
HETATM    1  C1  UNL     1      24.407 -10.562  41.897  1.00  0.00     0.024 C 
HETATM    2  C2  UNL     1      24.623  -9.250  42.608  1.00  0.00     0.021 C 
HETATM    3  C3  UNL     1      24.132  -9.248  44.010  1.00  0.00     0.018 C 
HETATM    4  C4  UNL     1      22.664  -9.664  43.954  1.00  0.00     0.007 C 
HETATM    5  C5  UNL     1      21.914  -8.603  43.219  1.00  0.00    -0.002 C 
HETATM    6  C6  UNL     1      22.439  -8.317  41.835  1.00  0.00    -0.004 C 
HETATM    7  C7  UNL     1      21.799  -6.989  41.404  1.00  0.00     0.006 C 
HETATM    8  C8  UNL     1      20.307  -7.054  41.422  1.00  0.00     0.006 C 
HETATM    9  C9  UNL     1      19.745  -7.644  42.697  1.00  0.00    -0.004 C 
HETATM   10  C10 UNL     1      18.275  -7.795  42.541  1.00  0.00     0.037 C 
HETATM   11  C11 UNL     1      17.643  -8.804  43.421  1.00  0.00     0.118 C 
HETATM   12  C12 UNL     1      18.444  -9.267  44.571  1.00  0.00     0.032 C 
HETATM   13  C13 UNL     1      19.896  -9.391  44.385  1.00  0.00     0.012 C 
HETATM   14  C14 UNL     1      20.440  -8.925  43.081  1.00  0.00    -0.036 C 
HETATM   15  C15 UNL     1      20.291  -9.985  42.000  1.00  0.00     0.016 C 
HETATM   16  C16 UNL     1      23.902  -8.097  41.890  1.00  0.00     0.006 C 
HETATM   17  C17 UNL     1      24.626  -8.085  40.592  1.00  0.00     0.013 C 
HETATM   18  C18 UNL     1      26.084  -8.289  41.029  1.00  0.00     0.079 C 
HETATM   19  C19 UNL     1      26.010  -8.840  42.408  1.00  0.00     0.135 C 
HETATM   20  O2  UNL     1      26.928  -8.922  43.183  1.00  0.00    -0.297 OA
ENDROOT
BRANCH  11  21
HETATM   21  O1  UNL     1      16.449  -8.237  43.927  1.00  0.00    -0.396 OA
ATOM     22  H1  UNL     1      16.142  -8.799  44.628  1.00  0.00     0.210 HD
ENDBRANCH  11  21
TORSDOF 1
ENDMDL
