MODEL 14
REMARK VINA RESULT: -8.749222361      1.268      6.322
REMARK  1 active torsions:
REMARK  status: ('A' for Active; 'I' for Inactive)
REMARK    1  A    between atoms: C11_11  and  O1_12 
ROOT
HETATM    1  C1  UNL     1      19.230  -8.224  40.646  1.00  0.00     0.024 C 
HETATM    2  C2  UNL     1      19.088  -7.962  42.125  1.00  0.00     0.021 C 
HETATM    3  C3  UNL     1      19.678  -6.669  42.556  1.00  0.00     0.018 C 
HETATM    4  C4  UNL     1      21.132  -6.680  42.088  1.00  0.00     0.007 C 
HETATM    5  C5  UNL     1      21.845  -7.763  42.826  1.00  0.00    -0.002 C 
HETATM    6  C6  UNL     1      21.226  -9.129  42.674  1.00  0.00    -0.004 C 
HETATM    7  C7  UNL     1      21.856 -10.005  43.768  1.00  0.00     0.006 C 
HETATM    8  C8  UNL     1      23.344 -10.061  43.653  1.00  0.00     0.006 C 
HETATM    9  C9  UNL     1      23.986  -8.701  43.482  1.00  0.00    -0.004 C 
HETATM   10  C10 UNL     1      25.438  -8.892  43.231  1.00  0.00     0.037 C 
HETATM   11  C11 UNL     1      26.115  -7.775  42.534  1.00  0.00     0.118 C 
HETATM   12  C12 UNL     1      25.391  -6.489  42.495  1.00  0.00     0.032 C 
HETATM   13  C13 UNL     1      23.927  -6.534  42.376  1.00  0.00     0.012 C 
HETATM   14  C14 UNL     1      23.299  -7.882  42.420  1.00  0.00    -0.036 C 
HETATM   15  C15 UNL     1      23.352  -8.571  41.064  1.00  0.00     0.016 C 
HETATM   16  C16 UNL     1      19.775  -9.057  42.957  1.00  0.00     0.006 C 
HETATM   17  C17 UNL     1      18.959 -10.241  42.581  1.00  0.00     0.013 C 
HETATM   18  C18 UNL     1      17.534  -9.671  42.585  1.00  0.00     0.079 C 
HETATM   19  C19 UNL     1      17.697  -8.196  42.503  1.00  0.00     0.135 C 
HETATM   20  O2  UNL     1      16.837  -7.380  42.709  1.00  0.00    -0.297 OA
ENDROOT
BRANCH  11  21
HETATM   21  O1  UNL     1      27.351  -7.555  43.186  1.00  0.00    -0.396 OA
ATOM     22  H1  UNL     1      27.208  -7.681  44.117  1.00  0.00     0.210 HD
ENDBRANCH  11  21
TORSDOF 1
ENDMDL
