MODEL 3
REMARK VINA RESULT: -9.770174498      0.597      1.320
REMARK  8 active torsions:
REMARK  status: ('A' for Active; 'I' for Inactive)
REMARK    1  A    between atoms: C2_2  and  O1_3 
REMARK    2  A    between atoms: C2_2  and  C10_20 
REMARK    3  A    between atoms: C2_2  and  P2_23 
REMARK    4  A    between atoms: O1_3  and  C3_4 
REMARK    5  A    between atoms: C5_6  and  C6_7 
REMARK    6  A    between atoms: C8_11  and  O4_12 
REMARK    7  A    between atoms: O4_12  and  P1_13 
REMARK    8  A    between atoms: C9_17  and  O8_18 
ROOT
HETATM    1  C3  UNL     1      57.852  10.371  29.092  1.00  0.00     0.160 C 
HETATM    2  C4  UNL     1      57.461  11.890  29.160  1.00  0.00     0.080 C 
HETATM    3  C5  UNL     1      56.389  12.009  28.158  1.00  0.00     0.020 C 
HETATM    4  C7  UNL     1      55.548  11.044  27.959  1.00  0.00     0.022 C 
HETATM    5  C8  UNL     1      55.543   9.736  28.682  1.00  0.00     0.190 C 
HETATM    6  C9  UNL     1      56.655   9.719  29.730  1.00  0.00     0.180 C 
ENDROOT
BRANCH   1   7
HETATM    7  O1  UNL     1      58.991  10.140  29.756  1.00  0.00    -0.349 OA
BRANCH   7   8
HETATM    8  C2  UNL     1      59.914   9.251  29.292  1.00  0.00     0.259 C 
HETATM    9  C1  UNL     1      59.427   7.789  29.533  1.00  0.00     0.074 C 
BRANCH   8  10
HETATM   10  C10 UNL     1      61.138   9.275  30.118  1.00  0.00     0.223 C 
HETATM   11  O9  UNL     1      62.274   9.617  29.825  1.00  0.00    -0.645 OA
HETATM   12  O10 UNL     1      60.963   8.834  31.454  1.00  0.00    -0.645 OA
ENDBRANCH   8  10
BRANCH   8  13
HETATM   13  P2  UNL     1      60.112   9.444  27.577  1.00  0.00     0.306 P 
HETATM   14  O11 UNL     1      61.182   8.389  27.315  1.00  0.00    -0.637 OA
HETATM   15  O12 UNL     1      59.084   8.737  26.516  1.00  0.00    -0.637 OA
HETATM   16  O13 UNL     1      61.227  10.603  26.984  1.00  0.00    -0.637 OA
ENDBRANCH   8  13
ENDBRANCH   7   8
ENDBRANCH   1   7
BRANCH   6  17
HETATM   17  O8  UNL     1      56.862   8.503  30.305  1.00  0.00    -0.390 OA
ATOM     18  H8  UNL     1      56.659   8.433  31.230  1.00  0.00     0.210 HD
ENDBRANCH   6  17
BRANCH   3  19
HETATM   19  C6  UNL     1      56.282  13.233  27.385  1.00  0.00     0.205 C 
HETATM   20  O2  UNL     1      57.125  14.171  27.466  1.00  0.00    -0.644 OA
HETATM   21  O3  UNL     1      55.221  13.447  26.491  1.00  0.00    -0.644 OA
ENDBRANCH   3  19
BRANCH   5  22
HETATM   22  O4  UNL     1      55.775   8.721  27.810  1.00  0.00    -0.271 OA
BRANCH  22  23
HETATM   23  P1  UNL     1      54.447   7.690  27.788  1.00  0.00     0.422 P 
HETATM   24  O5  UNL     1      53.803   8.634  26.785  1.00  0.00    -0.617 OA
HETATM   25  O6  UNL     1      54.470   6.361  26.828  1.00  0.00    -0.617 OA
HETATM   26  O7  UNL     1      53.282   7.912  28.912  1.00  0.00    -0.617 OA
ENDBRANCH  22  23
ENDBRANCH   5  22
TORSDOF 8
ENDMDL
