MODEL 1
REMARK VINA RESULT: -11.437544492      0.000      0.000
REMARK  8 active torsions:
REMARK  status: ('A' for Active; 'I' for Inactive)
REMARK    1  A    between atoms: C2_2  and  O1_3 
REMARK    2  A    between atoms: C2_2  and  C10_20 
REMARK    3  A    between atoms: C2_2  and  P2_23 
REMARK    4  A    between atoms: O1_3  and  C3_4 
REMARK    5  A    between atoms: C5_6  and  C6_7 
REMARK    6  A    between atoms: C8_11  and  O4_12 
REMARK    7  A    between atoms: O4_12  and  P1_13 
REMARK    8  A    between atoms: C9_17  and  O8_18 
ROOT
HETATM    1  C3  UNL     1      57.895  10.468  28.886  1.00  0.00     0.160 C 
HETATM    2  C4  UNL     1      57.580  12.006  28.862  1.00  0.00     0.080 C 
HETATM    3  C5  UNL     1      56.370  12.091  28.028  1.00  0.00     0.020 C 
HETATM    4  C7  UNL     1      55.471  11.159  28.056  1.00  0.00     0.022 C 
HETATM    5  C8  UNL     1      55.527   9.925  28.896  1.00  0.00     0.190 C 
HETATM    6  C9  UNL     1      56.787   9.944  29.759  1.00  0.00     0.180 C 
ENDROOT
BRANCH   1   7
HETATM    7  O1  UNL     1      59.114  10.237  29.388  1.00  0.00    -0.349 OA
BRANCH   7   8
HETATM    8  C2  UNL     1      59.908   9.246  28.893  1.00  0.00     0.259 C 
HETATM    9  C1  UNL     1      59.102   7.918  28.764  1.00  0.00     0.074 C 
BRANCH   8  10
HETATM   10  C10 UNL     1      60.939   8.850  29.874  1.00  0.00     0.223 C 
HETATM   11  O9  UNL     1      60.874   8.057  30.802  1.00  0.00    -0.645 OA
HETATM   12  O10 UNL     1      62.192   9.492  29.712  1.00  0.00    -0.645 OA
ENDBRANCH   8  10
BRANCH   8  13
HETATM   13  P2  UNL     1      60.454   9.667  27.298  1.00  0.00     0.306 P 
HETATM   14  O11 UNL     1      59.490   8.832  26.462  1.00  0.00    -0.637 OA
HETATM   15  O12 UNL     1      59.966  11.050  26.569  1.00  0.00    -0.637 OA
HETATM   16  O13 UNL     1      61.724   8.770  26.579  1.00  0.00    -0.637 OA
ENDBRANCH   8  13
ENDBRANCH   7   8
ENDBRANCH   1   7
BRANCH   6  17
HETATM   17  O8  UNL     1      57.033   8.776  30.414  1.00  0.00    -0.390 OA
ATOM     18  H8  UNL     1      56.803   7.977  29.954  1.00  0.00     0.210 HD
ENDBRANCH   6  17
BRANCH   3  19
HETATM   19  C6  UNL     1      56.192  13.243  27.163  1.00  0.00     0.205 C 
HETATM   20  O2  UNL     1      56.861  14.308  27.294  1.00  0.00    -0.644 OA
HETATM   21  O3  UNL     1      55.255  13.241  26.119  1.00  0.00    -0.644 OA
ENDBRANCH   3  19
BRANCH   5  22
HETATM   22  O4  UNL     1      55.578   8.824  28.104  1.00  0.00    -0.271 OA
BRANCH  22  23
HETATM   23  P1  UNL     1      54.014   8.322  27.744  1.00  0.00     0.422 P 
HETATM   24  O5  UNL     1      54.626   7.203  26.915  1.00  0.00    -0.617 OA
HETATM   25  O6  UNL     1      53.206   7.369  28.805  1.00  0.00    -0.617 OA
HETATM   26  O7  UNL     1      53.262   9.007  26.464  1.00  0.00    -0.617 OA
ENDBRANCH  22  23
ENDBRANCH   5  22
TORSDOF 8
ENDMDL
