MODEL 5
REMARK VINA RESULT: -9.366289891      1.151      2.103
REMARK  8 active torsions:
REMARK  status: ('A' for Active; 'I' for Inactive)
REMARK    1  A    between atoms: C2_2  and  O1_3 
REMARK    2  A    between atoms: C2_2  and  C10_20 
REMARK    3  A    between atoms: C2_2  and  P2_23 
REMARK    4  A    between atoms: O1_3  and  C3_4 
REMARK    5  A    between atoms: C5_6  and  C6_7 
REMARK    6  A    between atoms: C8_11  and  O4_12 
REMARK    7  A    between atoms: O4_12  and  P1_13 
REMARK    8  A    between atoms: C9_17  and  O8_18 
ROOT
HETATM    1  C3  UNL     1      57.894  10.575  28.779  1.00  0.00     0.160 C 
HETATM    2  C4  UNL     1      57.556  12.107  28.752  1.00  0.00     0.080 C 
HETATM    3  C5  UNL     1      56.316  12.166  27.959  1.00  0.00     0.020 C 
HETATM    4  C7  UNL     1      55.432  11.221  28.027  1.00  0.00     0.022 C 
HETATM    5  C8  UNL     1      55.536   9.996  28.877  1.00  0.00     0.190 C 
HETATM    6  C9  UNL     1      56.826  10.042  29.695  1.00  0.00     0.180 C 
ENDROOT
BRANCH   1   7
HETATM    7  O1  UNL     1      59.134  10.367  29.240  1.00  0.00    -0.349 OA
BRANCH   7   8
HETATM    8  C2  UNL     1      59.916   9.366  28.745  1.00  0.00     0.259 C 
HETATM    9  C1  UNL     1      61.290   9.337  29.481  1.00  0.00     0.074 C 
BRANCH   8  10
HETATM   10  C10 UNL     1      60.346   9.660  27.364  1.00  0.00     0.223 C 
HETATM   11  O9  UNL     1      59.874   9.289  26.300  1.00  0.00    -0.645 OA
HETATM   12  O10 UNL     1      61.482  10.502  27.262  1.00  0.00    -0.645 OA
ENDBRANCH   8  10
BRANCH   8  13
HETATM   13  P2  UNL     1      59.156   7.829  29.027  1.00  0.00     0.306 P 
HETATM   14  O11 UNL     1      60.162   6.909  28.344  1.00  0.00    -0.637 OA
HETATM   15  O12 UNL     1      59.330   7.042  30.454  1.00  0.00    -0.637 OA
HETATM   16  O13 UNL     1      57.992   7.248  27.912  1.00  0.00    -0.637 OA
ENDBRANCH   8  13
ENDBRANCH   7   8
ENDBRANCH   1   7
BRANCH   6  17
HETATM   17  O8  UNL     1      57.113   8.885  30.352  1.00  0.00    -0.390 OA
ATOM     18  H8  UNL     1      56.579   8.131  30.132  1.00  0.00     0.210 HD
ENDBRANCH   6  17
BRANCH   3  19
HETATM   19  C6  UNL     1      56.090  13.307  27.091  1.00  0.00     0.205 C 
HETATM   20  O2  UNL     1      56.704  14.403  27.226  1.00  0.00    -0.644 OA
HETATM   21  O3  UNL     1      55.165  13.257  26.037  1.00  0.00    -0.644 OA
ENDBRANCH   3  19
BRANCH   5  22
HETATM   22  O4  UNL     1      55.577   8.888  28.094  1.00  0.00    -0.271 OA
BRANCH  22  23
HETATM   23  P1  UNL     1      54.009   8.375  27.771  1.00  0.00     0.422 P 
HETATM   24  O5  UNL     1      54.609   7.244  26.951  1.00  0.00    -0.617 OA
HETATM   25  O6  UNL     1      53.224   7.438  28.863  1.00  0.00    -0.617 OA
HETATM   26  O7  UNL     1      53.231   9.035  26.494  1.00  0.00    -0.617 OA
ENDBRANCH  22  23
ENDBRANCH   5  22
TORSDOF 8
ENDMDL
