MODEL 6
REMARK VINA RESULT: -7.302374114      2.093      6.199
REMARK  8 active torsions:
REMARK  status: ('A' for Active; 'I' for Inactive)
REMARK    1  A    between atoms: C2_2  and  O1_3 
REMARK    2  A    between atoms: C2_2  and  C10_20 
REMARK    3  A    between atoms: C2_2  and  P2_23 
REMARK    4  A    between atoms: O1_3  and  C3_4 
REMARK    5  A    between atoms: C5_6  and  C6_7 
REMARK    6  A    between atoms: C8_11  and  O4_12 
REMARK    7  A    between atoms: O4_12  and  P1_13 
REMARK    8  A    between atoms: C9_17  and  O8_18 
ROOT
HETATM    1  C3  UNL     1      57.838   7.924  28.663  1.00  0.00     0.160 C 
HETATM    2  C4  UNL     1      57.706   6.548  27.987  1.00  0.00     0.080 C 
HETATM    3  C5  UNL     1      58.771   6.569  26.930  1.00  0.00     0.020 C 
HETATM    4  C7  UNL     1      59.898   7.185  27.151  1.00  0.00     0.022 C 
HETATM    5  C8  UNL     1      60.255   7.909  28.413  1.00  0.00     0.190 C 
HETATM    6  C9  UNL     1      59.163   7.751  29.443  1.00  0.00     0.180 C 
ENDROOT
BRANCH   1   7
HETATM    7  O1  UNL     1      56.831   8.209  29.496  1.00  0.00    -0.349 OA
BRANCH   7   8
HETATM    8  C2  UNL     1      56.048   9.332  29.278  1.00  0.00     0.259 C 
HETATM    9  C1  UNL     1      55.725   9.863  30.689  1.00  0.00     0.074 C 
BRANCH   8  10
HETATM   10  C10 UNL     1      56.827  10.447  28.648  1.00  0.00     0.223 C 
HETATM   11  O9  UNL     1      56.622  10.882  27.490  1.00  0.00    -0.645 OA
HETATM   12  O10 UNL     1      57.859  11.080  29.345  1.00  0.00    -0.645 OA
ENDBRANCH   8  10
BRANCH   8  13
HETATM   13  P2  UNL     1      54.635   9.115  28.289  1.00  0.00     0.306 P 
HETATM   14  O11 UNL     1      53.662   8.656  29.374  1.00  0.00    -0.637 OA
HETATM   15  O12 UNL     1      53.621  10.412  27.977  1.00  0.00    -0.637 OA
HETATM   16  O13 UNL     1      54.378   7.677  27.489  1.00  0.00    -0.637 OA
ENDBRANCH   8  13
ENDBRANCH   7   8
ENDBRANCH   1   7
BRANCH   6  17
HETATM   17  O8  UNL     1      59.306   8.647  30.463  1.00  0.00    -0.390 OA
ATOM     18  H8  UNL     1      59.007   8.312  31.299  1.00  0.00     0.210 HD
ENDBRANCH   6  17
BRANCH   3  19
HETATM   19  C6  UNL     1      58.497   5.886  25.678  1.00  0.00     0.205 C 
HETATM   20  O2  UNL     1      57.451   5.234  25.508  1.00  0.00    -0.644 OA
HETATM   21  O3  UNL     1      59.387   5.928  24.608  1.00  0.00    -0.644 OA
ENDBRANCH   3  19
BRANCH   5  22
HETATM   22  O4  UNL     1      60.397   9.245  28.152  1.00  0.00    -0.271 OA
BRANCH  22  23
HETATM   23  P1  UNL     1      60.740   9.439  26.523  1.00  0.00     0.422 P 
HETATM   24  O5  UNL     1      61.062  10.892  26.804  1.00  0.00    -0.617 OA
HETATM   25  O6  UNL     1      62.177   8.984  25.917  1.00  0.00    -0.617 OA
HETATM   26  O7  UNL     1      59.467   9.814  25.525  1.00  0.00    -0.617 OA
ENDBRANCH  22  23
ENDBRANCH   5  22
TORSDOF 8
ENDMDL
