MODEL 1
REMARK VINA RESULT: -10.145684999      0.000      0.000
REMARK  8 active torsions:
REMARK  status: ('A' for Active; 'I' for Inactive)
REMARK    1  A    between atoms: C2_2  and  O1_3 
REMARK    2  A    between atoms: C2_2  and  C10_20 
REMARK    3  A    between atoms: C2_2  and  P2_23 
REMARK    4  A    between atoms: O1_3  and  C3_4 
REMARK    5  A    between atoms: C5_6  and  C6_7 
REMARK    6  A    between atoms: C8_11  and  O4_12 
REMARK    7  A    between atoms: O4_12  and  P1_13 
REMARK    8  A    between atoms: C9_17  and  O8_18 
ROOT
HETATM    1  C3  UNL     1      57.412  10.177  28.880  1.00  0.00     0.160 C 
HETATM    2  C4  UNL     1      57.165  11.695  28.817  1.00  0.00     0.080 C 
HETATM    3  C5  UNL     1      55.911  11.816  28.002  1.00  0.00     0.020 C 
HETATM    4  C7  UNL     1      54.977  10.912  28.103  1.00  0.00     0.022 C 
HETATM    5  C8  UNL     1      55.030   9.708  28.992  1.00  0.00     0.190 C 
HETATM    6  C9  UNL     1      56.283   9.726  29.836  1.00  0.00     0.180 C 
ENDROOT
BRANCH   1   7
HETATM    7  O1  UNL     1      58.611   9.851  29.376  1.00  0.00    -0.349 OA
BRANCH   7   8
HETATM    8  C2  UNL     1      59.336   8.814  28.809  1.00  0.00     0.259 C 
HETATM    9  C1  UNL     1      58.303   8.019  27.985  1.00  0.00     0.074 C 
BRANCH   8  10
HETATM   10  C10 UNL     1      60.310   9.305  27.781  1.00  0.00     0.223 C 
HETATM   11  O9  UNL     1      61.478   9.679  28.040  1.00  0.00    -0.645 OA
HETATM   12  O10 UNL     1      59.951   9.373  26.433  1.00  0.00    -0.645 OA
ENDBRANCH   8  10
BRANCH   8  13
HETATM   13  P2  UNL     1      60.252   7.817  29.900  1.00  0.00     0.306 P 
HETATM   14  O11 UNL     1      59.092   7.212  30.690  1.00  0.00    -0.637 OA
HETATM   15  O12 UNL     1      60.705   6.269  29.446  1.00  0.00    -0.637 OA
HETATM   16  O13 UNL     1      60.851   8.451  31.319  1.00  0.00    -0.637 OA
ENDBRANCH   8  13
ENDBRANCH   7   8
ENDBRANCH   1   7
BRANCH   6  17
HETATM   17  O8  UNL     1      56.516   8.508  30.406  1.00  0.00    -0.390 OA
ATOM     18  H8  UNL     1      56.423   8.515  31.351  1.00  0.00     0.210 HD
ENDBRANCH   6  17
BRANCH   3  19
HETATM   19  C6  UNL     1      55.786  12.960  27.116  1.00  0.00     0.205 C 
HETATM   20  O2  UNL     1      56.567  13.926  27.188  1.00  0.00    -0.644 OA
HETATM   21  O3  UNL     1      54.791  13.032  26.145  1.00  0.00    -0.644 OA
ENDBRANCH   3  19
BRANCH   5  22
HETATM   22  O4  UNL     1      55.055   8.573  28.228  1.00  0.00    -0.271 OA
BRANCH  22  23
HETATM   23  P1  UNL     1      53.478   8.071  27.964  1.00  0.00     0.422 P 
HETATM   24  O5  UNL     1      54.020   6.953  27.096  1.00  0.00    -0.617 OA
HETATM   25  O6  UNL     1      52.698   7.167  29.066  1.00  0.00    -0.617 OA
HETATM   26  O7  UNL     1      52.662   8.781  26.705  1.00  0.00    -0.617 OA
ENDBRANCH  22  23
ENDBRANCH   5  22
TORSDOF 8
ENDMDL
