MODEL 5
REMARK VINA RESULT: -7.343860812      2.331      6.047
REMARK  8 active torsions:
REMARK  status: ('A' for Active; 'I' for Inactive)
REMARK    1  A    between atoms: C2_2  and  O1_3 
REMARK    2  A    between atoms: C2_2  and  C10_20 
REMARK    3  A    between atoms: C2_2  and  P2_23 
REMARK    4  A    between atoms: O1_3  and  C3_4 
REMARK    5  A    between atoms: C5_6  and  C6_7 
REMARK    6  A    between atoms: C8_11  and  O4_12 
REMARK    7  A    between atoms: O4_12  and  P1_13 
REMARK    8  A    between atoms: C9_17  and  O8_18 
ROOT
HETATM    1  C3  UNL     1      58.770   9.601  27.710  1.00  0.00     0.160 C 
HETATM    2  C4  UNL     1      59.737   9.449  28.898  1.00  0.00     0.080 C 
HETATM    3  C5  UNL     1      60.233   8.038  28.772  1.00  0.00     0.020 C 
HETATM    4  C7  UNL     1      60.412   7.512  27.593  1.00  0.00     0.022 C 
HETATM    5  C8  UNL     1      60.161   8.205  26.288  1.00  0.00     0.190 C 
HETATM    6  C9  UNL     1      59.757   9.641  26.520  1.00  0.00     0.180 C 
ENDROOT
BRANCH   1   7
HETATM    7  O1  UNL     1      58.039  10.720  27.757  1.00  0.00    -0.349 OA
BRANCH   7   8
HETATM    8  C2  UNL     1      56.898  10.770  28.543  1.00  0.00     0.259 C 
HETATM    9  C1  UNL     1      57.290  11.652  29.745  1.00  0.00     0.074 C 
BRANCH   8  10
HETATM   10  C10 UNL     1      55.793  11.537  27.882  1.00  0.00     0.223 C 
HETATM   11  O9  UNL     1      54.595  11.169  27.863  1.00  0.00    -0.645 OA
HETATM   12  O10 UNL     1      56.053  12.744  27.230  1.00  0.00    -0.645 OA
ENDBRANCH   8  10
BRANCH   8  13
HETATM   13  P2  UNL     1      56.210   9.244  29.012  1.00  0.00     0.306 P 
HETATM   14  O11 UNL     1      55.327   9.731  30.160  1.00  0.00    -0.637 OA
HETATM   15  O12 UNL     1      54.835   8.670  28.245  1.00  0.00    -0.637 OA
HETATM   16  O13 UNL     1      57.009   8.252  30.085  1.00  0.00    -0.637 OA
ENDBRANCH   8  13
ENDBRANCH   7   8
ENDBRANCH   1   7
BRANCH   6  17
HETATM   17  O8  UNL     1      59.219  10.194  25.394  1.00  0.00    -0.390 OA
ATOM     18  H8  UNL     1      59.855  10.323  24.701  1.00  0.00     0.210 HD
ENDBRANCH   6  17
BRANCH   3  19
HETATM   19  C6  UNL     1      60.500   7.302  29.995  1.00  0.00     0.205 C 
HETATM   20  O2  UNL     1      60.609   6.063  29.997  1.00  0.00    -0.644 OA
HETATM   21  O3  UNL     1      60.647   7.944  31.221  1.00  0.00    -0.644 OA
ENDBRANCH   3  19
BRANCH   5  22
HETATM   22  O4  UNL     1      59.138   7.582  25.627  1.00  0.00    -0.271 OA
BRANCH  22  23
HETATM   23  P1  UNL     1      59.704   6.128  25.014  1.00  0.00     0.422 P 
HETATM   24  O5  UNL     1      59.439   6.658  23.619  1.00  0.00    -0.617 OA
HETATM   25  O6  UNL     1      61.298   5.850  24.870  1.00  0.00    -0.617 OA
HETATM   26  O7  UNL     1      58.600   4.897  24.858  1.00  0.00    -0.617 OA
ENDBRANCH  22  23
ENDBRANCH   5  22
TORSDOF 8
ENDMDL
