MODEL 2
REMARK VINA RESULT: -9.745172256      1.025      1.477
REMARK  8 active torsions:
REMARK  status: ('A' for Active; 'I' for Inactive)
REMARK    1  A    between atoms: C2_2  and  O1_3 
REMARK    2  A    between atoms: C2_2  and  C10_20 
REMARK    3  A    between atoms: C2_2  and  P2_23 
REMARK    4  A    between atoms: O1_3  and  C3_4 
REMARK    5  A    between atoms: C5_6  and  C6_7 
REMARK    6  A    between atoms: C8_11  and  O4_12 
REMARK    7  A    between atoms: O4_12  and  P1_13 
REMARK    8  A    between atoms: C9_17  and  O8_18 
ROOT
HETATM    1  C3  UNL     1      57.444  10.131  28.684  1.00  0.00     0.160 C 
HETATM    2  C4  UNL     1      57.166  11.645  28.701  1.00  0.00     0.080 C 
HETATM    3  C5  UNL     1      55.832  11.768  28.024  1.00  0.00     0.020 C 
HETATM    4  C7  UNL     1      54.930  10.842  28.188  1.00  0.00     0.022 C 
HETATM    5  C8  UNL     1      55.095   9.609  29.024  1.00  0.00     0.190 C 
HETATM    6  C9  UNL     1      56.428   9.625  29.734  1.00  0.00     0.180 C 
ENDROOT
BRANCH   1   7
HETATM    7  O1  UNL     1      58.693   9.814  29.042  1.00  0.00    -0.349 OA
BRANCH   7   8
HETATM    8  C2  UNL     1      59.514   9.129  28.159  1.00  0.00     0.259 C 
HETATM    9  C1  UNL     1      59.335   9.859  26.813  1.00  0.00     0.074 C 
BRANCH   8  10
HETATM   10  C10 UNL     1      60.966   9.319  28.478  1.00  0.00     0.223 C 
HETATM   11  O9  UNL     1      61.839   9.622  27.631  1.00  0.00    -0.645 OA
HETATM   12  O10 UNL     1      61.436   9.163  29.784  1.00  0.00    -0.645 OA
ENDBRANCH   8  10
BRANCH   8  13
HETATM   13  P2  UNL     1      59.269   7.411  28.043  1.00  0.00     0.306 P 
HETATM   14  O11 UNL     1      59.004   7.114  29.518  1.00  0.00    -0.637 OA
HETATM   15  O12 UNL     1      57.751   6.801  27.682  1.00  0.00    -0.637 OA
HETATM   16  O13 UNL     1      60.568   6.369  28.095  1.00  0.00    -0.637 OA
ENDBRANCH   8  13
ENDBRANCH   7   8
ENDBRANCH   1   7
BRANCH   6  17
HETATM   17  O8  UNL     1      56.740   8.394  30.234  1.00  0.00    -0.390 OA
ATOM     18  H8  UNL     1      56.828   8.386  31.179  1.00  0.00     0.210 HD
ENDBRANCH   6  17
BRANCH   3  19
HETATM   19  C6  UNL     1      55.597  12.938  27.197  1.00  0.00     0.205 C 
HETATM   20  O2  UNL     1      56.370  13.913  27.216  1.00  0.00    -0.644 OA
HETATM   21  O3  UNL     1      54.499  13.027  26.345  1.00  0.00    -0.644 OA
ENDBRANCH   3  19
BRANCH   5  22
HETATM   22  O4  UNL     1      55.060   8.502  28.221  1.00  0.00    -0.271 OA
BRANCH  22  23
HETATM   23  P1  UNL     1      53.461   8.051  28.000  1.00  0.00     0.422 P 
HETATM   24  O5  UNL     1      53.945   6.901  27.140  1.00  0.00    -0.617 OA
HETATM   25  O6  UNL     1      52.675   7.193  29.134  1.00  0.00    -0.617 OA
HETATM   26  O7  UNL     1      52.643   8.769  26.746  1.00  0.00    -0.617 OA
ENDBRANCH  22  23
ENDBRANCH   5  22
TORSDOF 8
ENDMDL
