MODEL 7
REMARK VINA RESULT: -6.820485791      2.425      6.294
REMARK  8 active torsions:
REMARK  status: ('A' for Active; 'I' for Inactive)
REMARK    1  A    between atoms: C2_2  and  O1_3 
REMARK    2  A    between atoms: C2_2  and  C10_20 
REMARK    3  A    between atoms: C2_2  and  P2_23 
REMARK    4  A    between atoms: O1_3  and  C3_4 
REMARK    5  A    between atoms: C5_6  and  C6_7 
REMARK    6  A    between atoms: C8_11  and  O4_12 
REMARK    7  A    between atoms: O4_12  and  P1_13 
REMARK    8  A    between atoms: C9_17  and  O8_18 
ROOT
HETATM    1  C3  UNL     1      58.142   8.160  28.926  1.00  0.00     0.160 C 
HETATM    2  C4  UNL     1      58.141   6.683  28.493  1.00  0.00     0.080 C 
HETATM    3  C5  UNL     1      59.178   6.630  27.410  1.00  0.00     0.020 C 
HETATM    4  C7  UNL     1      60.239   7.384  27.485  1.00  0.00     0.022 C 
HETATM    5  C8  UNL     1      60.543   8.343  28.595  1.00  0.00     0.190 C 
HETATM    6  C9  UNL     1      59.493   8.254  29.675  1.00  0.00     0.180 C 
ENDROOT
BRANCH   1   7
HETATM    7  O1  UNL     1      57.128   8.480  29.736  1.00  0.00    -0.349 OA
BRANCH   7   8
HETATM    8  C2  UNL     1      56.074   9.243  29.257  1.00  0.00     0.259 C 
HETATM    9  C1  UNL     1      55.568   8.477  28.018  1.00  0.00     0.074 C 
BRANCH   8  10
HETATM   10  C10 UNL     1      54.900   9.229  30.189  1.00  0.00     0.223 C 
HETATM   11  O9  UNL     1      54.972   9.476  31.416  1.00  0.00    -0.645 OA
HETATM   12  O10 UNL     1      53.620   8.927  29.720  1.00  0.00    -0.645 OA
ENDBRANCH   8  10
BRANCH   8  13
HETATM   13  P2  UNL     1      56.409  10.919  28.934  1.00  0.00     0.306 P 
HETATM   14  O11 UNL     1      57.361  10.741  27.752  1.00  0.00    -0.637 OA
HETATM   15  O12 UNL     1      55.392  11.803  27.938  1.00  0.00    -0.637 OA
HETATM   16  O13 UNL     1      57.623  11.709  29.756  1.00  0.00    -0.637 OA
ENDBRANCH   8  13
ENDBRANCH   7   8
ENDBRANCH   1   7
BRANCH   6  17
HETATM   17  O8  UNL     1      59.561   9.320  30.525  1.00  0.00    -0.390 OA
ATOM     18  H8  UNL     1      58.813   9.900  30.458  1.00  0.00     0.210 HD
ENDBRANCH   6  17
BRANCH   3  19
HETATM   19  C6  UNL     1      58.953   5.721  26.300  1.00  0.00     0.205 C 
HETATM   20  O2  UNL     1      59.743   4.794  26.048  1.00  0.00    -0.644 OA
HETATM   21  O3  UNL     1      57.844   5.841  25.466  1.00  0.00    -0.644 OA
ENDBRANCH   3  19
BRANCH   5  22
HETATM   22  O4  UNL     1      60.540   9.623  28.109  1.00  0.00    -0.271 OA
BRANCH  22  23
HETATM   23  P1  UNL     1      60.810   9.569  26.456  1.00  0.00     0.422 P 
HETATM   24  O5  UNL     1      61.024  11.069  26.482  1.00  0.00    -0.617 OA
HETATM   25  O6  UNL     1      62.256   9.126  25.864  1.00  0.00    -0.617 OA
HETATM   26  O7  UNL     1      59.477   9.682  25.472  1.00  0.00    -0.617 OA
ENDBRANCH  22  23
ENDBRANCH   5  22
TORSDOF 8
ENDMDL
