MODEL 1
REMARK VINA RESULT: -14.458060622      0.000      0.000
REMARK  3 active torsions:
REMARK  status: ('A' for Active; 'I' for Inactive)
REMARK    1  A    between atoms: C2_2  and  C11_13 
REMARK    2  A    between atoms: C3_3  and  C4_4 
REMARK    3  A    between atoms: C7_7  and  C8_8 
ROOT
HETATM    1  C11 UNL     1      43.842  21.668 100.063  1.00  0.00    -0.030 A 
HETATM    2  C12 UNL     1      45.023  22.269 100.434  1.00  0.00     0.012 A 
HETATM    3  C13 UNL     1      46.236  21.956  99.845  1.00  0.00     0.009 A 
HETATM    4  C14 UNL     1      46.243  20.995  98.841  1.00  0.00    -0.043 A 
HETATM    5  C15 UNL     1      45.099  20.364  98.433  1.00  0.00    -0.042 A 
HETATM    6  C16 UNL     1      43.893  20.702  99.046  1.00  0.00     0.020 A 
HETATM    7  C17 UNL     1      45.067  19.327  97.372  1.00  0.00    -0.020 C 
HETATM    8  C18 UNL     1      44.030  19.592  96.319  1.00  0.00     0.020 C 
HETATM    9  C19 UNL     1      44.749  18.015  98.105  1.00  0.00     0.020 C 
HETATM   10  C20 UNL     1      46.402  19.152  96.716  1.00  0.00     0.015 C 
HETATM   11  C21 UNL     1      47.535  19.272  97.718  1.00  0.00     0.015 C 
HETATM   12  C22 UNL     1      47.549  20.675  98.209  1.00  0.00    -0.020 C 
HETATM   13  C23 UNL     1      47.772  21.680  97.097  1.00  0.00     0.020 C 
HETATM   14  C24 UNL     1      48.680  20.851  99.201  1.00  0.00     0.020 C 
ENDROOT
BRANCH   1  15
HETATM   15  C2  UNL     1      42.564  22.006 100.670  1.00  0.00    -0.051 C 
HETATM   16  C1  UNL     1      41.483  20.978 100.650  1.00  0.00     0.049 C 
HETATM   17  C3  UNL     1      42.325  23.166 101.221  1.00  0.00     0.019 C 
BRANCH  17  18
HETATM   18  C4  UNL     1      41.054  23.555 101.831  1.00  0.00    -0.036 A 
HETATM   19  C5  UNL     1      40.410  22.686 102.695  1.00  0.00     0.012 A 
HETATM   20  C6  UNL     1      39.210  23.044 103.310  1.00  0.00     0.019 A 
HETATM   21  C7  UNL     1      38.616  24.265 103.086  1.00  0.00     0.040 A 
HETATM   22  C9  UNL     1      39.260  25.134 102.221  1.00  0.00     0.019 A 
HETATM   23  C10 UNL     1      40.447  24.772 101.617  1.00  0.00     0.012 A 
BRANCH  21  24
HETATM   24  C8  UNL     1      37.355  24.659 103.717  1.00  0.00     0.209 C 
HETATM   25  O1  UNL     1      36.948  25.867 103.632  1.00  0.00    -0.644 OA
HETATM   26  O2  UNL     1      36.569  23.771 104.413  1.00  0.00    -0.644 OA
ENDBRANCH  21  24
ENDBRANCH  17  18
ENDBRANCH   1  15
TORSDOF 3
ENDMDL
