MODEL 7
REMARK VINA RESULT: -12.952157293      0.704      1.169
REMARK  3 active torsions:
REMARK  status: ('A' for Active; 'I' for Inactive)
REMARK    1  A    between atoms: C2_2  and  C11_13 
REMARK    2  A    between atoms: C3_3  and  C4_4 
REMARK    3  A    between atoms: C7_7  and  C8_8 
ROOT
HETATM    1  C11 UNL     1      44.461  22.052 100.077  1.00  0.00    -0.030 A 
HETATM    2  C12 UNL     1      45.789  22.332 100.307  1.00  0.00     0.012 A 
HETATM    3  C13 UNL     1      46.814  21.693  99.632  1.00  0.00     0.009 A 
HETATM    4  C14 UNL     1      46.471  20.732  98.687  1.00  0.00    -0.043 A 
HETATM    5  C15 UNL     1      45.168  20.413  98.418  1.00  0.00    -0.042 A 
HETATM    6  C16 UNL     1      44.158  21.076  99.115  1.00  0.00     0.020 A 
HETATM    7  C17 UNL     1      44.762  19.388  97.425  1.00  0.00    -0.020 C 
HETATM    8  C18 UNL     1      43.729  19.884  96.454  1.00  0.00     0.020 C 
HETATM    9  C19 UNL     1      44.189  18.230  98.256  1.00  0.00     0.020 C 
HETATM   10  C20 UNL     1      45.934  18.847  96.664  1.00  0.00     0.015 C 
HETATM   11  C21 UNL     1      47.153  18.696  97.554  1.00  0.00     0.015 C 
HETATM   12  C22 UNL     1      47.580  20.060  97.962  1.00  0.00    -0.020 C 
HETATM   13  C23 UNL     1      47.944  20.934  96.780  1.00  0.00     0.020 C 
HETATM   14  C24 UNL     1      48.810  19.963  98.839  1.00  0.00     0.020 C 
ENDROOT
BRANCH   1  15
HETATM   15  C2  UNL     1      43.382  22.735 100.774  1.00  0.00    -0.051 C 
HETATM   16  C1  UNL     1      43.733  23.886 101.657  1.00  0.00     0.049 C 
HETATM   17  C3  UNL     1      42.130  22.380 100.663  1.00  0.00     0.019 C 
BRANCH  17  18
HETATM   18  C4  UNL     1      41.014  23.028 101.352  1.00  0.00    -0.036 A 
HETATM   19  C5  UNL     1      40.285  22.325 102.296  1.00  0.00     0.012 A 
HETATM   20  C6  UNL     1      39.233  22.929 102.986  1.00  0.00     0.019 A 
HETATM   21  C7  UNL     1      38.875  24.238 102.760  1.00  0.00     0.040 A 
HETATM   22  C9  UNL     1      39.604  24.941 101.815  1.00  0.00     0.019 A 
HETATM   23  C10 UNL     1      40.643  24.337 101.138  1.00  0.00     0.012 A 
BRANCH  21  24
HETATM   24  C8  UNL     1      37.772  24.890 103.469  1.00  0.00     0.209 C 
HETATM   25  O1  UNL     1      36.883  24.185 104.054  1.00  0.00    -0.644 OA
HETATM   26  O2  UNL     1      37.646  26.257 103.537  1.00  0.00    -0.644 OA
ENDBRANCH  21  24
ENDBRANCH  17  18
ENDBRANCH   1  15
TORSDOF 3
ENDMDL
