MODEL 2
REMARK VINA RESULT: -14.437788757      0.312      1.147
REMARK  3 active torsions:
REMARK  status: ('A' for Active; 'I' for Inactive)
REMARK    1  A    between atoms: C2_2  and  C11_13 
REMARK    2  A    between atoms: C3_3  and  C4_4 
REMARK    3  A    between atoms: C7_7  and  C8_8 
ROOT
HETATM    1  C11 UNL     1      43.947  21.666  99.999  1.00  0.00    -0.030 A 
HETATM    2  C12 UNL     1      45.096  22.381 100.252  1.00  0.00     0.012 A 
HETATM    3  C13 UNL     1      46.317  22.055  99.688  1.00  0.00     0.009 A 
HETATM    4  C14 UNL     1      46.368  20.959  98.834  1.00  0.00    -0.043 A 
HETATM    5  C15 UNL     1      45.257  20.212  98.547  1.00  0.00    -0.042 A 
HETATM    6  C16 UNL     1      44.041  20.567  99.131  1.00  0.00     0.020 A 
HETATM    7  C17 UNL     1      45.273  19.031  97.649  1.00  0.00    -0.020 C 
HETATM    8  C18 UNL     1      44.207  19.079  96.592  1.00  0.00     0.020 C 
HETATM    9  C19 UNL     1      45.043  17.824  98.571  1.00  0.00     0.020 C 
HETATM   10  C20 UNL     1      46.607  18.837  96.996  1.00  0.00     0.015 C 
HETATM   11  C21 UNL     1      47.744  19.167  97.944  1.00  0.00     0.015 C 
HETATM   12  C22 UNL     1      47.682  20.625  98.227  1.00  0.00    -0.020 C 
HETATM   13  C23 UNL     1      47.830  21.468  96.977  1.00  0.00     0.020 C 
HETATM   14  C24 UNL     1      48.813  21.008  99.157  1.00  0.00     0.020 C 
ENDROOT
BRANCH   1  15
HETATM   15  C2  UNL     1      42.660  22.016 100.578  1.00  0.00    -0.051 C 
HETATM   16  C1  UNL     1      41.529  21.057 100.409  1.00  0.00     0.049 C 
HETATM   17  C3  UNL     1      42.454  23.130 101.229  1.00  0.00     0.019 C 
BRANCH  17  18
HETATM   18  C4  UNL     1      41.175  23.529 101.817  1.00  0.00    -0.036 A 
HETATM   19  C5  UNL     1      40.584  24.721 101.435  1.00  0.00     0.012 A 
HETATM   20  C6  UNL     1      39.352  25.111 101.962  1.00  0.00     0.019 A 
HETATM   21  C7  UNL     1      38.677  24.338 102.878  1.00  0.00     0.040 A 
HETATM   22  C9  UNL     1      39.270  23.146 103.260  1.00  0.00     0.019 A 
HETATM   23  C10 UNL     1      40.488  22.767 102.734  1.00  0.00     0.012 A 
BRANCH  21  24
HETATM   24  C8  UNL     1      37.386  24.730 103.447  1.00  0.00     0.209 C 
HETATM   25  O1  UNL     1      36.514  23.840 103.728  1.00  0.00    -0.644 OA
HETATM   26  O2  UNL     1      37.060  26.041 103.700  1.00  0.00    -0.644 OA
ENDBRANCH  21  24
ENDBRANCH  17  18
ENDBRANCH   1  15
TORSDOF 3
ENDMDL
