MODEL 5
REMARK VINA RESULT: -8.840346365      5.528     10.047
REMARK  11 active torsions:
REMARK  status: ('A' for Active; 'I' for Inactive)
REMARK    1  A    between atoms: O1_2  and  C2_3 
REMARK    2  A    between atoms: C2_3  and  C3_5 
REMARK    3  A    between atoms: C4_6  and  O3_7 
REMARK    4  A    between atoms: C8_12  and  O4_13 
REMARK    5  A    between atoms: O4_13  and  C9_14 
REMARK    6  A    between atoms: C9_14  and  C10_15 
REMARK    7  A    between atoms: C11_16  and  C12_17 
REMARK    8  A    between atoms: C16_21  and  C17_22 
REMARK    9  A    between atoms: C18_26  and  C19_27 
REMARK   10  A    between atoms: C20_30  and  C21_31 
REMARK   11  A    between atoms: C21_31  and  O8_32 
ROOT
HETATM    1  C12 UNL     1      32.869  31.765  16.773  1.00  0.00    -0.036 A 
HETATM    2  C13 UNL     1      31.796  32.586  16.991  1.00  0.00     0.011 A 
HETATM    3  C14 UNL     1      31.254  32.666  18.254  1.00  0.00     0.002 A 
HETATM    4  C15 UNL     1      31.797  31.911  19.314  1.00  0.00     0.014 A 
HETATM    5  C16 UNL     1      32.865  31.083  19.140  1.00  0.00     0.001 A 
HETATM    6  C22 UNL     1      33.364  31.052  17.828  1.00  0.00     0.025 A 
ENDROOT
BRANCH   1   7
HETATM    7  C11 UNL     1      33.469  31.657  15.443  1.00  0.00     0.009 C 
HETATM    8  C10 UNL     1      33.276  32.555  14.520  1.00  0.00     0.000 C 
BRANCH   8   9
HETATM    9  C9  UNL     1      33.937  32.353  13.181  1.00  0.00     0.203 C 
BRANCH   9  10
HETATM   10  O4  UNL     1      35.253  32.719  13.116  1.00  0.00    -0.346 OA
BRANCH  10  11
HETATM   11  C8  UNL     1      35.946  33.799  13.535  1.00  0.00     0.088 A 
HETATM   12  C3  UNL     1      36.980  33.564  14.468  1.00  0.00     0.105 A 
HETATM   13  C4  UNL     1      37.684  34.657  14.897  1.00  0.00     0.084 A 
HETATM   14  C5  UNL     1      37.378  35.952  14.418  1.00  0.00     0.038 A 
HETATM   15  C6  UNL     1      36.382  36.162  13.521  1.00  0.00     0.005 A 
HETATM   16  C7  UNL     1      35.663  35.072  13.081  1.00  0.00     0.038 A 
BRANCH  12  17
HETATM   17  C2  UNL     1      37.222  32.203  14.905  1.00  0.00     0.298 C 
HETATM   18  O2  UNL     1      36.778  31.861  16.055  1.00  0.00    -0.259 OA
BRANCH  17  19
HETATM   19  O1  UNL     1      37.879  31.237  14.210  1.00  0.00    -0.322 OA
HETATM   20  C1  UNL     1      38.745  31.476  13.117  1.00  0.00     0.213 C 
ENDBRANCH  17  19
ENDBRANCH  12  17
BRANCH  13  21
HETATM   21  O3  UNL     1      38.716  34.549  15.808  1.00  0.00    -0.360 OA
ATOM     22  H3  UNL     1      39.605  34.802  15.591  1.00  0.00     0.217 HD
ENDBRANCH  13  21
ENDBRANCH  10  11
ENDBRANCH   9  10
ENDBRANCH   8   9
ENDBRANCH   1   7
BRANCH   5  23
HETATM   23  C17 UNL     1      33.502  30.256  20.150  1.00  0.00     0.120 A 
HETATM   24  O5  UNL     1      32.832  29.335  20.848  1.00  0.00    -0.236 OA
HETATM   25  N1  UNL     1      33.561  28.732  21.665  1.00  0.00    -0.253 N 
HETATM   26  C18 UNL     1      34.863  29.205  21.603  1.00  0.00     0.142 A 
ATOM     27  H1  UNL     1      33.242  27.994  22.292  1.00  0.00     0.195 HD
HETATM   28  C20 UNL     1      34.785  30.181  20.620  1.00  0.00     0.037 A 
BRANCH  26  29
HETATM   29  C19 UNL     1      35.939  28.718  22.414  1.00  0.00     0.229 C 
HETATM   30  O6  UNL     1      35.823  27.508  22.852  1.00  0.00    -0.643 OA
HETATM   31  O7  UNL     1      37.080  29.340  22.800  1.00  0.00    -0.643 OA
ENDBRANCH  26  29
BRANCH  28  32
HETATM   32  C21 UNL     1      35.897  31.015  20.153  1.00  0.00     0.208 C 
BRANCH  32  33
HETATM   33  O8  UNL     1      36.486  30.543  18.989  1.00  0.00    -0.396 OA
ATOM     34  H8  UNL     1      36.911  29.700  19.097  1.00  0.00     0.209 HD
ENDBRANCH  32  33
ENDBRANCH  28  32
ENDBRANCH   5  23
TORSDOF 11
ENDMDL
