MODEL 1
REMARK VINA RESULT: -10.137100396      0.000      0.000
REMARK  11 active torsions:
REMARK  status: ('A' for Active; 'I' for Inactive)
REMARK    1  A    between atoms: O1_2  and  C2_3 
REMARK    2  A    between atoms: C2_3  and  C3_5 
REMARK    3  A    between atoms: C4_6  and  O3_7 
REMARK    4  A    between atoms: C8_12  and  O4_13 
REMARK    5  A    between atoms: O4_13  and  C9_14 
REMARK    6  A    between atoms: C9_14  and  C10_15 
REMARK    7  A    between atoms: C11_16  and  C12_17 
REMARK    8  A    between atoms: C16_21  and  C17_22 
REMARK    9  A    between atoms: C18_26  and  C19_27 
REMARK   10  A    between atoms: C20_30  and  C21_31 
REMARK   11  A    between atoms: C21_31  and  O8_32 
ROOT
HETATM    1  C12 UNL     1      30.213  31.345  18.670  1.00  0.00    -0.036 A 
HETATM    2  C13 UNL     1      30.732  32.191  17.728  1.00  0.00     0.011 A 
HETATM    3  C14 UNL     1      32.096  32.359  17.648  1.00  0.00     0.002 A 
HETATM    4  C15 UNL     1      32.953  31.666  18.528  1.00  0.00     0.014 A 
HETATM    5  C16 UNL     1      32.479  30.814  19.480  1.00  0.00     0.001 A 
HETATM    6  C22 UNL     1      31.080  30.693  19.502  1.00  0.00     0.025 A 
ENDROOT
BRANCH   1   7
HETATM    7  C11 UNL     1      28.769  31.145  18.781  1.00  0.00     0.009 C 
HETATM    8  C10 UNL     1      28.211  30.698  19.870  1.00  0.00     0.000 C 
BRANCH   8   9
HETATM    9  C9  UNL     1      26.715  30.525  19.885  1.00  0.00     0.203 C 
BRANCH   9  10
HETATM   10  O4  UNL     1      26.225  29.747  20.896  1.00  0.00    -0.346 OA
BRANCH  10  11
HETATM   11  C8  UNL     1      25.052  29.708  21.564  1.00  0.00     0.088 A 
HETATM   12  C3  UNL     1      24.396  28.459  21.620  1.00  0.00     0.105 A 
HETATM   13  C4  UNL     1      23.204  28.417  22.294  1.00  0.00     0.084 A 
HETATM   14  C5  UNL     1      22.672  29.578  22.899  1.00  0.00     0.038 A 
HETATM   15  C6  UNL     1      23.313  30.772  22.838  1.00  0.00     0.005 A 
HETATM   16  C7  UNL     1      24.513  30.831  22.161  1.00  0.00     0.038 A 
BRANCH  12  17
HETATM   17  C2  UNL     1      25.016  27.323  20.969  1.00  0.00     0.298 C 
HETATM   18  O2  UNL     1      25.469  26.386  21.714  1.00  0.00    -0.259 OA
BRANCH  17  19
HETATM   19  O1  UNL     1      25.169  27.142  19.630  1.00  0.00    -0.322 OA
HETATM   20  C1  UNL     1      26.288  26.525  19.021  1.00  0.00     0.213 C 
ENDBRANCH  17  19
ENDBRANCH  12  17
BRANCH  13  21
HETATM   21  O3  UNL     1      22.475  27.251  22.414  1.00  0.00    -0.360 OA
ATOM     22  H3  UNL     1      21.690  27.096  21.903  1.00  0.00     0.217 HD
ENDBRANCH  13  21
ENDBRANCH  10  11
ENDBRANCH   9  10
ENDBRANCH   8   9
ENDBRANCH   1   7
BRANCH   5  23
HETATM   23  C17 UNL     1      33.262  30.055  20.440  1.00  0.00     0.120 A 
HETATM   24  O5  UNL     1      32.720  29.123  21.227  1.00  0.00    -0.236 OA
HETATM   25  N1  UNL     1      33.561  28.587  21.981  1.00  0.00    -0.253 N 
HETATM   26  C18 UNL     1      34.821  29.127  21.772  1.00  0.00     0.142 A 
ATOM     27  H1  UNL     1      33.350  27.852  22.657  1.00  0.00     0.195 HD
HETATM   28  C20 UNL     1      34.588  30.065  20.777  1.00  0.00     0.037 A 
BRANCH  26  29
HETATM   29  C19 UNL     1      36.000  28.725  22.480  1.00  0.00     0.229 C 
HETATM   30  O6  UNL     1      35.980  27.541  22.998  1.00  0.00    -0.643 OA
HETATM   31  O7  UNL     1      37.153  29.405  22.695  1.00  0.00    -0.643 OA
ENDBRANCH  26  29
BRANCH  28  32
HETATM   32  C21 UNL     1      35.598  30.942  20.175  1.00  0.00     0.208 C 
BRANCH  32  33
HETATM   33  O8  UNL     1      36.323  30.331  19.162  1.00  0.00    -0.396 OA
ATOM     34  H8  UNL     1      37.260  30.474  19.231  1.00  0.00     0.209 HD
ENDBRANCH  32  33
ENDBRANCH  28  32
ENDBRANCH   5  23
TORSDOF 11
ENDMDL
