MODEL 2
REMARK VINA RESULT: -9.419039310      0.963      1.124
REMARK  11 active torsions:
REMARK  status: ('A' for Active; 'I' for Inactive)
REMARK    1  A    between atoms: O1_2  and  C2_3 
REMARK    2  A    between atoms: C2_3  and  C3_5 
REMARK    3  A    between atoms: C4_6  and  O3_7 
REMARK    4  A    between atoms: C8_12  and  O4_13 
REMARK    5  A    between atoms: O4_13  and  C9_14 
REMARK    6  A    between atoms: C9_14  and  C10_15 
REMARK    7  A    between atoms: C11_16  and  C12_17 
REMARK    8  A    between atoms: C16_21  and  C17_22 
REMARK    9  A    between atoms: C18_26  and  C19_27 
REMARK   10  A    between atoms: C20_30  and  C21_31 
REMARK   11  A    between atoms: C21_31  and  O8_32 
ROOT
HETATM    1  C12 UNL     1      30.253  31.262  18.523  1.00  0.00    -0.036 A 
HETATM    2  C13 UNL     1      30.774  32.178  17.649  1.00  0.00     0.011 A 
HETATM    3  C14 UNL     1      32.128  32.427  17.657  1.00  0.00     0.002 A 
HETATM    4  C15 UNL     1      32.973  31.745  18.557  1.00  0.00     0.014 A 
HETATM    5  C16 UNL     1      32.497  30.826  19.443  1.00  0.00     0.001 A 
HETATM    6  C22 UNL     1      31.109  30.625  19.377  1.00  0.00     0.025 A 
ENDROOT
BRANCH   1   7
HETATM    7  C11 UNL     1      28.820  30.976  18.540  1.00  0.00     0.009 C 
HETATM    8  C10 UNL     1      28.289  30.046  17.798  1.00  0.00     0.000 C 
BRANCH   8   9
HETATM    9  C9  UNL     1      26.801  29.828  17.887  1.00  0.00     0.203 C 
BRANCH   9  10
HETATM   10  O4  UNL     1      26.389  28.993  18.889  1.00  0.00    -0.346 OA
BRANCH  10  11
HETATM   11  C8  UNL     1      25.581  29.143  19.959  1.00  0.00     0.088 A 
HETATM   12  C3  UNL     1      25.132  27.960  20.585  1.00  0.00     0.105 A 
HETATM   13  C4  UNL     1      24.310  28.108  21.670  1.00  0.00     0.084 A 
HETATM   14  C5  UNL     1      23.938  29.393  22.129  1.00  0.00     0.038 A 
HETATM   15  C6  UNL     1      24.377  30.521  21.518  1.00  0.00     0.005 A 
HETATM   16  C7  UNL     1      25.204  30.389  20.423  1.00  0.00     0.038 A 
BRANCH  12  17
HETATM   17  C2  UNL     1      25.563  26.686  20.045  1.00  0.00     0.298 C 
HETATM   18  O2  UNL     1      26.135  25.865  20.843  1.00  0.00    -0.259 OA
BRANCH  17  19
HETATM   19  O1  UNL     1      25.421  26.263  18.760  1.00  0.00    -0.322 OA
HETATM   20  C1  UNL     1      25.830  24.997  18.277  1.00  0.00     0.213 C 
ENDBRANCH  17  19
ENDBRANCH  12  17
BRANCH  13  21
HETATM   21  O3  UNL     1      23.810  27.022  22.360  1.00  0.00    -0.360 OA
ATOM     22  H3  UNL     1      23.720  26.168  21.955  1.00  0.00     0.217 HD
ENDBRANCH  13  21
ENDBRANCH  10  11
ENDBRANCH   9  10
ENDBRANCH   8   9
ENDBRANCH   1   7
BRANCH   5  23
HETATM   23  C17 UNL     1      33.267  30.071  20.416  1.00  0.00     0.120 A 
HETATM   24  O5  UNL     1      32.712  29.154  21.213  1.00  0.00    -0.236 OA
HETATM   25  N1  UNL     1      33.545  28.619  21.977  1.00  0.00    -0.253 N 
HETATM   26  C18 UNL     1      34.811  29.143  21.766  1.00  0.00     0.142 A 
ATOM     27  H1  UNL     1      33.322  27.896  22.661  1.00  0.00     0.195 HD
HETATM   28  C20 UNL     1      34.592  30.070  20.759  1.00  0.00     0.037 A 
BRANCH  26  29
HETATM   29  C19 UNL     1      35.982  28.737  22.484  1.00  0.00     0.229 C 
HETATM   30  O6  UNL     1      35.956  27.552  22.999  1.00  0.00    -0.643 OA
HETATM   31  O7  UNL     1      37.134  29.415  22.712  1.00  0.00    -0.643 OA
ENDBRANCH  26  29
BRANCH  28  32
HETATM   32  C21 UNL     1      35.614  30.929  20.150  1.00  0.00     0.208 C 
BRANCH  32  33
HETATM   33  O8  UNL     1      36.332  30.300  19.143  1.00  0.00    -0.396 OA
ATOM     34  H8  UNL     1      36.366  30.800  18.336  1.00  0.00     0.209 HD
ENDBRANCH  32  33
ENDBRANCH  28  32
ENDBRANCH   5  23
TORSDOF 11
ENDMDL
