MODEL 8
REMARK VINA RESULT: -8.766133625      1.118      1.644
REMARK  11 active torsions:
REMARK  status: ('A' for Active; 'I' for Inactive)
REMARK    1  A    between atoms: O1_2  and  C2_3 
REMARK    2  A    between atoms: C2_3  and  C3_5 
REMARK    3  A    between atoms: C4_6  and  O3_7 
REMARK    4  A    between atoms: C8_12  and  O4_13 
REMARK    5  A    between atoms: O4_13  and  C9_14 
REMARK    6  A    between atoms: C9_14  and  C10_15 
REMARK    7  A    between atoms: C11_16  and  C12_17 
REMARK    8  A    between atoms: C16_21  and  C17_22 
REMARK    9  A    between atoms: C18_26  and  C19_27 
REMARK   10  A    between atoms: C20_30  and  C21_31 
REMARK   11  A    between atoms: C21_31  and  O8_32 
ROOT
HETATM    1  C12 UNL     1      30.123  31.060  19.195  1.00  0.00    -0.036 A 
HETATM    2  C13 UNL     1      30.040  31.028  17.829  1.00  0.00     0.011 A 
HETATM    3  C14 UNL     1      31.175  30.787  17.089  1.00  0.00     0.002 A 
HETATM    4  C15 UNL     1      32.413  30.575  17.730  1.00  0.00     0.014 A 
HETATM    5  C16 UNL     1      32.541  30.598  19.086  1.00  0.00     0.001 A 
HETATM    6  C22 UNL     1      31.342  30.849  19.774  1.00  0.00     0.025 A 
ENDROOT
BRANCH   1   7
HETATM    7  C11 UNL     1      28.936  31.314  20.010  1.00  0.00     0.009 C 
HETATM    8  C10 UNL     1      27.899  30.526  19.991  1.00  0.00     0.000 C 
BRANCH   8   9
HETATM    9  C9  UNL     1      26.724  30.874  20.867  1.00  0.00     0.203 C 
BRANCH   9  10
HETATM   10  O4  UNL     1      25.923  29.823  21.219  1.00  0.00    -0.346 OA
BRANCH  10  11
HETATM   11  C8  UNL     1      24.704  29.725  21.789  1.00  0.00     0.088 A 
HETATM   12  C3  UNL     1      24.135  28.434  21.851  1.00  0.00     0.105 A 
HETATM   13  C4  UNL     1      22.897  28.331  22.427  1.00  0.00     0.084 A 
HETATM   14  C5  UNL     1      22.234  29.474  22.930  1.00  0.00     0.038 A 
HETATM   15  C6  UNL     1      22.792  30.709  22.864  1.00  0.00     0.005 A 
HETATM   16  C7  UNL     1      24.037  30.829  22.286  1.00  0.00     0.038 A 
BRANCH  12  17
HETATM   17  C2  UNL     1      24.888  27.321  21.309  1.00  0.00     0.298 C 
HETATM   18  O2  UNL     1      25.308  26.432  22.128  1.00  0.00    -0.259 OA
BRANCH  17  19
HETATM   19  O1  UNL     1      25.199  27.116  20.001  1.00  0.00    -0.322 OA
HETATM   20  C1  UNL     1      26.158  26.186  19.535  1.00  0.00     0.213 C 
ENDBRANCH  17  19
ENDBRANCH  12  17
BRANCH  13  21
HETATM   21  O3  UNL     1      22.245  27.121  22.543  1.00  0.00    -0.360 OA
ATOM     22  H3  UNL     1      21.361  26.994  22.220  1.00  0.00     0.217 HD
ENDBRANCH  13  21
ENDBRANCH  10  11
ENDBRANCH   9  10
ENDBRANCH   8   9
ENDBRANCH   1   7
BRANCH   5  23
HETATM   23  C17 UNL     1      33.759  30.401  19.852  1.00  0.00     0.120 A 
HETATM   24  O5  UNL     1      34.846  31.156  19.675  1.00  0.00    -0.236 OA
HETATM   25  N1  UNL     1      35.785  30.825  20.431  1.00  0.00    -0.253 N 
HETATM   26  C18 UNL     1      35.413  29.761  21.238  1.00  0.00     0.142 A 
ATOM     27  H1  UNL     1      36.699  31.277  20.452  1.00  0.00     0.195 HD
HETATM   28  C20 UNL     1      34.108  29.517  20.837  1.00  0.00     0.037 A 
BRANCH  26  29
HETATM   29  C19 UNL     1      36.267  29.149  22.213  1.00  0.00     0.229 C 
HETATM   30  O6  UNL     1      37.121  29.927  22.793  1.00  0.00    -0.643 OA
HETATM   31  O7  UNL     1      36.319  27.860  22.629  1.00  0.00    -0.643 OA
ENDBRANCH  26  29
BRANCH  28  32
HETATM   32  C21 UNL     1      33.229  28.472  21.374  1.00  0.00     0.208 C 
BRANCH  32  33
HETATM   33  O8  UNL     1      33.843  27.231  21.464  1.00  0.00    -0.396 OA
ATOM     34  H8  UNL     1      34.192  26.922  20.637  1.00  0.00     0.209 HD
ENDBRANCH  32  33
ENDBRANCH  28  32
ENDBRANCH   5  23
TORSDOF 11
ENDMDL
