MODEL 9
REMARK VINA RESULT: -8.745374728      5.614      8.646
REMARK  11 active torsions:
REMARK  status: ('A' for Active; 'I' for Inactive)
REMARK    1  A    between atoms: O1_2  and  C2_3 
REMARK    2  A    between atoms: C2_3  and  C3_5 
REMARK    3  A    between atoms: C4_6  and  O3_7 
REMARK    4  A    between atoms: C8_12  and  O4_13 
REMARK    5  A    between atoms: O4_13  and  C9_14 
REMARK    6  A    between atoms: C9_14  and  C10_15 
REMARK    7  A    between atoms: C11_16  and  C12_17 
REMARK    8  A    between atoms: C16_21  and  C17_22 
REMARK    9  A    between atoms: C18_26  and  C19_27 
REMARK   10  A    between atoms: C20_30  and  C21_31 
REMARK   11  A    between atoms: C21_31  and  O8_32 
ROOT
HETATM    1  C12 UNL     1      32.811  31.502  16.721  1.00  0.00    -0.036 A 
HETATM    2  C13 UNL     1      31.863  32.463  16.949  1.00  0.00     0.011 A 
HETATM    3  C14 UNL     1      31.449  32.710  18.239  1.00  0.00     0.002 A 
HETATM    4  C15 UNL     1      31.994  31.981  19.316  1.00  0.00     0.014 A 
HETATM    5  C16 UNL     1      32.939  31.017  19.133  1.00  0.00     0.001 A 
HETATM    6  C22 UNL     1      33.312  30.820  17.794  1.00  0.00     0.025 A 
ENDROOT
BRANCH   1   7
HETATM    7  C11 UNL     1      33.272  31.215  15.363  1.00  0.00     0.009 C 
HETATM    8  C10 UNL     1      33.907  30.119  15.063  1.00  0.00     0.000 C 
BRANCH   8   9
HETATM    9  C9  UNL     1      34.342  29.916  13.635  1.00  0.00     0.203 C 
BRANCH   9  10
HETATM   10  O4  UNL     1      34.366  28.617  13.208  1.00  0.00    -0.346 OA
BRANCH  10  11
HETATM   11  C8  UNL     1      33.987  27.444  13.758  1.00  0.00     0.088 A 
HETATM   12  C3  UNL     1      35.007  26.496  13.993  1.00  0.00     0.105 A 
HETATM   13  C4  UNL     1      34.626  25.304  14.549  1.00  0.00     0.084 A 
HETATM   14  C5  UNL     1      33.272  25.051  14.866  1.00  0.00     0.038 A 
HETATM   15  C6  UNL     1      32.302  25.971  14.634  1.00  0.00     0.005 A 
HETATM   16  C7  UNL     1      32.669  27.175  14.074  1.00  0.00     0.038 A 
BRANCH  12  17
HETATM   17  C2  UNL     1      36.368  26.843  13.635  1.00  0.00     0.298 C 
HETATM   18  O2  UNL     1      36.937  26.150  12.722  1.00  0.00    -0.259 OA
BRANCH  17  19
HETATM   19  O1  UNL     1      37.116  27.842  14.174  1.00  0.00    -0.322 OA
HETATM   20  C1  UNL     1      37.086  28.229  15.535  1.00  0.00     0.213 C 
ENDBRANCH  17  19
ENDBRANCH  12  17
BRANCH  13  21
HETATM   21  O3  UNL     1      35.536  24.304  14.824  1.00  0.00    -0.360 OA
ATOM     22  H3  UNL     1      36.150  24.368  15.546  1.00  0.00     0.217 HD
ENDBRANCH  13  21
ENDBRANCH  10  11
ENDBRANCH   9  10
ENDBRANCH   8   9
ENDBRANCH   1   7
BRANCH   5  23
HETATM   23  C17 UNL     1      33.564  30.202  20.160  1.00  0.00     0.120 A 
HETATM   24  O5  UNL     1      32.886  29.290  20.862  1.00  0.00    -0.236 OA
HETATM   25  N1  UNL     1      33.606  28.697  21.694  1.00  0.00    -0.253 N 
HETATM   26  C18 UNL     1      34.909  29.167  21.640  1.00  0.00     0.142 A 
ATOM     27  H1  UNL     1      33.279  27.966  22.327  1.00  0.00     0.195 HD
HETATM   28  C20 UNL     1      34.842  30.131  20.645  1.00  0.00     0.037 A 
BRANCH  26  29
HETATM   29  C19 UNL     1      35.975  28.689  22.468  1.00  0.00     0.229 C 
HETATM   30  O6  UNL     1      36.963  29.502  22.656  1.00  0.00    -0.643 OA
HETATM   31  O7  UNL     1      36.113  27.496  23.097  1.00  0.00    -0.643 OA
ENDBRANCH  26  29
BRANCH  28  32
HETATM   32  C21 UNL     1      35.961  30.958  20.179  1.00  0.00     0.208 C 
BRANCH  32  33
HETATM   33  O8  UNL     1      36.525  30.503  18.996  1.00  0.00    -0.396 OA
ATOM     34  H8  UNL     1      37.470  30.418  19.037  1.00  0.00     0.209 HD
ENDBRANCH  32  33
ENDBRANCH  28  32
ENDBRANCH   5  23
TORSDOF 11
ENDMDL
