MODEL 4
REMARK VINA RESULT: -8.871183534      5.604      9.429
REMARK  11 active torsions:
REMARK  status: ('A' for Active; 'I' for Inactive)
REMARK    1  A    between atoms: O1_2  and  C2_3 
REMARK    2  A    between atoms: C2_3  and  C3_5 
REMARK    3  A    between atoms: C4_6  and  O3_7 
REMARK    4  A    between atoms: C8_12  and  O4_13 
REMARK    5  A    between atoms: O4_13  and  C9_14 
REMARK    6  A    between atoms: C9_14  and  C10_15 
REMARK    7  A    between atoms: C11_16  and  C12_17 
REMARK    8  A    between atoms: C16_21  and  C17_22 
REMARK    9  A    between atoms: C18_26  and  C19_27 
REMARK   10  A    between atoms: C20_30  and  C21_31 
REMARK   11  A    between atoms: C21_31  and  O8_32 
ROOT
HETATM    1  C12 UNL     1      32.566  31.515  16.768  1.00  0.00    -0.036 A 
HETATM    2  C13 UNL     1      31.683  32.525  17.042  1.00  0.00     0.011 A 
HETATM    3  C14 UNL     1      31.367  32.809  18.351  1.00  0.00     0.002 A 
HETATM    4  C15 UNL     1      31.946  32.068  19.402  1.00  0.00     0.014 A 
HETATM    5  C16 UNL     1      32.830  31.056  19.175  1.00  0.00     0.001 A 
HETATM    6  C22 UNL     1      33.104  30.824  17.817  1.00  0.00     0.025 A 
ENDROOT
BRANCH   1   7
HETATM    7  C11 UNL     1      32.923  31.189  15.388  1.00  0.00     0.009 C 
HETATM    8  C10 UNL     1      33.566  32.022  14.621  1.00  0.00     0.000 C 
BRANCH   8   9
HETATM    9  C9  UNL     1      33.887  31.592  13.214  1.00  0.00     0.203 C 
BRANCH   9  10
HETATM   10  O4  UNL     1      34.983  30.784  13.083  1.00  0.00    -0.346 OA
BRANCH  10  11
HETATM   11  C8  UNL     1      35.352  29.611  13.638  1.00  0.00     0.088 A 
HETATM   12  C3  UNL     1      36.585  29.596  14.326  1.00  0.00     0.105 A 
HETATM   13  C4  UNL     1      36.964  28.407  14.890  1.00  0.00     0.084 A 
HETATM   14  C5  UNL     1      36.148  27.258  14.777  1.00  0.00     0.038 A 
HETATM   15  C6  UNL     1      34.966  27.286  14.113  1.00  0.00     0.005 A 
HETATM   16  C7  UNL     1      34.571  28.476  13.539  1.00  0.00     0.038 A 
BRANCH  12  17
HETATM   17  C2  UNL     1      37.356  30.822  14.390  1.00  0.00     0.298 C 
HETATM   18  O2  UNL     1      38.447  30.872  13.722  1.00  0.00    -0.259 OA
BRANCH  17  19
HETATM   19  O1  UNL     1      37.038  31.941  15.092  1.00  0.00    -0.322 OA
HETATM   20  C1  UNL     1      37.555  33.232  14.832  1.00  0.00     0.213 C 
ENDBRANCH  17  19
ENDBRANCH  12  17
BRANCH  13  21
HETATM   21  O3  UNL     1      38.148  28.274  15.586  1.00  0.00    -0.360 OA
ATOM     22  H3  UNL     1      38.883  28.858  15.443  1.00  0.00     0.217 HD
ENDBRANCH  13  21
ENDBRANCH  10  11
ENDBRANCH   9  10
ENDBRANCH   8   9
ENDBRANCH   1   7
BRANCH   5  23
HETATM   23  C17 UNL     1      33.481  30.225  20.171  1.00  0.00     0.120 A 
HETATM   24  O5  UNL     1      32.820  29.308  20.881  1.00  0.00    -0.236 OA
HETATM   25  N1  UNL     1      33.561  28.700  21.684  1.00  0.00    -0.253 N 
HETATM   26  C18 UNL     1      34.864  29.166  21.597  1.00  0.00     0.142 A 
ATOM     27  H1  UNL     1      33.250  27.963  22.317  1.00  0.00     0.195 HD
HETATM   28  C20 UNL     1      34.773  30.143  20.617  1.00  0.00     0.037 A 
BRANCH  26  29
HETATM   29  C19 UNL     1      35.953  28.672  22.387  1.00  0.00     0.229 C 
HETATM   30  O6  UNL     1      36.938  29.488  22.577  1.00  0.00    -0.643 OA
HETATM   31  O7  UNL     1      36.114  27.462  22.977  1.00  0.00    -0.643 OA
ENDBRANCH  26  29
BRANCH  28  32
HETATM   32  C21 UNL     1      35.881  30.971  20.129  1.00  0.00     0.208 C 
BRANCH  32  33
HETATM   33  O8  UNL     1      36.462  30.482  18.968  1.00  0.00    -0.396 OA
ATOM     34  H8  UNL     1      37.334  30.823  18.810  1.00  0.00     0.209 HD
ENDBRANCH  32  33
ENDBRANCH  28  32
ENDBRANCH   5  23
TORSDOF 11
ENDMDL
