MODEL 13
REMARK VINA RESULT: -6.767700599      3.597      6.733
REMARK  5 active torsions:
REMARK  status: ('A' for Active; 'I' for Inactive)
REMARK    1  A    between atoms: C1_2  and  C2_4 
REMARK    2  A    between atoms: C5_8  and  S2_9 
REMARK    3  A    between atoms: S2_9  and  N1_12 
REMARK    4  A    between atoms: N1_12  and  C6_14 
REMARK    5  A    between atoms: C10_18  and  N2_19 
ROOT
HETATM    1  S2  UNL     1      78.845   6.246  29.950  1.00  0.00     0.264 S 
HETATM    2  O3  UNL     1      77.404   5.794  29.777  1.00  0.00    -0.200 OA
HETATM    3  O4  UNL     1      78.898   7.155  31.144  1.00  0.00    -0.200 OA
ENDROOT
BRANCH   1   4
HETATM    4  C5  UNL     1      79.384   7.122  28.504  1.00  0.00     0.104 A 
HETATM    5  C2  UNL     1      79.229   6.547  27.268  1.00  0.00     0.104 A 
HETATM    6  S1  UNL     1      79.873   7.722  26.210  1.00  0.00    -0.094 SA
HETATM    7  C3  UNL     1      80.317   8.902  27.346  1.00  0.00     0.052 A 
HETATM    8  C4  UNL     1      79.948   8.344  28.536  1.00  0.00     0.034 A 
BRANCH   5   9
HETATM    9  C1  UNL     1      78.647   5.230  26.918  1.00  0.00     0.218 C 
HETATM   10  O1  UNL     1      77.553   5.214  26.335  1.00  0.00    -0.643 OA
HETATM   11  O2  UNL     1      79.286   4.058  27.220  1.00  0.00    -0.643 OA
ENDBRANCH   5   9
ENDBRANCH   1   4
BRANCH   1  12
HETATM   12  N1  UNL     1      79.849   4.897  30.239  1.00  0.00    -0.281 N 
ATOM     13  H1  UNL     1      79.780   4.092  29.616  1.00  0.00     0.179 HD
BRANCH  12  14
HETATM   14  C6  UNL     1      80.770   4.852  31.307  1.00  0.00     0.045 A 
HETATM   15  C7  UNL     1      80.400   4.240  32.479  1.00  0.00     0.030 A 
HETATM   16  C8  UNL     1      81.264   4.154  33.532  1.00  0.00     0.005 A 
HETATM   17  C9  UNL     1      82.519   4.699  33.380  1.00  0.00     0.036 A 
HETATM   18  C10 UNL     1      82.911   5.312  32.225  1.00  0.00     0.105 A 
HETATM   19  C11 UNL     1      82.022   5.387  31.180  1.00  0.00     0.066 A 
BRANCH  18  20
HETATM   20  N2  UNL     1      84.218   5.857  32.125  1.00  0.00    -0.116 N 
HETATM   21  O5  UNL     1      84.926   5.592  31.138  1.00  0.00    -0.532 OA
HETATM   22  O6  UNL     1      84.704   6.672  33.108  1.00  0.00    -0.532 OA
ENDBRANCH  18  20
ENDBRANCH  12  14
ENDBRANCH   1  12
TORSDOF 5
ENDMDL
