MODEL 3
REMARK VINA RESULT: -7.197491035      2.414      3.272
REMARK  5 active torsions:
REMARK  status: ('A' for Active; 'I' for Inactive)
REMARK    1  A    between atoms: C1_2  and  C2_4 
REMARK    2  A    between atoms: C5_8  and  S2_9 
REMARK    3  A    between atoms: S2_9  and  N1_12 
REMARK    4  A    between atoms: N1_12  and  C6_14 
REMARK    5  A    between atoms: C10_18  and  N2_19 
ROOT
HETATM    1  S2  UNL     1      79.249   5.331  30.504  1.00  0.00     0.264 S 
HETATM    2  O3  UNL     1      78.666   6.729  30.633  1.00  0.00    -0.200 OA
HETATM    3  O4  UNL     1      78.128   4.351  30.693  1.00  0.00    -0.200 OA
ENDROOT
BRANCH   1   4
HETATM    4  C5  UNL     1      80.488   5.073  31.748  1.00  0.00     0.104 A 
HETATM    5  C2  UNL     1      81.608   5.866  31.762  1.00  0.00     0.104 A 
HETATM    6  S1  UNL     1      82.491   5.267  33.094  1.00  0.00    -0.094 SA
HETATM    7  C3  UNL     1      81.430   4.041  33.599  1.00  0.00     0.052 A 
HETATM    8  C4  UNL     1      80.403   4.130  32.705  1.00  0.00     0.034 A 
BRANCH   5   9
HETATM    9  C1  UNL     1      81.977   6.975  30.851  1.00  0.00     0.218 C 
HETATM   10  O1  UNL     1      81.832   8.136  31.260  1.00  0.00    -0.643 OA
HETATM   11  O2  UNL     1      82.466   6.741  29.594  1.00  0.00    -0.643 OA
ENDBRANCH   5   9
ENDBRANCH   1   4
BRANCH   1  12
HETATM   12  N1  UNL     1      79.912   5.117  28.947  1.00  0.00    -0.281 N 
ATOM     13  H1  UNL     1      80.724   4.509  28.840  1.00  0.00     0.179 HD
BRANCH  12  14
HETATM   14  C6  UNL     1      79.382   5.750  27.802  1.00  0.00     0.045 A 
HETATM   15  C7  UNL     1      79.462   7.117  27.701  1.00  0.00     0.030 A 
HETATM   16  C8  UNL     1      78.982   7.771  26.604  1.00  0.00     0.005 A 
HETATM   17  C9  UNL     1      78.415   7.016  25.602  1.00  0.00     0.036 A 
HETATM   18  C10 UNL     1      78.323   5.656  25.679  1.00  0.00     0.105 A 
HETATM   19  C11 UNL     1      78.813   5.022  26.794  1.00  0.00     0.066 A 
BRANCH  18  20
HETATM   20  N2  UNL     1      77.728   4.929  24.615  1.00  0.00    -0.116 N 
HETATM   21  O5  UNL     1      78.383   4.687  23.587  1.00  0.00    -0.532 OA
HETATM   22  O6  UNL     1      76.438   4.492  24.714  1.00  0.00    -0.532 OA
ENDBRANCH  18  20
ENDBRANCH  12  14
ENDBRANCH   1  12
TORSDOF 5
ENDMDL
