MODEL 1
REMARK VINA RESULT: -7.499327060      0.000      0.000
REMARK  5 active torsions:
REMARK  status: ('A' for Active; 'I' for Inactive)
REMARK    1  A    between atoms: C1_2  and  C2_4 
REMARK    2  A    between atoms: C5_8  and  S2_9 
REMARK    3  A    between atoms: S2_9  and  N1_12 
REMARK    4  A    between atoms: N1_12  and  C6_14 
REMARK    5  A    between atoms: C10_18  and  N2_19 
ROOT
HETATM    1  S2  UNL     1      78.658   7.430  28.624  1.00  0.00     0.264 S 
HETATM    2  O3  UNL     1      79.070   8.502  27.629  1.00  0.00    -0.200 OA
HETATM    3  O4  UNL     1      77.761   8.073  29.642  1.00  0.00    -0.200 OA
ENDROOT
BRANCH   1   4
HETATM    4  C5  UNL     1      80.094   6.763  29.427  1.00  0.00     0.104 A 
HETATM    5  C2  UNL     1      79.949   5.757  30.348  1.00  0.00     0.104 A 
HETATM    6  S1  UNL     1      81.553   5.447  30.841  1.00  0.00    -0.094 SA
HETATM    7  C3  UNL     1      82.362   6.587  29.877  1.00  0.00     0.052 A 
HETATM    8  C4  UNL     1      81.349   7.187  29.187  1.00  0.00     0.034 A 
BRANCH   5   9
HETATM    9  C1  UNL     1      78.710   5.090  30.813  1.00  0.00     0.218 C 
HETATM   10  O1  UNL     1      78.143   5.547  31.815  1.00  0.00    -0.643 OA
HETATM   11  O2  UNL     1      78.194   4.001  30.164  1.00  0.00    -0.643 OA
ENDBRANCH   5   9
ENDBRANCH   1   4
BRANCH   1  12
HETATM   12  N1  UNL     1      77.792   6.195  27.827  1.00  0.00    -0.281 N 
ATOM     13  H1  UNL     1      76.947   5.827  28.265  1.00  0.00     0.179 HD
BRANCH  12  14
HETATM   14  C6  UNL     1      78.200   5.663  26.585  1.00  0.00     0.045 A 
HETATM   15  C7  UNL     1      79.101   4.627  26.570  1.00  0.00     0.030 A 
HETATM   16  C8  UNL     1      79.509   4.066  25.394  1.00  0.00     0.005 A 
HETATM   17  C9  UNL     1      78.988   4.573  24.225  1.00  0.00     0.036 A 
HETATM   18  C10 UNL     1      78.092   5.603  24.214  1.00  0.00     0.105 A 
HETATM   19  C11 UNL     1      77.697   6.150  25.410  1.00  0.00     0.066 A 
BRANCH  18  20
HETATM   20  N2  UNL     1      77.588   6.085  22.977  1.00  0.00    -0.116 N 
HETATM   21  O5  UNL     1      78.043   5.644  21.908  1.00  0.00    -0.532 OA
HETATM   22  O6  UNL     1      76.604   7.033  22.954  1.00  0.00    -0.532 OA
ENDBRANCH  18  20
ENDBRANCH  12  14
ENDBRANCH   1  12
TORSDOF 5
ENDMDL
