MODEL 6
REMARK VINA RESULT: -6.978871957      3.061      5.965
REMARK  5 active torsions:
REMARK  status: ('A' for Active; 'I' for Inactive)
REMARK    1  A    between atoms: C1_2  and  C2_4 
REMARK    2  A    between atoms: C5_8  and  S2_9 
REMARK    3  A    between atoms: S2_9  and  N1_12 
REMARK    4  A    between atoms: N1_12  and  C6_14 
REMARK    5  A    between atoms: C10_18  and  N2_19 
ROOT
HETATM    1  S2  UNL     1      77.949   6.765  29.186  1.00  0.00     0.264 S 
HETATM    2  O3  UNL     1      76.495   6.620  28.767  1.00  0.00    -0.200 OA
HETATM    3  O4  UNL     1      78.028   7.891  30.176  1.00  0.00    -0.200 OA
ENDROOT
BRANCH   1   4
HETATM    4  C5  UNL     1      78.954   7.138  27.771  1.00  0.00     0.104 A 
HETATM    5  C2  UNL     1      79.022   6.241  26.734  1.00  0.00     0.104 A 
HETATM    6  S1  UNL     1      80.077   7.004  25.630  1.00  0.00    -0.094 SA
HETATM    7  C3  UNL     1      80.403   8.426  26.499  1.00  0.00     0.052 A 
HETATM    8  C4  UNL     1      79.672   8.269  27.641  1.00  0.00     0.034 A 
BRANCH   5   9
HETATM    9  C1  UNL     1      78.349   4.929  26.590  1.00  0.00     0.218 C 
HETATM   10  O1  UNL     1      78.801   3.969  27.231  1.00  0.00    -0.643 OA
HETATM   11  O2  UNL     1      77.258   4.765  25.779  1.00  0.00    -0.643 OA
ENDBRANCH   5   9
ENDBRANCH   1   4
BRANCH   1  12
HETATM   12  N1  UNL     1      78.485   5.330  29.937  1.00  0.00    -0.281 N 
ATOM     13  H1  UNL     1      77.961   4.469  29.781  1.00  0.00     0.179 HD
BRANCH  12  14
HETATM   14  C6  UNL     1      79.626   5.289  30.767  1.00  0.00     0.045 A 
HETATM   15  C7  UNL     1      79.456   5.198  32.126  1.00  0.00     0.030 A 
HETATM   16  C8  UNL     1      80.530   5.134  32.967  1.00  0.00     0.005 A 
HETATM   17  C9  UNL     1      81.787   5.163  32.408  1.00  0.00     0.036 A 
HETATM   18  C10 UNL     1      81.982   5.254  31.060  1.00  0.00     0.105 A 
HETATM   19  C11 UNL     1      80.886   5.318  30.235  1.00  0.00     0.066 A 
BRANCH  18  20
HETATM   20  N2  UNL     1      83.303   5.281  30.539  1.00  0.00    -0.116 N 
HETATM   21  O5  UNL     1      83.493   5.095  29.325  1.00  0.00    -0.532 OA
HETATM   22  O6  UNL     1      84.367   5.512  31.364  1.00  0.00    -0.532 OA
ENDBRANCH  18  20
ENDBRANCH  12  14
ENDBRANCH   1  12
TORSDOF 5
ENDMDL
