MODEL 4
REMARK VINA RESULT: -7.073234039      2.076      3.057
REMARK  5 active torsions:
REMARK  status: ('A' for Active; 'I' for Inactive)
REMARK    1  A    between atoms: C1_2  and  C2_4 
REMARK    2  A    between atoms: C5_8  and  S2_9 
REMARK    3  A    between atoms: S2_9  and  N1_12 
REMARK    4  A    between atoms: N1_12  and  C6_14 
REMARK    5  A    between atoms: C10_18  and  N2_19 
ROOT
HETATM    1  S2  UNL     1      78.620   5.652  30.403  1.00  0.00     0.264 S 
HETATM    2  O3  UNL     1      78.393   7.139  30.181  1.00  0.00    -0.200 OA
HETATM    3  O4  UNL     1      77.389   5.096  31.057  1.00  0.00    -0.200 OA
ENDROOT
BRANCH   1   4
HETATM    4  C5  UNL     1      80.025   5.405  31.460  1.00  0.00     0.104 A 
HETATM    5  C2  UNL     1      81.237   5.945  31.111  1.00  0.00     0.104 A 
HETATM    6  S1  UNL     1      82.260   5.460  32.388  1.00  0.00    -0.094 SA
HETATM    7  C3  UNL     1      81.140   4.594  33.325  1.00  0.00     0.052 A 
HETATM    8  C4  UNL     1      79.982   4.706  32.610  1.00  0.00     0.034 A 
BRANCH   5   9
HETATM    9  C1  UNL     1      81.590   6.756  29.922  1.00  0.00     0.218 C 
HETATM   10  O1  UNL     1      81.933   6.159  28.891  1.00  0.00    -0.643 OA
HETATM   11  O2  UNL     1      81.541   8.124  29.944  1.00  0.00    -0.643 OA
ENDBRANCH   5   9
ENDBRANCH   1   4
BRANCH   1  12
HETATM   12  N1  UNL     1      78.853   4.868  28.907  1.00  0.00    -0.281 N 
ATOM     13  H1  UNL     1      79.053   3.867  28.904  1.00  0.00     0.179 HD
BRANCH  12  14
HETATM   14  C6  UNL     1      78.781   5.549  27.673  1.00  0.00     0.045 A 
HETATM   15  C7  UNL     1      78.689   6.919  27.675  1.00  0.00     0.030 A 
HETATM   16  C8  UNL     1      78.637   7.623  26.506  1.00  0.00     0.005 A 
HETATM   17  C9  UNL     1      78.680   6.914  25.327  1.00  0.00     0.036 A 
HETATM   18  C10 UNL     1      78.769   5.552  25.298  1.00  0.00     0.105 A 
HETATM   19  C11 UNL     1      78.820   4.867  26.488  1.00  0.00     0.066 A 
BRANCH  18  20
HETATM   20  N2  UNL     1      78.809   4.874  24.052  1.00  0.00    -0.116 N 
HETATM   21  O5  UNL     1      79.248   3.713  23.992  1.00  0.00    -0.532 OA
HETATM   22  O6  UNL     1      78.367   5.490  22.916  1.00  0.00    -0.532 OA
ENDBRANCH  18  20
ENDBRANCH  12  14
ENDBRANCH   1  12
TORSDOF 5
ENDMDL
