MODEL 1
REMARK VINA RESULT: -9.539143226      0.000      0.000
REMARK  8 active torsions:
REMARK  status: ('A' for Active; 'I' for Inactive)
REMARK    1  A    between atoms: N1_2  and  C3_4 
REMARK    2  A    between atoms: C6_7  and  O1_8 
REMARK    3  A    between atoms: C7_10  and  C8_11 
REMARK    4  A    between atoms: C8_11  and  C9_13 
REMARK    5  A    between atoms: C12_16  and  C13_17 
REMARK       I    between atoms: C13_17  and  N2_19 
REMARK    6  A    between atoms: N2_19  and  C14_21 
REMARK    7  A    between atoms: C19_28  and  N4_29 
REMARK       I    between atoms: N4_29  and  C20_31 
REMARK    8  A    between atoms: C20_31  and  C21_33 
ROOT
HETATM    1  C13 UNL     1       2.296  17.062  31.935  1.00  0.00     0.252 C 
HETATM    2  O3  UNL     1       1.102  17.174  32.299  1.00  0.00    -0.268 OA
HETATM    3  N2  UNL     1       2.712  15.817  31.403  1.00  0.00    -0.350 N 
ATOM      4  H2  UNL     1       3.686  15.724  31.111  1.00  0.00     0.163 HD
ENDROOT
BRANCH   1   5
HETATM    5  C12 UNL     1       3.185  18.209  32.077  1.00  0.00     0.032 A 
HETATM    6  C11 UNL     1       3.414  18.993  30.975  1.00  0.00     0.018 A 
HETATM    7  C10 UNL     1       4.244  20.096  31.007  1.00  0.00     0.016 A 
HETATM    8  C9  UNL     1       4.868  20.430  32.174  1.00  0.00     0.015 A 
HETATM    9  C27 UNL     1       4.621  19.621  33.283  1.00  0.00     0.016 A 
HETATM   10  C26 UNL     1       3.800  18.524  33.268  1.00  0.00     0.018 A 
BRANCH   8  11
HETATM   11  C8  UNL     1       5.778  21.538  32.273  1.00  0.00     0.195 C 
HETATM   12  O2  UNL     1       5.727  22.168  33.399  1.00  0.00    -0.287 OA
BRANCH  11  13
HETATM   13  C7  UNL     1       6.709  22.010  31.298  1.00  0.00     0.050 A 
HETATM   14  C6  UNL     1       6.281  23.028  30.418  1.00  0.00     0.080 A 
HETATM   15  C5  UNL     1       7.125  23.564  29.478  1.00  0.00     0.040 A 
HETATM   16  C4  UNL     1       8.420  23.116  29.368  1.00  0.00     0.032 A 
HETATM   17  C3  UNL     1       8.873  22.135  30.199  1.00  0.00     0.030 A 
HETATM   18  C28 UNL     1       8.006  21.613  31.136  1.00  0.00     0.047 A 
BRANCH  14  19
HETATM   19  O1  UNL     1       4.983  23.506  30.498  1.00  0.00    -0.360 OA
ATOM     20  H1  UNL     1       4.269  22.881  30.560  1.00  0.00     0.217 HD
ENDBRANCH  14  19
BRANCH  17  21
HETATM   21  N1  UNL     1      10.230  21.684  30.063  1.00  0.00    -0.390 N 
HETATM   22  C1  UNL     1      11.254  22.635  29.675  1.00  0.00     0.149 C 
HETATM   23  C2  UNL     1      10.633  20.312  30.298  1.00  0.00     0.149 C 
ENDBRANCH  17  21
ENDBRANCH  11  13
ENDBRANCH   8  11
ENDBRANCH   1   5
BRANCH   3  24
HETATM   24  C14 UNL     1       1.846  14.666  31.249  1.00  0.00     0.109 C 
HETATM   25  C15 UNL     1       2.773  13.438  31.221  1.00  0.00     0.029 C 
HETATM   26  C16 UNL     1       1.971  12.256  31.697  1.00  0.00     0.021 C 
HETATM   27  C17 UNL     1       0.738  12.005  30.836  1.00  0.00     0.114 C 
HETATM   28  N3  UNL     1      -0.308  12.943  31.039  1.00  0.00    -0.419 N 
HETATM   29  C18 UNL     1      -0.304  14.105  30.231  1.00  0.00     0.141 C 
ATOM     30  H3  UNL     1      -1.033  12.785  31.739  1.00  0.00     0.153 HD
HETATM   31  C19 UNL     1       1.069  14.674  29.964  1.00  0.00     0.124 C 
BRANCH  31  32
HETATM   32  N4  UNL     1       1.056  15.930  29.299  1.00  0.00    -0.349 N 
HETATM   33  C20 UNL     1       2.091  16.441  28.481  1.00  0.00     0.252 C 
HETATM   34  O4  UNL     1       3.097  15.697  28.345  1.00  0.00    -0.268 OA
ATOM     35  H4  UNL     1       0.229  16.513  29.423  1.00  0.00     0.163 HD
BRANCH  33  36
HETATM   36  C21 UNL     1       2.043  17.731  27.822  1.00  0.00     0.034 A 
HETATM   37  C22 UNL     1       3.248  18.359  27.497  1.00  0.00     0.034 A 
HETATM   38  C23 UNL     1       3.314  19.586  26.870  1.00  0.00     0.088 A 
HETATM   39  N5  UNL     1       2.166  20.189  26.564  1.00  0.00    -0.375 N 
HETATM   40  C24 UNL     1       1.002  19.625  26.856  1.00  0.00     0.088 A 
ATOM     41  H5  UNL     1       2.183  21.097  26.099  1.00  0.00     0.164 HD
HETATM   42  C25 UNL     1       0.904  18.388  27.490  1.00  0.00     0.034 A 
ENDBRANCH  33  36
ENDBRANCH  31  32
ENDBRANCH   3  24
TORSDOF 8
ENDMDL
