MODEL 3
REMARK VINA RESULT: -9.426450634      2.079      8.914
REMARK  8 active torsions:
REMARK  status: ('A' for Active; 'I' for Inactive)
REMARK    1  A    between atoms: N1_2  and  C3_4 
REMARK    2  A    between atoms: C6_7  and  O1_8 
REMARK    3  A    between atoms: C7_10  and  C8_11 
REMARK    4  A    between atoms: C8_11  and  C9_13 
REMARK    5  A    between atoms: C12_16  and  C13_17 
REMARK       I    between atoms: C13_17  and  N2_19 
REMARK    6  A    between atoms: N2_19  and  C14_21 
REMARK    7  A    between atoms: C19_28  and  N4_29 
REMARK       I    between atoms: N4_29  and  C20_31 
REMARK    8  A    between atoms: C20_31  and  C21_33 
ROOT
HETATM    1  C13 UNL     1       6.156  21.747  31.770  1.00  0.00     0.252 C 
HETATM    2  O3  UNL     1       6.097  22.851  32.359  1.00  0.00    -0.268 OA
HETATM    3  N2  UNL     1       7.077  21.615  30.701  1.00  0.00    -0.350 N 
ATOM      4  H2  UNL     1       7.122  20.717  30.219  1.00  0.00     0.163 HD
ENDROOT
BRANCH   1   5
HETATM    5  C12 UNL     1       5.281  20.667  32.210  1.00  0.00     0.032 A 
HETATM    6  C11 UNL     1       4.588  19.964  31.257  1.00  0.00     0.018 A 
HETATM    7  C10 UNL     1       3.732  18.928  31.574  1.00  0.00     0.016 A 
HETATM    8  C9  UNL     1       3.557  18.581  32.883  1.00  0.00     0.015 A 
HETATM    9  C27 UNL     1       4.271  19.308  33.835  1.00  0.00     0.016 A 
HETATM   10  C26 UNL     1       5.125  20.337  33.538  1.00  0.00     0.018 A 
BRANCH   8  11
HETATM   11  C8  UNL     1       2.651  17.543  33.290  1.00  0.00     0.195 C 
HETATM   12  O2  UNL     1       2.188  17.683  34.489  1.00  0.00    -0.287 OA
BRANCH  11  13
HETATM   13  C7  UNL     1       2.210  16.407  32.546  1.00  0.00     0.050 A 
HETATM   14  C6  UNL     1       3.091  15.308  32.439  1.00  0.00     0.080 A 
HETATM   15  C5  UNL     1       2.732  14.163  31.773  1.00  0.00     0.040 A 
HETATM   16  C4  UNL     1       1.493  14.058  31.187  1.00  0.00     0.032 A 
HETATM   17  C3  UNL     1       0.612  15.096  31.267  1.00  0.00     0.030 A 
HETATM   18  C28 UNL     1       0.997  16.236  31.942  1.00  0.00     0.047 A 
BRANCH  14  19
HETATM   19  O1  UNL     1       4.349  15.376  33.017  1.00  0.00    -0.360 OA
ATOM     20  H1  UNL     1       4.895  16.133  32.836  1.00  0.00     0.217 HD
ENDBRANCH  14  19
BRANCH  17  21
HETATM   21  N1  UNL     1      -0.675  14.961  30.645  1.00  0.00    -0.390 N 
HETATM   22  C1  UNL     1      -1.175  16.042  29.816  1.00  0.00     0.149 C 
HETATM   23  C2  UNL     1      -1.510  13.788  30.803  1.00  0.00     0.149 C 
ENDBRANCH  17  21
ENDBRANCH  11  13
ENDBRANCH   8  11
ENDBRANCH   1   5
BRANCH   3  24
HETATM   24  C14 UNL     1       7.958  22.672  30.249  1.00  0.00     0.109 C 
HETATM   25  C15 UNL     1       8.171  23.595  31.462  1.00  0.00     0.029 C 
HETATM   26  C16 UNL     1       9.495  24.285  31.278  1.00  0.00     0.021 C 
HETATM   27  C17 UNL     1       9.556  25.093  29.986  1.00  0.00     0.114 C 
HETATM   28  N3  UNL     1       9.676  24.298  28.815  1.00  0.00    -0.419 N 
HETATM   29  C18 UNL     1       8.479  23.878  28.188  1.00  0.00     0.141 C 
ATOM     30  H3  UNL     1      10.590  24.040  28.441  1.00  0.00     0.153 HD
HETATM   31  C19 UNL     1       7.372  23.505  29.146  1.00  0.00     0.124 C 
BRANCH  31  32
HETATM   32  N4  UNL     1       6.236  22.925  28.520  1.00  0.00    -0.349 N 
HETATM   33  C20 UNL     1       4.901  23.374  28.653  1.00  0.00     0.252 C 
HETATM   34  O4  UNL     1       4.735  24.377  29.395  1.00  0.00    -0.268 OA
ATOM     35  H4  UNL     1       6.397  22.114  27.923  1.00  0.00     0.163 HD
BRANCH  33  36
HETATM   36  C21 UNL     1       3.766  22.753  28.001  1.00  0.00     0.034 A 
HETATM   37  C22 UNL     1       3.357  21.488  28.431  1.00  0.00     0.034 A 
HETATM   38  C23 UNL     1       2.292  20.810  27.878  1.00  0.00     0.088 A 
HETATM   39  N5  UNL     1       1.628  21.402  26.886  1.00  0.00    -0.375 N 
HETATM   40  C24 UNL     1       1.985  22.601  26.449  1.00  0.00     0.088 A 
ATOM     41  H5  UNL     1       0.834  20.926  26.457  1.00  0.00     0.164 HD
HETATM   42  C25 UNL     1       3.057  23.310  26.988  1.00  0.00     0.034 A 
ENDBRANCH  33  36
ENDBRANCH  31  32
ENDBRANCH   3  24
TORSDOF 8
ENDMDL
