MODEL 2
REMARK VINA RESULT: -9.511454942      3.166      5.799
REMARK  8 active torsions:
REMARK  status: ('A' for Active; 'I' for Inactive)
REMARK    1  A    between atoms: N1_2  and  C3_4 
REMARK    2  A    between atoms: C6_7  and  O1_8 
REMARK    3  A    between atoms: C7_10  and  C8_11 
REMARK    4  A    between atoms: C8_11  and  C9_13 
REMARK    5  A    between atoms: C12_16  and  C13_17 
REMARK       I    between atoms: C13_17  and  N2_19 
REMARK    6  A    between atoms: N2_19  and  C14_21 
REMARK    7  A    between atoms: C19_28  and  N4_29 
REMARK       I    between atoms: N4_29  and  C20_31 
REMARK    8  A    between atoms: C20_31  and  C21_33 
ROOT
HETATM    1  C13 UNL     1       2.575  17.003  28.864  1.00  0.00     0.252 C 
HETATM    2  O3  UNL     1       3.534  16.231  28.629  1.00  0.00    -0.268 OA
HETATM    3  N2  UNL     1       1.491  16.501  29.625  1.00  0.00    -0.350 N 
ATOM      4  H2  UNL     1       0.708  17.129  29.812  1.00  0.00     0.163 HD
ENDROOT
BRANCH   1   5
HETATM    5  C12 UNL     1       2.625  18.364  28.345  1.00  0.00     0.032 A 
HETATM    6  C11 UNL     1       1.945  19.343  29.023  1.00  0.00     0.018 A 
HETATM    7  C10 UNL     1       1.926  20.661  28.609  1.00  0.00     0.016 A 
HETATM    8  C9  UNL     1       2.608  21.016  27.480  1.00  0.00     0.015 A 
HETATM    9  C27 UNL     1       3.294  20.006  26.806  1.00  0.00     0.016 A 
HETATM   10  C26 UNL     1       3.323  18.696  27.204  1.00  0.00     0.018 A 
BRANCH   8  11
HETATM   11  C8  UNL     1       2.600  22.357  26.966  1.00  0.00     0.195 C 
HETATM   12  O2  UNL     1       2.513  22.432  25.678  1.00  0.00    -0.287 OA
BRANCH  11  13
HETATM   13  C7  UNL     1       2.671  23.586  27.690  1.00  0.00     0.050 A 
HETATM   14  C6  UNL     1       3.885  24.306  27.647  1.00  0.00     0.080 A 
HETATM   15  C5  UNL     1       4.026  25.513  28.284  1.00  0.00     0.040 A 
HETATM   16  C4  UNL     1       2.977  26.055  28.989  1.00  0.00     0.032 A 
HETATM   17  C3  UNL     1       1.788  25.393  29.055  1.00  0.00     0.030 A 
HETATM   18  C28 UNL     1       1.671  24.181  28.405  1.00  0.00     0.047 A 
BRANCH  14  19
HETATM   19  O1  UNL     1       4.965  23.792  26.947  1.00  0.00    -0.360 OA
ATOM     20  H1  UNL     1       4.831  23.032  26.393  1.00  0.00     0.217 HD
ENDBRANCH  14  19
BRANCH  17  21
HETATM   21  N1  UNL     1       0.708  25.980  29.798  1.00  0.00    -0.390 N 
HETATM   22  C1  UNL     1       0.718  27.409  30.049  1.00  0.00     0.149 C 
HETATM   23  C2  UNL     1      -0.405  25.210  30.315  1.00  0.00     0.149 C 
ENDBRANCH  17  21
ENDBRANCH  11  13
ENDBRANCH   8  11
ENDBRANCH   1   5
BRANCH   3  24
HETATM   24  C14 UNL     1       1.421  15.154  30.154  1.00  0.00     0.109 C 
HETATM   25  C15 UNL     1      -0.074  14.859  30.367  1.00  0.00     0.029 C 
HETATM   26  C16 UNL     1      -0.256  13.367  30.289  1.00  0.00     0.021 C 
HETATM   27  C17 UNL     1       0.581  12.624  31.325  1.00  0.00     0.114 C 
HETATM   28  N3  UNL     1       1.969  12.587  31.027  1.00  0.00    -0.419 N 
HETATM   29  C18 UNL     1       2.768  13.643  31.523  1.00  0.00     0.141 C 
ATOM     30  H3  UNL     1       2.372  11.829  30.476  1.00  0.00     0.153 HD
HETATM   31  C19 UNL     1       2.105  15.000  31.481  1.00  0.00     0.124 C 
BRANCH  31  32
HETATM   32  N4  UNL     1       2.968  16.077  31.820  1.00  0.00    -0.349 N 
HETATM   33  C20 UNL     1       2.581  17.274  32.465  1.00  0.00     0.252 C 
HETATM   34  O4  UNL     1       1.359  17.366  32.757  1.00  0.00    -0.268 OA
ATOM     35  H4  UNL     1       3.954  15.978  31.575  1.00  0.00     0.163 HD
BRANCH  33  36
HETATM   36  C21 UNL     1       3.491  18.353  32.792  1.00  0.00     0.034 A 
HETATM   37  C22 UNL     1       4.074  19.074  31.746  1.00  0.00     0.034 A 
HETATM   38  C23 UNL     1       4.952  20.118  31.947  1.00  0.00     0.088 A 
HETATM   39  N5  UNL     1       5.251  20.444  33.204  1.00  0.00    -0.375 N 
HETATM   40  C24 UNL     1       4.719  19.784  34.223  1.00  0.00     0.088 A 
ATOM     41  H5  UNL     1       5.898  21.213  33.385  1.00  0.00     0.164 HD
HETATM   42  C25 UNL     1       3.829  18.726  34.051  1.00  0.00     0.034 A 
ENDBRANCH  33  36
ENDBRANCH  31  32
ENDBRANCH   3  24
TORSDOF 8
ENDMDL
