MODEL 1
REMARK VINA RESULT: -10.654493780      0.000      0.000
REMARK  8 active torsions:
REMARK  status: ('A' for Active; 'I' for Inactive)
REMARK    1  A    between atoms: C7_10  and  C8_11 
REMARK    2  A    between atoms: C11_14  and  O1_15 
REMARK    3  A    between atoms: C12_17  and  C13_18 
REMARK    4  A    between atoms: C13_18  and  C14_20 
REMARK    5  A    between atoms: C17_23  and  C18_24 
REMARK       I    between atoms: C18_24  and  N2_26 
REMARK    6  A    between atoms: N2_26  and  C19_28 
REMARK    7  A    between atoms: C24_36  and  N4_37 
REMARK       I    between atoms: N4_37  and  C25_39 
REMARK    8  A    between atoms: C25_39  and  C26_41 
ROOT
HETATM    1  C14 UNL     1      15.531  12.651  -0.776  1.00  0.00     0.015 A 
HETATM    2  C15 UNL     1      15.351  11.414  -0.194  1.00  0.00     0.016 A 
HETATM    3  C16 UNL     1      14.306  11.128   0.667  1.00  0.00     0.018 A 
HETATM    4  C17 UNL     1      13.392  12.110   0.972  1.00  0.00     0.032 A 
HETATM    5  C31 UNL     1      13.568  13.343   0.395  1.00  0.00     0.018 A 
HETATM    6  C32 UNL     1      14.594  13.649  -0.461  1.00  0.00     0.016 A 
ENDROOT
BRANCH   4   7
HETATM    7  C18 UNL     1      12.267  11.894   1.860  1.00  0.00     0.255 C 
HETATM    8  O3  UNL     1      11.929  12.871   2.584  1.00  0.00    -0.267 OA
HETATM    9  N2  UNL     1      11.512  10.721   2.006  1.00  0.00    -0.328 N 
ATOM     10  H2  UNL     1      11.774   9.924   1.426  1.00  0.00     0.168 HD
BRANCH   9  11
HETATM   11  C19 UNL     1      10.392  10.544   2.908  1.00  0.00     0.014 C 
HETATM   12  C20 UNL     1      10.830  10.771   4.303  1.00  0.00     0.056 C 
HETATM   13  C21 UNL     1      10.966   9.645   5.245  1.00  0.00     0.033 C 
HETATM   14  C22 UNL     1      11.561   8.431   4.595  1.00  0.00     0.232 C 
HETATM   15  N3  UNL     1      10.421   7.690   4.036  1.00  0.00    -0.073 N 
HETATM   16  C23 UNL     1      10.123   8.095   2.713  1.00  0.00     0.263 C 
ATOM     17  H32 UNL     1      10.572   6.682   4.090  1.00  0.00     0.277 HD
ATOM     18  H31 UNL     1       9.601   7.761   4.638  1.00  0.00     0.277 HD
HETATM   19  C24 UNL     1       9.484   9.441   2.580  1.00  0.00     0.156 C 
BRANCH  19  20
HETATM   20  N4  UNL     1       8.226   9.429   3.296  1.00  0.00    -0.345 N 
HETATM   21  C25 UNL     1       6.976   9.579   2.640  1.00  0.00     0.252 C 
HETATM   22  O4  UNL     1       6.925   9.729   1.360  1.00  0.00    -0.268 OA
ATOM     23  H4  UNL     1       8.238   9.309   4.309  1.00  0.00     0.163 HD
BRANCH  21  24
HETATM   24  C26 UNL     1       5.768   9.559   3.431  1.00  0.00     0.034 A 
HETATM   25  C27 UNL     1       4.567   9.177   2.898  1.00  0.00     0.034 A 
HETATM   26  C28 UNL     1       3.397   9.160   3.643  1.00  0.00     0.088 A 
HETATM   27  N5  UNL     1       3.459   9.532   4.928  1.00  0.00    -0.375 N 
HETATM   28  C29 UNL     1       4.621   9.912   5.477  1.00  0.00     0.088 A 
ATOM     29  H5  UNL     1       2.611   9.527   5.496  1.00  0.00     0.164 HD
HETATM   30  C30 UNL     1       5.793   9.935   4.756  1.00  0.00     0.034 A 
ENDBRANCH  21  24
ENDBRANCH  19  20
ENDBRANCH   9  11
ENDBRANCH   4   7
BRANCH   1  31
HETATM   31  C13 UNL     1      16.583  12.979  -1.725  1.00  0.00     0.198 C 
HETATM   32  O2  UNL     1      16.969  14.194  -1.675  1.00  0.00    -0.286 OA
BRANCH  31  33
HETATM   33  C12 UNL     1      17.215  12.105  -2.677  1.00  0.00     0.087 A 
HETATM   34  C11 UNL     1      16.487  11.539  -3.699  1.00  0.00     0.083 A 
HETATM   35  C10 UNL     1      17.089  10.623  -4.585  1.00  0.00     0.038 A 
HETATM   36  C9  UNL     1      18.414  10.281  -4.442  1.00  0.00     0.015 A 
HETATM   37  C8  UNL     1      19.171  10.819  -3.442  1.00  0.00     0.013 A 
HETATM   38  C33 UNL     1      18.534  11.738  -2.566  1.00  0.00     0.141 A 
HETATM   39  F1  UNL     1      19.289  12.209  -1.545  1.00  0.00    -0.204 F 
BRANCH  34  40
HETATM   40  O1  UNL     1      15.184  11.818  -3.917  1.00  0.00    -0.360 OA
ATOM     41  H1  UNL     1      14.574  11.098  -3.814  1.00  0.00     0.217 HD
ENDBRANCH  34  40
BRANCH  37  42
HETATM   42  C7  UNL     1      20.608  10.543  -3.225  1.00  0.00     0.229 C 
HETATM   43  C2  UNL     1      20.996   9.169  -2.888  1.00  0.00    -0.015 C 
HETATM   44  C1  UNL     1      22.355   9.203  -2.091  1.00  0.00     0.017 C 
HETATM   45  C3  UNL     1      20.038   8.505  -1.957  1.00  0.00     0.017 C 
HETATM   46  C4  UNL     1      21.315   8.268  -4.032  1.00  0.00     0.013 C 
HETATM   47  C5  UNL     1      22.125   8.942  -5.111  1.00  0.00     0.028 C 
HETATM   48  C6  UNL     1      21.351  10.184  -5.486  1.00  0.00     0.233 C 
HETATM   49  N1  UNL     1      21.360  11.072  -4.367  1.00  0.00    -0.066 N 
ATOM     50  H12 UNL     1      22.313  11.315  -4.098  1.00  0.00     0.278 HD
ATOM     51  H11 UNL     1      21.024  11.998  -4.631  1.00  0.00     0.278 HD
ENDBRANCH  37  42
ENDBRANCH  31  33
ENDBRANCH   1  31
TORSDOF 8
ENDMDL
