MODEL 6
REMARK VINA RESULT: -9.040238962      2.731      4.092
REMARK  8 active torsions:
REMARK  status: ('A' for Active; 'I' for Inactive)
REMARK    1  A    between atoms: C7_10  and  C8_11 
REMARK    2  A    between atoms: C11_14  and  O1_15 
REMARK    3  A    between atoms: C12_17  and  C13_18 
REMARK    4  A    between atoms: C13_18  and  C14_20 
REMARK    5  A    between atoms: C17_23  and  C18_24 
REMARK       I    between atoms: C18_24  and  N2_26 
REMARK    6  A    between atoms: N2_26  and  C19_28 
REMARK    7  A    between atoms: C24_36  and  N4_37 
REMARK       I    between atoms: N4_37  and  C25_39 
REMARK    8  A    between atoms: C25_39  and  C26_41 
ROOT
HETATM    1  C14 UNL     1      18.391  10.547  -0.450  1.00  0.00     0.015 A 
HETATM    2  C15 UNL     1      18.336   9.912   0.772  1.00  0.00     0.016 A 
HETATM    3  C16 UNL     1      17.174   9.799   1.514  1.00  0.00     0.018 A 
HETATM    4  C17 UNL     1      16.006  10.338   1.028  1.00  0.00     0.032 A 
HETATM    5  C31 UNL     1      16.057  10.972  -0.189  1.00  0.00     0.018 A 
HETATM    6  C32 UNL     1      17.195  11.096  -0.941  1.00  0.00     0.016 A 
ENDROOT
BRANCH   4   7
HETATM    7  C18 UNL     1      14.744  10.260   1.738  1.00  0.00     0.255 C 
HETATM    8  O3  UNL     1      13.753  10.812   1.182  1.00  0.00    -0.267 OA
HETATM    9  N2  UNL     1      14.500   9.642   2.972  1.00  0.00    -0.328 N 
ATOM     10  H2  UNL     1      15.291   9.192   3.432  1.00  0.00     0.168 HD
BRANCH   9  11
HETATM   11  C19 UNL     1      13.221   9.586   3.652  1.00  0.00     0.014 C 
HETATM   12  C20 UNL     1      13.385   9.997   5.063  1.00  0.00     0.056 C 
HETATM   13  C21 UNL     1      13.305   9.006   6.153  1.00  0.00     0.033 C 
HETATM   14  C22 UNL     1      13.981   7.717   5.796  1.00  0.00     0.232 C 
HETATM   15  N3  UNL     1      12.953   6.908   5.125  1.00  0.00    -0.073 N 
HETATM   16  C23 UNL     1      12.930   7.134   3.728  1.00  0.00     0.263 C 
ATOM     17  H32 UNL     1      13.064   5.916   5.339  1.00  0.00     0.277 HD
ATOM     18  H31 UNL     1      12.034   7.060   5.540  1.00  0.00     0.277 HD
HETATM   19  C24 UNL     1      12.365   8.450   3.298  1.00  0.00     0.156 C 
BRANCH  19  20
HETATM   20  N4  UNL     1      10.991   8.535   3.748  1.00  0.00    -0.345 N 
HETATM   21  C25 UNL     1      10.114   9.567   3.323  1.00  0.00     0.252 C 
HETATM   22  O4  UNL     1      10.524  10.474   2.503  1.00  0.00    -0.268 OA
ATOM     23  H4  UNL     1      10.641   7.827   4.394  1.00  0.00     0.163 HD
BRANCH  21  24
HETATM   24  C26 UNL     1       8.760   9.579   3.823  1.00  0.00     0.034 A 
HETATM   25  C27 UNL     1       7.722   9.060   3.098  1.00  0.00     0.034 A 
HETATM   26  C28 UNL     1       6.415   9.071   3.561  1.00  0.00     0.088 A 
HETATM   27  N5  UNL     1       6.174   9.611   4.763  1.00  0.00    -0.375 N 
HETATM   28  C29 UNL     1       7.170  10.128   5.496  1.00  0.00     0.088 A 
ATOM     29  H5  UNL     1       5.220   9.630   5.125  1.00  0.00     0.164 HD
HETATM   30  C30 UNL     1       8.474  10.126   5.054  1.00  0.00     0.034 A 
ENDBRANCH  21  24
ENDBRANCH  19  20
ENDBRANCH   9  11
ENDBRANCH   4   7
BRANCH   1  31
HETATM   31  C13 UNL     1      19.579  10.644  -1.284  1.00  0.00     0.198 C 
HETATM   32  O2  UNL     1      19.571  11.635  -2.089  1.00  0.00    -0.286 OA
BRANCH  31  33
HETATM   33  C12 UNL     1      20.723   9.772  -1.294  1.00  0.00     0.087 A 
HETATM   34  C11 UNL     1      21.875  10.118  -0.625  1.00  0.00     0.083 A 
HETATM   35  C10 UNL     1      23.019   9.299  -0.700  1.00  0.00     0.038 A 
HETATM   36  C9  UNL     1      23.003   8.141  -1.442  1.00  0.00     0.015 A 
HETATM   37  C8  UNL     1      21.881   7.762  -2.121  1.00  0.00     0.013 A 
HETATM   38  C33 UNL     1      20.746   8.609  -2.026  1.00  0.00     0.141 A 
HETATM   39  F1  UNL     1      19.666   8.243  -2.759  1.00  0.00    -0.204 F 
BRANCH  34  40
HETATM   40  O1  UNL     1      21.981  11.232   0.129  1.00  0.00    -0.360 OA
ATOM     41  H1  UNL     1      22.856  11.471   0.411  1.00  0.00     0.217 HD
ENDBRANCH  34  40
BRANCH  37  42
HETATM   42  C7  UNL     1      21.752   6.522  -2.917  1.00  0.00     0.229 C 
HETATM   43  C2  UNL     1      22.517   6.428  -4.166  1.00  0.00    -0.015 C 
HETATM   44  C1  UNL     1      21.791   5.420  -5.135  1.00  0.00     0.017 C 
HETATM   45  C3  UNL     1      22.550   7.712  -4.925  1.00  0.00     0.017 C 
HETATM   46  C4  UNL     1      23.887   5.850  -4.065  1.00  0.00     0.013 C 
HETATM   47  C5  UNL     1      23.961   4.654  -3.149  1.00  0.00     0.028 C 
HETATM   48  C6  UNL     1      23.373   5.111  -1.834  1.00  0.00     0.233 C 
HETATM   49  N1  UNL     1      21.983   5.376  -2.032  1.00  0.00    -0.066 N 
ATOM     50  H12 UNL     1      21.496   4.546  -2.371  1.00  0.00     0.278 HD
ATOM     51  H11 UNL     1      21.502   5.496  -1.142  1.00  0.00     0.278 HD
ENDBRANCH  37  42
ENDBRANCH  31  33
ENDBRANCH   1  31
TORSDOF 8
ENDMDL
