MODEL 4
REMARK VINA RESULT: -9.484118312      2.947     12.946
REMARK  8 active torsions:
REMARK  status: ('A' for Active; 'I' for Inactive)
REMARK    1  A    between atoms: C7_10  and  C8_11 
REMARK    2  A    between atoms: C11_14  and  O1_15 
REMARK    3  A    between atoms: C12_17  and  C13_18 
REMARK    4  A    between atoms: C13_18  and  C14_20 
REMARK    5  A    between atoms: C17_23  and  C18_24 
REMARK       I    between atoms: C18_24  and  N2_26 
REMARK    6  A    between atoms: N2_26  and  C19_28 
REMARK    7  A    between atoms: C24_36  and  N4_37 
REMARK       I    between atoms: N4_37  and  C25_39 
REMARK    8  A    between atoms: C25_39  and  C26_41 
ROOT
HETATM    1  C14 UNL     1      13.105  10.206   3.122  1.00  0.00     0.015 A 
HETATM    2  C15 UNL     1      12.997  11.281   2.266  1.00  0.00     0.016 A 
HETATM    3  C16 UNL     1      13.880  11.513   1.226  1.00  0.00     0.018 A 
HETATM    4  C17 UNL     1      14.924  10.642   1.019  1.00  0.00     0.032 A 
HETATM    5  C31 UNL     1      15.036   9.570   1.870  1.00  0.00     0.018 A 
HETATM    6  C32 UNL     1      14.173   9.320   2.905  1.00  0.00     0.016 A 
ENDROOT
BRANCH   4   7
HETATM    7  C18 UNL     1      15.892  10.807  -0.048  1.00  0.00     0.255 C 
HETATM    8  O3  UNL     1      17.108  10.770   0.287  1.00  0.00    -0.267 OA
HETATM    9  N2  UNL     1      15.628  11.005  -1.411  1.00  0.00    -0.328 N 
ATOM     10  H2  UNL     1      14.650  11.036  -1.696  1.00  0.00     0.168 HD
BRANCH   9  11
HETATM   11  C19 UNL     1      16.625  11.168  -2.450  1.00  0.00     0.014 C 
HETATM   12  C20 UNL     1      16.195  12.218  -3.398  1.00  0.00     0.056 C 
HETATM   13  C21 UNL     1      15.737  11.869  -4.757  1.00  0.00     0.033 C 
HETATM   14  C22 UNL     1      14.888  10.633  -4.768  1.00  0.00     0.232 C 
HETATM   15  N3  UNL     1      15.830   9.513  -4.910  1.00  0.00    -0.073 N 
HETATM   16  C23 UNL     1      16.280   9.038  -3.654  1.00  0.00     0.263 C 
ATOM     17  H32 UNL     1      15.429   8.760  -5.469  1.00  0.00     0.277 HD
ATOM     18  H31 UNL     1      16.613   9.762  -5.514  1.00  0.00     0.277 HD
HETATM   19  C24 UNL     1      17.242   9.929  -2.935  1.00  0.00     0.156 C 
BRANCH  19  20
HETATM   20  N4  UNL     1      18.423  10.096  -3.757  1.00  0.00    -0.345 N 
HETATM   21  C25 UNL     1      19.730   9.834  -3.269  1.00  0.00     0.252 C 
HETATM   22  O4  UNL     1      19.905   9.428  -2.058  1.00  0.00    -0.268 OA
ATOM     23  H4  UNL     1      18.311  10.413  -4.720  1.00  0.00     0.163 HD
BRANCH  21  24
HETATM   24  C26 UNL     1      20.855  10.029  -4.155  1.00  0.00     0.034 A 
HETATM   25  C27 UNL     1      21.694   9.001  -4.486  1.00  0.00     0.034 A 
HETATM   26  C28 UNL     1      22.782   9.174  -5.328  1.00  0.00     0.088 A 
HETATM   27  N5  UNL     1      23.007  10.396  -5.830  1.00  0.00    -0.375 N 
HETATM   28  C29 UNL     1      22.201  11.422  -5.523  1.00  0.00     0.088 A 
ATOM     29  H5  UNL     1      23.801  10.548  -6.452  1.00  0.00     0.164 HD
HETATM   30  C30 UNL     1      21.117  11.271  -4.689  1.00  0.00     0.034 A 
ENDBRANCH  21  24
ENDBRANCH  19  20
ENDBRANCH   9  11
ENDBRANCH   4   7
BRANCH   1  31
HETATM   31  C13 UNL     1      12.171   9.898   4.193  1.00  0.00     0.198 C 
HETATM   32  O2  UNL     1      12.581  10.234   5.355  1.00  0.00    -0.286 OA
BRANCH  31  33
HETATM   33  C12 UNL     1      10.878   9.278   4.084  1.00  0.00     0.087 A 
HETATM   34  C11 UNL     1      10.755   7.907   4.089  1.00  0.00     0.083 A 
HETATM   35  C10 UNL     1       9.496   7.300   3.904  1.00  0.00     0.038 A 
HETATM   36  C9  UNL     1       8.371   8.069   3.716  1.00  0.00     0.015 A 
HETATM   37  C8  UNL     1       8.450   9.432   3.704  1.00  0.00     0.013 A 
HETATM   38  C33 UNL     1       9.732  10.011   3.892  1.00  0.00     0.141 A 
HETATM   39  F1  UNL     1       9.793  11.362   3.813  1.00  0.00    -0.204 F 
BRANCH  34  40
HETATM   40  O1  UNL     1      11.802   7.075   4.270  1.00  0.00    -0.360 OA
ATOM     41  H1  UNL     1      12.397   6.977   3.536  1.00  0.00     0.217 HD
ENDBRANCH  34  40
BRANCH  37  42
HETATM   42  C7  UNL     1       7.297  10.345   3.543  1.00  0.00     0.229 C 
HETATM   43  C2  UNL     1       6.350  10.067   2.458  1.00  0.00    -0.015 C 
HETATM   44  C1  UNL     1       5.636  11.409   2.046  1.00  0.00     0.017 C 
HETATM   45  C3  UNL     1       7.019   9.605   1.207  1.00  0.00     0.017 C 
HETATM   46  C4  UNL     1       5.201   9.177   2.789  1.00  0.00     0.013 C 
HETATM   47  C5  UNL     1       4.596   9.466   4.140  1.00  0.00     0.028 C 
HETATM   48  C6  UNL     1       5.743   9.402   5.121  1.00  0.00     0.233 C 
HETATM   49  N1  UNL     1       6.632  10.486   4.843  1.00  0.00    -0.066 N 
ATOM     50  H12 UNL     1       6.152  11.383   4.914  1.00  0.00     0.278 HD
ATOM     51  H11 UNL     1       7.312  10.605   5.593  1.00  0.00     0.278 HD
ENDBRANCH  37  42
ENDBRANCH  31  33
ENDBRANCH   1  31
TORSDOF 8
ENDMDL
