MODEL 2
REMARK VINA RESULT: -10.398359809      0.697      1.286
REMARK  8 active torsions:
REMARK  status: ('A' for Active; 'I' for Inactive)
REMARK    1  A    between atoms: C7_10  and  C8_11 
REMARK    2  A    between atoms: C11_14  and  O1_15 
REMARK    3  A    between atoms: C12_17  and  C13_18 
REMARK    4  A    between atoms: C13_18  and  C14_20 
REMARK    5  A    between atoms: C17_23  and  C18_24 
REMARK       I    between atoms: C18_24  and  N2_26 
REMARK    6  A    between atoms: N2_26  and  C19_28 
REMARK    7  A    between atoms: C24_36  and  N4_37 
REMARK       I    between atoms: N4_37  and  C25_39 
REMARK    8  A    between atoms: C25_39  and  C26_41 
ROOT
HETATM    1  C14 UNL     1      15.555  12.703  -0.759  1.00  0.00     0.015 A 
HETATM    2  C15 UNL     1      14.622  13.690  -0.524  1.00  0.00     0.016 A 
HETATM    3  C16 UNL     1      13.531  13.517   0.311  1.00  0.00     0.018 A 
HETATM    4  C17 UNL     1      13.351  12.311   0.947  1.00  0.00     0.032 A 
HETATM    5  C31 UNL     1      14.278  11.325   0.714  1.00  0.00     0.018 A 
HETATM    6  C32 UNL     1      15.365  11.474  -0.107  1.00  0.00     0.016 A 
ENDROOT
BRANCH   4   7
HETATM    7  C18 UNL     1      12.240  12.047   1.841  1.00  0.00     0.255 C 
HETATM    8  O3  UNL     1      11.839  13.020   2.538  1.00  0.00    -0.267 OA
HETATM    9  N2  UNL     1      11.562  10.833   2.018  1.00  0.00    -0.328 N 
ATOM     10  H2  UNL     1      11.876  10.039   1.460  1.00  0.00     0.168 HD
BRANCH   9  11
HETATM   11  C19 UNL     1      10.454  10.608   2.924  1.00  0.00     0.014 C 
HETATM   12  C20 UNL     1      10.900  10.809   4.321  1.00  0.00     0.056 C 
HETATM   13  C21 UNL     1      11.068   9.661   5.233  1.00  0.00     0.033 C 
HETATM   14  C22 UNL     1      11.682   8.478   4.546  1.00  0.00     0.232 C 
HETATM   15  N3  UNL     1      10.553   7.727   3.977  1.00  0.00    -0.073 N 
HETATM   16  C23 UNL     1      10.236   8.160   2.667  1.00  0.00     0.263 C 
ATOM     17  H32 UNL     1      10.727   6.722   4.004  1.00  0.00     0.277 HD
ATOM     18  H31 UNL     1       9.738   7.766   4.588  1.00  0.00     0.277 HD
HETATM   19  C24 UNL     1       9.566   9.495   2.575  1.00  0.00     0.156 C 
BRANCH  19  20
HETATM   20  N4  UNL     1       8.315   9.437   3.302  1.00  0.00    -0.345 N 
HETATM   21  C25 UNL     1       7.063   9.687   2.680  1.00  0.00     0.252 C 
HETATM   22  O4  UNL     1       7.005   9.973   1.424  1.00  0.00    -0.268 OA
ATOM     23  H4  UNL     1       8.334   9.210   4.296  1.00  0.00     0.163 HD
BRANCH  21  24
HETATM   24  C26 UNL     1       5.863   9.612   3.479  1.00  0.00     0.034 A 
HETATM   25  C27 UNL     1       5.834  10.056   4.773  1.00  0.00     0.034 A 
HETATM   26  C28 UNL     1       4.691   9.984   5.556  1.00  0.00     0.088 A 
HETATM   27  N5  UNL     1       3.584   9.459   5.014  1.00  0.00    -0.375 N 
HETATM   28  C29 UNL     1       3.583   9.016   3.749  1.00  0.00     0.088 A 
ATOM     29  H5  UNL     1       2.731   9.397   5.570  1.00  0.00     0.164 HD
HETATM   30  C30 UNL     1       4.706   9.079   2.956  1.00  0.00     0.034 A 
ENDBRANCH  21  24
ENDBRANCH  19  20
ENDBRANCH   9  11
ENDBRANCH   4   7
BRANCH   1  31
HETATM   31  C13 UNL     1      16.740  12.859  -1.587  1.00  0.00     0.198 C 
HETATM   32  O2  UNL     1      17.233  14.036  -1.576  1.00  0.00    -0.286 OA
BRANCH  31  33
HETATM   33  C12 UNL     1      17.393  11.858  -2.389  1.00  0.00     0.087 A 
HETATM   34  C11 UNL     1      16.853  11.460  -3.590  1.00  0.00     0.083 A 
HETATM   35  C10 UNL     1      17.452  10.426  -4.337  1.00  0.00     0.038 A 
HETATM   36  C9  UNL     1      18.585   9.797  -3.875  1.00  0.00     0.015 A 
HETATM   37  C8  UNL     1      19.153  10.161  -2.688  1.00  0.00     0.013 A 
HETATM   38  C33 UNL     1      18.524  11.207  -1.961  1.00  0.00     0.141 A 
HETATM   39  F1  UNL     1      19.070  11.507  -0.757  1.00  0.00    -0.204 F 
BRANCH  34  40
HETATM   40  O1  UNL     1      15.746  12.021  -4.122  1.00  0.00    -0.360 OA
ATOM     41  H1  UNL     1      14.912  11.685  -3.815  1.00  0.00     0.217 HD
ENDBRANCH  34  40
BRANCH  37  42
HETATM   42  C7  UNL     1      20.387   9.573  -2.123  1.00  0.00     0.229 C 
HETATM   43  C2  UNL     1      20.424   8.120  -1.928  1.00  0.00    -0.015 C 
HETATM   44  C1  UNL     1      21.455   7.784  -0.785  1.00  0.00     0.017 C 
HETATM   45  C3  UNL     1      19.130   7.566  -1.433  1.00  0.00     0.017 C 
HETATM   46  C4  UNL     1      20.931   7.307  -3.070  1.00  0.00     0.013 C 
HETATM   47  C5  UNL     1      22.134   7.918  -3.745  1.00  0.00     0.028 C 
HETATM   48  C6  UNL     1      21.726   9.327  -4.108  1.00  0.00     0.233 C 
HETATM   49  N1  UNL     1      21.531  10.063  -2.899  1.00  0.00    -0.066 N 
ATOM     50  H12 UNL     1      22.380  10.072  -2.334  1.00  0.00     0.278 HD
ATOM     51  H11 UNL     1      21.448  11.061  -3.086  1.00  0.00     0.278 HD
ENDBRANCH  37  42
ENDBRANCH  31  33
ENDBRANCH   1  31
TORSDOF 8
ENDMDL
