MODEL 5
REMARK VINA RESULT: -9.289729493      3.354      4.883
REMARK  8 active torsions:
REMARK  status: ('A' for Active; 'I' for Inactive)
REMARK    1  A    between atoms: C7_10  and  C8_11 
REMARK    2  A    between atoms: C11_14  and  O1_15 
REMARK    3  A    between atoms: C12_17  and  C13_18 
REMARK    4  A    between atoms: C13_18  and  C14_20 
REMARK    5  A    between atoms: C17_23  and  C18_24 
REMARK       I    between atoms: C18_24  and  N2_26 
REMARK    6  A    between atoms: N2_26  and  C19_28 
REMARK    7  A    between atoms: C24_36  and  N4_37 
REMARK       I    between atoms: N4_37  and  C25_39 
REMARK    8  A    between atoms: C25_39  and  C26_41 
ROOT
HETATM    1  C14 UNL     1      18.369   6.514  -0.693  1.00  0.00     0.015 A 
HETATM    2  C15 UNL     1      18.533   7.050   0.567  1.00  0.00     0.016 A 
HETATM    3  C16 UNL     1      17.511   7.671   1.263  1.00  0.00     0.018 A 
HETATM    4  C17 UNL     1      16.265   7.770   0.691  1.00  0.00     0.032 A 
HETATM    5  C31 UNL     1      16.098   7.238  -0.564  1.00  0.00     0.018 A 
HETATM    6  C32 UNL     1      17.094   6.618  -1.272  1.00  0.00     0.016 A 
ENDROOT
BRANCH   4   7
HETATM    7  C18 UNL     1      15.139   8.400   1.352  1.00  0.00     0.255 C 
HETATM    8  O3  UNL     1      14.630   9.395   0.766  1.00  0.00    -0.267 OA
HETATM    9  N2  UNL     1      14.552   8.028   2.570  1.00  0.00    -0.328 N 
ATOM     10  H2  UNL     1      14.953   7.226   3.054  1.00  0.00     0.168 HD
BRANCH   9  11
HETATM   11  C19 UNL     1      13.425   8.686   3.201  1.00  0.00     0.014 C 
HETATM   12  C20 UNL     1      13.886   9.897   3.915  1.00  0.00     0.056 C 
HETATM   13  C21 UNL     1      13.935   9.932   5.389  1.00  0.00     0.033 C 
HETATM   14  C22 UNL     1      14.427   8.641   5.970  1.00  0.00     0.232 C 
HETATM   15  N3  UNL     1      13.228   7.804   6.134  1.00  0.00    -0.073 N 
HETATM   16  C23 UNL     1      12.959   7.033   4.978  1.00  0.00     0.263 C 
ATOM     17  H32 UNL     1      13.298   7.216   6.964  1.00  0.00     0.277 HD
ATOM     18  H31 UNL     1      12.420   8.365   6.402  1.00  0.00     0.277 HD
HETATM   19  C24 UNL     1      12.430   7.795   3.804  1.00  0.00     0.156 C 
BRANCH  19  20
HETATM   20  N4  UNL     1      11.178   8.417   4.182  1.00  0.00    -0.345 N 
HETATM   21  C25 UNL     1       9.931   8.006   3.640  1.00  0.00     0.252 C 
HETATM   22  O4  UNL     1       9.879   7.045   2.782  1.00  0.00    -0.268 OA
ATOM     23  H4  UNL     1      11.192   9.177   4.862  1.00  0.00     0.163 HD
BRANCH  21  24
HETATM   24  C26 UNL     1       8.730   8.682   4.069  1.00  0.00     0.034 A 
HETATM   25  C27 UNL     1       7.618   8.744   3.273  1.00  0.00     0.034 A 
HETATM   26  C28 UNL     1       6.459   9.397   3.668  1.00  0.00     0.088 A 
HETATM   27  N5  UNL     1       6.441   9.982   4.873  1.00  0.00    -0.375 N 
HETATM   28  C29 UNL     1       7.515   9.938   5.673  1.00  0.00     0.088 A 
ATOM     29  H5  UNL     1       5.600  10.467   5.185  1.00  0.00     0.164 HD
HETATM   30  C30 UNL     1       8.674   9.296   5.301  1.00  0.00     0.034 A 
ENDBRANCH  21  24
ENDBRANCH  19  20
ENDBRANCH   9  11
ENDBRANCH   4   7
BRANCH   1  31
HETATM   31  C13 UNL     1      19.401   5.810  -1.438  1.00  0.00     0.198 C 
HETATM   32  O2  UNL     1      19.236   4.545  -1.489  1.00  0.00    -0.286 OA
BRANCH  31  33
HETATM   33  C12 UNL     1      20.547   6.372  -2.102  1.00  0.00     0.087 A 
HETATM   34  C11 UNL     1      21.785   5.780  -1.986  1.00  0.00     0.083 A 
HETATM   35  C10 UNL     1      22.920   6.373  -2.573  1.00  0.00     0.038 A 
HETATM   36  C9  UNL     1      22.809   7.554  -3.271  1.00  0.00     0.015 A 
HETATM   37  C8  UNL     1      21.600   8.173  -3.409  1.00  0.00     0.013 A 
HETATM   38  C33 UNL     1      20.477   7.549  -2.805  1.00  0.00     0.141 A 
HETATM   39  F1  UNL     1      19.301   8.216  -2.903  1.00  0.00    -0.204 F 
BRANCH  34  40
HETATM   40  O1  UNL     1      21.987   4.621  -1.323  1.00  0.00    -0.360 OA
ATOM     41  H1  UNL     1      21.754   4.614  -0.402  1.00  0.00     0.217 HD
ENDBRANCH  34  40
BRANCH  37  42
HETATM   42  C7  UNL     1      21.371   9.423  -4.167  1.00  0.00     0.229 C 
HETATM   43  C2  UNL     1      21.931  10.665  -3.623  1.00  0.00    -0.015 C 
HETATM   44  C1  UNL     1      21.081  11.883  -4.149  1.00  0.00     0.017 C 
HETATM   45  C3  UNL     1      21.820  10.751  -2.138  1.00  0.00     0.017 C 
HETATM   46  C4  UNL     1      23.311  11.020  -4.061  1.00  0.00     0.013 C 
HETATM   47  C5  UNL     1      23.551  10.770  -5.528  1.00  0.00     0.028 C 
HETATM   48  C6  UNL     1      23.169   9.327  -5.763  1.00  0.00     0.233 C 
HETATM   49  N1  UNL     1      21.761   9.198  -5.563  1.00  0.00    -0.066 N 
ATOM     50  H12 UNL     1      21.242   9.810  -6.192  1.00  0.00     0.278 HD
ATOM     51  H11 UNL     1      21.423   8.296  -5.898  1.00  0.00     0.278 HD
ENDBRANCH  37  42
ENDBRANCH  31  33
ENDBRANCH   1  31
TORSDOF 8
ENDMDL
