MODEL 2
REMARK VINA RESULT: -10.247680350      2.966      9.657
REMARK  8 active torsions:
REMARK  status: ('A' for Active; 'I' for Inactive)
REMARK    1  A    between atoms: N1_2  and  C3_4 
REMARK    2  A    between atoms: C6_7  and  O1_8 
REMARK    3  A    between atoms: C7_10  and  C8_11 
REMARK    4  A    between atoms: C8_11  and  C9_13 
REMARK    5  A    between atoms: C12_16  and  C13_17 
REMARK       I    between atoms: C13_17  and  N2_19 
REMARK    6  A    between atoms: N2_19  and  C14_21 
REMARK    7  A    between atoms: C19_28  and  N4_29 
REMARK       I    between atoms: N4_29  and  C20_31 
REMARK    8  A    between atoms: C20_31  and  C21_33 
ROOT
HETATM    1  C13 UNL     1       9.046  35.256  17.341  1.00  0.00     0.252 C 
HETATM    2  O3  UNL     1       8.802  34.551  16.334  1.00  0.00    -0.268 OA
HETATM    3  N2  UNL     1       9.849  34.693  18.364  1.00  0.00    -0.350 N 
ATOM      4  H2  UNL     1      10.045  35.265  19.186  1.00  0.00     0.163 HD
ENDROOT
BRANCH   1   5
HETATM    5  C12 UNL     1       8.496  36.604  17.407  1.00  0.00     0.032 A 
HETATM    6  C11 UNL     1       9.140  37.531  18.186  1.00  0.00     0.018 A 
HETATM    7  C10 UNL     1       8.695  38.831  18.318  1.00  0.00     0.016 A 
HETATM    8  C9  UNL     1       7.568  39.222  17.653  1.00  0.00     0.015 A 
HETATM    9  C27 UNL     1       6.928  38.265  16.866  1.00  0.00     0.016 A 
HETATM   10  C26 UNL     1       7.358  36.972  16.724  1.00  0.00     0.018 A 
BRANCH   8  11
HETATM   11  C8  UNL     1       7.021  40.545  17.776  1.00  0.00     0.195 C 
HETATM   12  O2  UNL     1       5.963  40.616  18.513  1.00  0.00    -0.287 OA
BRANCH  11  13
HETATM   13  C7  UNL     1       7.499  41.760  17.196  1.00  0.00     0.050 A 
HETATM   14  C6  UNL     1       7.425  41.893  15.792  1.00  0.00     0.080 A 
HETATM   15  C5  UNL     1       7.828  43.042  15.158  1.00  0.00     0.040 A 
HETATM   16  C4  UNL     1       8.321  44.100  15.883  1.00  0.00     0.032 A 
HETATM   17  C3  UNL     1       8.409  44.014  17.241  1.00  0.00     0.030 A 
HETATM   18  C28 UNL     1       7.996  42.849  17.854  1.00  0.00     0.047 A 
BRANCH  14  19
HETATM   19  O1  UNL     1       6.935  40.847  15.027  1.00  0.00    -0.360 OA
ATOM     20  H1  UNL     1       7.497  40.099  14.860  1.00  0.00     0.217 HD
ENDBRANCH  14  19
BRANCH  17  21
HETATM   21  N1  UNL     1       8.928  45.134  17.975  1.00  0.00    -0.390 N 
HETATM   22  C1  UNL     1       8.100  46.312  18.142  1.00  0.00     0.149 C 
HETATM   23  C2  UNL     1      10.251  45.146  18.565  1.00  0.00     0.149 C 
ENDBRANCH  17  21
ENDBRANCH  11  13
ENDBRANCH   8  11
ENDBRANCH   1   5
BRANCH   3  24
HETATM   24  C14 UNL     1      10.410  33.358  18.319  1.00  0.00     0.109 C 
HETATM   25  C15 UNL     1      10.708  32.972  19.778  1.00  0.00     0.029 C 
HETATM   26  C16 UNL     1      10.671  31.470  19.865  1.00  0.00     0.021 C 
HETATM   27  C17 UNL     1      11.678  30.809  18.930  1.00  0.00     0.114 C 
HETATM   28  N3  UNL     1      11.309  30.854  17.560  1.00  0.00    -0.419 N 
HETATM   29  C18 UNL     1      11.740  31.972  16.807  1.00  0.00     0.141 C 
ATOM     30  H3  UNL     1      10.754  30.110  17.136  1.00  0.00     0.153 HD
HETATM   31  C19 UNL     1      11.703  33.282  17.559  1.00  0.00     0.124 C 
BRANCH  31  32
HETATM   32  N4  UNL     1      11.973  34.420  16.752  1.00  0.00    -0.349 N 
HETATM   33  C20 UNL     1      12.587  35.616  17.192  1.00  0.00     0.252 C 
HETATM   34  O4  UNL     1      12.915  35.646  18.407  1.00  0.00    -0.268 OA
ATOM     35  H4  UNL     1      11.700  34.370  15.771  1.00  0.00     0.163 HD
BRANCH  33  36
HETATM   36  C21 UNL     1      12.843  36.759  16.339  1.00  0.00     0.034 A 
HETATM   37  C22 UNL     1      11.753  37.444  15.796  1.00  0.00     0.034 A 
HETATM   38  C23 UNL     1      11.885  38.543  14.973  1.00  0.00     0.088 A 
HETATM   39  N5  UNL     1      13.119  38.960  14.689  1.00  0.00    -0.375 N 
HETATM   40  C24 UNL     1      14.178  38.336  15.184  1.00  0.00     0.088 A 
ATOM     41  H5  UNL     1      13.249  39.771  14.083  1.00  0.00     0.164 HD
HETATM   42  C25 UNL     1      14.075  37.224  16.018  1.00  0.00     0.034 A 
ENDBRANCH  33  36
ENDBRANCH  31  32
ENDBRANCH   3  24
TORSDOF 8
ENDMDL
