MODEL 1
REMARK VINA RESULT: -10.424763379      0.000      0.000
REMARK  8 active torsions:
REMARK  status: ('A' for Active; 'I' for Inactive)
REMARK    1  A    between atoms: N1_2  and  C3_4 
REMARK    2  A    between atoms: C6_7  and  O1_8 
REMARK    3  A    between atoms: C7_10  and  C8_11 
REMARK    4  A    between atoms: C8_11  and  C9_13 
REMARK    5  A    between atoms: C12_16  and  C13_17 
REMARK       I    between atoms: C13_17  and  N2_19 
REMARK    6  A    between atoms: N2_19  and  C14_21 
REMARK    7  A    between atoms: C19_28  and  N4_29 
REMARK       I    between atoms: N4_29  and  C20_31 
REMARK    8  A    between atoms: C20_31  and  C21_33 
ROOT
HETATM    1  C13 UNL     1      11.667  40.179  13.941  1.00  0.00     0.252 C 
HETATM    2  O3  UNL     1      12.182  41.308  14.115  1.00  0.00    -0.268 OA
HETATM    3  N2  UNL     1      10.676  40.050  12.937  1.00  0.00    -0.350 N 
ATOM      4  H2  UNL     1      10.253  39.132  12.799  1.00  0.00     0.163 HD
ENDROOT
BRANCH   1   5
HETATM    5  C12 UNL     1      12.110  39.068  14.774  1.00  0.00     0.032 A 
HETATM    6  C11 UNL     1      11.163  38.356  15.464  1.00  0.00     0.018 A 
HETATM    7  C10 UNL     1      11.483  37.291  16.283  1.00  0.00     0.016 A 
HETATM    8  C9  UNL     1      12.791  36.924  16.422  1.00  0.00     0.015 A 
HETATM    9  C27 UNL     1      13.738  37.660  15.712  1.00  0.00     0.016 A 
HETATM   10  C26 UNL     1      13.437  38.718  14.894  1.00  0.00     0.018 A 
BRANCH   8  11
HETATM   11  C8  UNL     1      13.203  35.854  17.288  1.00  0.00     0.195 C 
HETATM   12  O2  UNL     1      14.309  36.077  17.918  1.00  0.00    -0.287 OA
BRANCH  11  13
HETATM   13  C7  UNL     1      12.550  34.608  17.532  1.00  0.00     0.050 A 
HETATM   14  C6  UNL     1      12.545  33.652  16.492  1.00  0.00     0.080 A 
HETATM   15  C5  UNL     1      11.972  32.416  16.657  1.00  0.00     0.040 A 
HETATM   16  C4  UNL     1      11.381  32.076  17.850  1.00  0.00     0.032 A 
HETATM   17  C3  UNL     1      11.364  32.969  18.880  1.00  0.00     0.030 A 
HETATM   18  C28 UNL     1      11.947  34.204  18.690  1.00  0.00     0.047 A 
BRANCH  14  19
HETATM   19  O1  UNL     1      13.131  33.959  15.274  1.00  0.00    -0.360 OA
ATOM     20  H1  UNL     1      14.045  34.218  15.259  1.00  0.00     0.217 HD
ENDBRANCH  14  19
BRANCH  17  21
HETATM   21  N1  UNL     1      10.739  32.589  20.116  1.00  0.00    -0.390 N 
HETATM   22  C1  UNL     1      10.038  31.322  20.193  1.00  0.00     0.149 C 
HETATM   23  C2  UNL     1      10.775  33.416  21.305  1.00  0.00     0.149 C 
ENDBRANCH  17  21
ENDBRANCH  11  13
ENDBRANCH   8  11
ENDBRANCH   1   5
BRANCH   3  24
HETATM   24  C14 UNL     1      10.222  41.139  12.095  1.00  0.00     0.109 C 
HETATM   25  C15 UNL     1      11.451  42.036  11.863  1.00  0.00     0.029 C 
HETATM   26  C16 UNL     1      11.241  42.761  10.561  1.00  0.00     0.021 C 
HETATM   27  C17 UNL     1       9.968  43.601  10.561  1.00  0.00     0.114 C 
HETATM   28  N3  UNL     1       8.774  42.839  10.462  1.00  0.00    -0.419 N 
HETATM   29  C18 UNL     1       8.177  42.407  11.671  1.00  0.00     0.141 C 
ATOM     30  H3  UNL     1       8.364  42.611   9.557  1.00  0.00     0.153 HD
HETATM   31  C19 UNL     1       9.160  41.984  12.736  1.00  0.00     0.124 C 
BRANCH  31  32
HETATM   32  N4  UNL     1       8.557  41.394  13.880  1.00  0.00    -0.349 N 
HETATM   33  C20 UNL     1       8.625  41.896  15.200  1.00  0.00     0.252 C 
HETATM   34  O4  UNL     1       9.281  42.960  15.346  1.00  0.00    -0.268 OA
ATOM     35  H4  UNL     1       8.029  40.534  13.735  1.00  0.00     0.163 HD
BRANCH  33  36
HETATM   36  C21 UNL     1       7.999  41.263  16.343  1.00  0.00     0.034 A 
HETATM   37  C22 UNL     1       7.070  41.997  17.087  1.00  0.00     0.034 A 
HETATM   38  C23 UNL     1       6.418  41.490  18.191  1.00  0.00     0.088 A 
HETATM   39  N5  UNL     1       6.697  40.239  18.556  1.00  0.00    -0.375 N 
HETATM   40  C24 UNL     1       7.572  39.511  17.877  1.00  0.00     0.088 A 
ATOM     41  H5  UNL     1       6.230  39.836  19.369  1.00  0.00     0.164 HD
HETATM   42  C25 UNL     1       8.246  39.996  16.758  1.00  0.00     0.034 A 
ENDBRANCH  33  36
ENDBRANCH  31  32
ENDBRANCH   3  24
TORSDOF 8
ENDMDL
