MODEL 3
REMARK VINA RESULT: -10.138401699      2.372      9.737
REMARK  8 active torsions:
REMARK  status: ('A' for Active; 'I' for Inactive)
REMARK    1  A    between atoms: N1_2  and  C3_4 
REMARK    2  A    between atoms: C6_7  and  O1_8 
REMARK    3  A    between atoms: C7_10  and  C8_11 
REMARK    4  A    between atoms: C8_11  and  C9_13 
REMARK    5  A    between atoms: C12_16  and  C13_17 
REMARK       I    between atoms: C13_17  and  N2_19 
REMARK    6  A    between atoms: N2_19  and  C14_21 
REMARK    7  A    between atoms: C19_28  and  N4_29 
REMARK       I    between atoms: N4_29  and  C20_31 
REMARK    8  A    between atoms: C20_31  and  C21_33 
ROOT
HETATM    1  C13 UNL     1       9.003  34.985  17.636  1.00  0.00     0.252 C 
HETATM    2  O3  UNL     1       8.662  34.263  16.671  1.00  0.00    -0.268 OA
HETATM    3  N2  UNL     1       9.894  34.436  18.592  1.00  0.00    -0.350 N 
ATOM      4  H2  UNL     1      10.169  35.024  19.380  1.00  0.00     0.163 HD
ENDROOT
BRANCH   1   5
HETATM    5  C12 UNL     1       8.470  36.339  17.725  1.00  0.00     0.032 A 
HETATM    6  C11 UNL     1       7.601  36.759  16.750  1.00  0.00     0.018 A 
HETATM    7  C10 UNL     1       7.047  38.024  16.742  1.00  0.00     0.016 A 
HETATM    8  C9  UNL     1       7.370  38.901  17.738  1.00  0.00     0.015 A 
HETATM    9  C27 UNL     1       8.254  38.455  18.719  1.00  0.00     0.016 A 
HETATM   10  C26 UNL     1       8.811  37.203  18.742  1.00  0.00     0.018 A 
BRANCH   8  11
HETATM   11  C8  UNL     1       6.866  40.247  17.772  1.00  0.00     0.195 C 
HETATM   12  O2  UNL     1       6.067  40.489  18.758  1.00  0.00    -0.287 OA
BRANCH  11  13
HETATM   13  C7  UNL     1       7.141  41.320  16.872  1.00  0.00     0.050 A 
HETATM   14  C6  UNL     1       6.770  42.624  17.269  1.00  0.00     0.080 A 
HETATM   15  C5  UNL     1       7.032  43.716  16.479  1.00  0.00     0.040 A 
HETATM   16  C4  UNL     1       7.666  43.564  15.269  1.00  0.00     0.032 A 
HETATM   17  C3  UNL     1       8.042  42.323  14.848  1.00  0.00     0.030 A 
HETATM   18  C28 UNL     1       7.768  41.241  15.660  1.00  0.00     0.047 A 
BRANCH  14  19
HETATM   19  O1  UNL     1       6.129  42.817  18.481  1.00  0.00    -0.360 OA
ATOM     20  H1  UNL     1       5.721  42.072  18.907  1.00  0.00     0.217 HD
ENDBRANCH  14  19
BRANCH  17  21
HETATM   21  N1  UNL     1       8.702  42.191  13.580  1.00  0.00    -0.390 N 
HETATM   22  C1  UNL     1      10.104  42.545  13.474  1.00  0.00     0.149 C 
HETATM   23  C2  UNL     1       8.031  41.716  12.386  1.00  0.00     0.149 C 
ENDBRANCH  17  21
ENDBRANCH  11  13
ENDBRANCH   8  11
ENDBRANCH   1   5
BRANCH   3  24
HETATM   24  C14 UNL     1      10.439  33.096  18.522  1.00  0.00     0.109 C 
HETATM   25  C15 UNL     1      10.759  32.692  19.973  1.00  0.00     0.029 C 
HETATM   26  C16 UNL     1      10.707  31.190  20.045  1.00  0.00     0.021 C 
HETATM   27  C17 UNL     1      11.690  30.527  19.085  1.00  0.00     0.114 C 
HETATM   28  N3  UNL     1      11.296  30.590  17.722  1.00  0.00    -0.419 N 
HETATM   29  C18 UNL     1      11.726  31.711  16.973  1.00  0.00     0.141 C 
ATOM     30  H3  UNL     1      10.726  29.857  17.301  1.00  0.00     0.153 HD
HETATM   31  C19 UNL     1      11.717  33.014  17.739  1.00  0.00     0.124 C 
BRANCH  31  32
HETATM   32  N4  UNL     1      11.985  34.157  16.939  1.00  0.00    -0.349 N 
HETATM   33  C20 UNL     1      12.529  35.378  17.401  1.00  0.00     0.252 C 
HETATM   34  O4  UNL     1      12.792  35.428  18.631  1.00  0.00    -0.268 OA
ATOM     35  H4  UNL     1      11.765  34.092  15.945  1.00  0.00     0.163 HD
BRANCH  33  36
HETATM   36  C21 UNL     1      12.785  36.526  16.554  1.00  0.00     0.034 A 
HETATM   37  C22 UNL     1      11.694  37.217  16.019  1.00  0.00     0.034 A 
HETATM   38  C23 UNL     1      11.827  38.320  15.202  1.00  0.00     0.088 A 
HETATM   39  N5  UNL     1      13.061  38.736  14.917  1.00  0.00    -0.375 N 
HETATM   40  C24 UNL     1      14.120  38.107  15.405  1.00  0.00     0.088 A 
ATOM     41  H5  UNL     1      13.191  39.550  14.315  1.00  0.00     0.164 HD
HETATM   42  C25 UNL     1      14.017  36.990  16.232  1.00  0.00     0.034 A 
ENDBRANCH  33  36
ENDBRANCH  31  32
ENDBRANCH   3  24
TORSDOF 8
ENDMDL
