MODEL 15
REMARK VINA RESULT: -5.602720177      4.539      6.674
REMARK  4 active torsions:
REMARK  status: ('A' for Active; 'I' for Inactive)
REMARK    1  A    between atoms: C2_2  and  C4_4 
REMARK    2  A    between atoms: C6_9  and  C7_10 
REMARK    3  A    between atoms: C8_13  and  C9_14 
REMARK    4  A    between atoms: C9_14  and  C10_15 
ROOT
HETATM    1  C4  UNL     1      18.195   9.837  24.107  1.00  0.00     0.021 C 
HETATM    2  C5  UNL     1      18.200  11.210  23.468  1.00  0.00     0.238 C 
HETATM    3  N1  UNL     1      19.653  11.365  23.291  1.00  0.00    -0.060 N 
ATOM      4  H11 UNL     1      19.940  12.315  23.059  1.00  0.00     0.278 HD
ATOM      5  H12 UNL     1      20.014  10.923  22.445  1.00  0.00     0.278 HD
HETATM    6  C6  UNL     1      20.251  10.853  24.526  1.00  0.00     0.290 C 
HETATM    7  C8  UNL     1      19.198   9.947  25.168  1.00  0.00     0.043 C 
ENDROOT
BRANCH   7   8
HETATM    8  C9  UNL     1      18.789  10.600  26.442  1.00  0.00     0.121 C 
BRANCH   8   9
HETATM    9  C10 UNL     1      19.521   9.987  27.587  1.00  0.00     0.172 C 
HETATM   10  O3  UNL     1      19.051   9.081  28.325  1.00  0.00    -0.648 OA
HETATM   11  O4  UNL     1      20.818  10.403  27.912  1.00  0.00    -0.648 OA
ENDBRANCH   8   9
ENDBRANCH   7   8
BRANCH   1  12
HETATM   12  C2  UNL     1      16.868   9.285  24.379  1.00  0.00    -0.017 C 
HETATM   13  C1  UNL     1      15.839   9.964  23.467  1.00  0.00     0.010 C 
HETATM   14  C3  UNL     1      16.652   7.836  24.292  1.00  0.00     0.010 C 
ENDBRANCH   1  12
BRANCH   6  15
HETATM   15  C7  UNL     1      21.495  10.141  24.240  1.00  0.00     0.205 C 
HETATM   16  O1  UNL     1      21.523   9.230  23.400  1.00  0.00    -0.646 OA
HETATM   17  O2  UNL     1      22.641  10.505  24.926  1.00  0.00    -0.646 OA
ENDBRANCH   6  15
TORSDOF 4
ENDMDL
