MODEL 2
REMARK VINA RESULT: -6.444253610      1.010      1.397
REMARK  4 active torsions:
REMARK  status: ('A' for Active; 'I' for Inactive)
REMARK    1  A    between atoms: C2_2  and  C4_4 
REMARK    2  A    between atoms: C6_9  and  C7_10 
REMARK    3  A    between atoms: C8_13  and  C9_14 
REMARK    4  A    between atoms: C9_14  and  C10_15 
ROOT
HETATM    1  C4  UNL     1      14.827   8.510  23.965  1.00  0.00     0.021 C 
HETATM    2  C5  UNL     1      13.322   8.684  23.923  1.00  0.00     0.238 C 
HETATM    3  N1  UNL     1      12.967   7.798  25.043  1.00  0.00    -0.060 N 
ATOM      4  H11 UNL     1      11.973   7.577  25.094  1.00  0.00     0.278 HD
ATOM      5  H12 UNL     1      13.037   8.243  25.958  1.00  0.00     0.278 HD
HETATM    6  C6  UNL     1      13.826   6.620  24.893  1.00  0.00     0.290 C 
HETATM    7  C8  UNL     1      15.004   7.058  24.020  1.00  0.00     0.043 C 
ENDROOT
BRANCH   7   8
HETATM    8  C9  UNL     1      14.898   6.299  22.743  1.00  0.00     0.121 C 
BRANCH   8   9
HETATM    9  C10 UNL     1      16.234   5.764  22.357  1.00  0.00     0.172 C 
HETATM   10  O3  UNL     1      17.052   5.248  23.164  1.00  0.00    -0.648 OA
HETATM   11  O4  UNL     1      16.666   5.810  21.026  1.00  0.00    -0.648 OA
ENDBRANCH   8   9
ENDBRANCH   7   8
BRANCH   1  12
HETATM   12  C2  UNL     1      15.571   9.324  23.004  1.00  0.00    -0.017 C 
HETATM   13  C1  UNL     1      14.740   9.487  21.726  1.00  0.00     0.010 C 
HETATM   14  C3  UNL     1      16.049  10.655  23.397  1.00  0.00     0.010 C 
ENDBRANCH   1  12
BRANCH   6  15
HETATM   15  C7  UNL     1      14.257   6.127  26.199  1.00  0.00     0.205 C 
HETATM   16  O1  UNL     1      13.539   5.358  26.854  1.00  0.00    -0.646 OA
HETATM   17  O2  UNL     1      15.485   6.536  26.691  1.00  0.00    -0.646 OA
ENDBRANCH   6  15
TORSDOF 4
ENDMDL
