MODEL 6
REMARK VINA RESULT: -8.521003626      3.105      3.872
REMARK  3 active torsions:
REMARK  status: ('A' for Active; 'I' for Inactive)
REMARK    1  A    between atoms: N1_2  and  C3_4 
REMARK    2  A    between atoms: C3_4  and  C4_5 
REMARK       I    between atoms: C4_5  and  N2_7 
REMARK    3  A    between atoms: N2_7  and  C5_9 
ROOT
HETATM    1  C5  UNL     1      25.835   6.479  15.533  1.00  0.00     0.035 A 
HETATM    2  C6  UNL     1      26.866   7.364  15.418  1.00  0.00     0.032 A 
HETATM    3  C7  UNL     1      27.381   7.999  16.545  1.00  0.00     0.033 A 
HETATM    4  C8  UNL     1      26.814   7.705  17.775  1.00  0.00     0.046 A 
HETATM    5  N3  UNL     1      27.288   8.304  18.897  1.00  0.00    -0.322 N 
ATOM      6  H3  UNL     1      28.059   8.967  18.826  1.00  0.00     0.169 HD
HETATM    7  C9  UNL     1      26.756   8.033  20.091  1.00  0.00     0.257 A 
HETATM    8  O2  UNL     1      27.211   8.599  21.104  1.00  0.00    -0.267 OA
HETATM    9  C10 UNL     1      25.712   7.143  20.244  1.00  0.00     0.043 A 
HETATM   10  C11 UNL     1      25.175   6.878  21.499  1.00  0.00     0.018 A 
HETATM   11  C12 UNL     1      24.136   5.991  21.644  1.00  0.00     0.001 A 
HETATM   12  C13 UNL     1      23.647   5.379  20.522  1.00  0.00     0.001 A 
HETATM   13  C14 UNL     1      24.146   5.609  19.256  1.00  0.00     0.013 A 
HETATM   14  C15 UNL     1      25.194   6.507  19.127  1.00  0.00    -0.008 A 
HETATM   15  C16 UNL     1      25.765   6.806  17.898  1.00  0.00     0.004 A 
HETATM   16  C17 UNL     1      25.273   6.192  16.788  1.00  0.00     0.044 A 
ENDROOT
BRANCH   1  17
HETATM   17  N2  UNL     1      25.295   5.800  14.433  1.00  0.00    -0.326 N 
HETATM   18  C4  UNL     1      25.063   6.298  13.139  1.00  0.00     0.250 C 
HETATM   19  O1  UNL     1      25.341   7.471  12.831  1.00  0.00    -0.271 OA
ATOM     20  H2  UNL     1      25.039   4.826  14.589  1.00  0.00     0.169 HD
BRANCH  18  21
HETATM   21  C3  UNL     1      24.468   5.416  12.086  1.00  0.00     0.373 C 
BRANCH  21  22
HETATM   22  N1  UNL     1      24.064   6.195  10.932  1.00  0.00     0.088 N 
HETATM   23  C1  UNL     1      24.649   5.618   9.713  1.00  0.00     0.310 C 
HETATM   24  C2  UNL     1      22.614   6.095  10.743  1.00  0.00     0.310 C 
ENDBRANCH  21  22
ENDBRANCH  18  21
ENDBRANCH   1  17
TORSDOF 3
ENDMDL
