MODEL 7
REMARK VINA RESULT: -8.383803654      2.758      4.433
REMARK  3 active torsions:
REMARK  status: ('A' for Active; 'I' for Inactive)
REMARK    1  A    between atoms: N1_2  and  C3_4 
REMARK    2  A    between atoms: C3_4  and  C4_5 
REMARK       I    between atoms: C4_5  and  N2_7 
REMARK    3  A    between atoms: N2_7  and  C5_9 
ROOT
HETATM    1  C5  UNL     1      25.149   6.221  17.035  1.00  0.00     0.035 A 
HETATM    2  C6  UNL     1      24.247   5.667  17.895  1.00  0.00     0.032 A 
HETATM    3  C7  UNL     1      24.310   5.942  19.258  1.00  0.00     0.033 A 
HETATM    4  C8  UNL     1      25.311   6.788  19.708  1.00  0.00     0.046 A 
HETATM    5  N3  UNL     1      25.405   7.080  21.029  1.00  0.00    -0.322 N 
ATOM      6  H3  UNL     1      24.737   6.673  21.684  1.00  0.00     0.169 HD
HETATM    7  C9  UNL     1      26.363   7.893  21.481  1.00  0.00     0.257 A 
HETATM    8  O2  UNL     1      26.425   8.143  22.701  1.00  0.00    -0.267 OA
HETATM    9  C10 UNL     1      27.292   8.471  20.640  1.00  0.00     0.043 A 
HETATM   10  C11 UNL     1      28.280   9.315  21.135  1.00  0.00     0.018 A 
HETATM   11  C12 UNL     1      29.202   9.887  20.292  1.00  0.00     0.001 A 
HETATM   12  C13 UNL     1      29.119   9.602  18.956  1.00  0.00     0.001 A 
HETATM   13  C14 UNL     1      28.158   8.772  18.417  1.00  0.00     0.013 A 
HETATM   14  C15 UNL     1      27.236   8.203  19.282  1.00  0.00    -0.008 A 
HETATM   15  C16 UNL     1      26.232   7.354  18.838  1.00  0.00     0.004 A 
HETATM   16  C17 UNL     1      26.157   7.077  17.508  1.00  0.00     0.044 A 
ENDROOT
BRANCH   1  17
HETATM   17  N2  UNL     1      25.116   5.991  15.654  1.00  0.00    -0.326 N 
HETATM   18  C4  UNL     1      26.199   5.946  14.758  1.00  0.00     0.250 C 
HETATM   19  O1  UNL     1      27.370   6.115  15.142  1.00  0.00    -0.271 OA
ATOM     20  H2  UNL     1      24.193   5.838  15.247  1.00  0.00     0.169 HD
BRANCH  18  21
HETATM   21  C3  UNL     1      25.965   5.690  13.303  1.00  0.00     0.373 C 
BRANCH  21  22
HETATM   22  N1  UNL     1      24.549   5.733  12.994  1.00  0.00     0.088 N 
HETATM   23  C1  UNL     1      24.271   6.860  12.092  1.00  0.00     0.310 C 
HETATM   24  C2  UNL     1      24.163   4.537  12.241  1.00  0.00     0.310 C 
ENDBRANCH  21  22
ENDBRANCH  18  21
ENDBRANCH   1  17
TORSDOF 3
ENDMDL
