MODEL 2
REMARK VINA RESULT: -8.994897839      3.554      4.253
REMARK  3 active torsions:
REMARK  status: ('A' for Active; 'I' for Inactive)
REMARK    1  A    between atoms: N1_2  and  C3_4 
REMARK    2  A    between atoms: C3_4  and  C4_5 
REMARK       I    between atoms: C4_5  and  N2_7 
REMARK    3  A    between atoms: N2_7  and  C5_9 
ROOT
HETATM    1  C5  UNL     1      25.788   6.441  15.450  1.00  0.00     0.035 A 
HETATM    2  C6  UNL     1      26.819   7.327  15.327  1.00  0.00     0.032 A 
HETATM    3  C7  UNL     1      27.340   7.965  16.449  1.00  0.00     0.033 A 
HETATM    4  C8  UNL     1      26.781   7.674  17.683  1.00  0.00     0.046 A 
HETATM    5  N3  UNL     1      27.262   8.276  18.800  1.00  0.00    -0.322 N 
ATOM      6  H3  UNL     1      28.033   8.940  18.723  1.00  0.00     0.169 HD
HETATM    7  C9  UNL     1      26.737   8.008  19.998  1.00  0.00     0.257 A 
HETATM    8  O2  UNL     1      27.199   8.577  21.007  1.00  0.00    -0.267 OA
HETATM    9  C10 UNL     1      25.695   7.118  20.160  1.00  0.00     0.043 A 
HETATM   10  C11 UNL     1      25.166   6.856  21.419  1.00  0.00     0.018 A 
HETATM   11  C12 UNL     1      24.128   5.969  21.574  1.00  0.00     0.001 A 
HETATM   12  C13 UNL     1      23.633   5.354  20.456  1.00  0.00     0.001 A 
HETATM   13  C14 UNL     1      24.124   5.581  19.187  1.00  0.00     0.013 A 
HETATM   14  C15 UNL     1      25.170   6.479  19.049  1.00  0.00    -0.008 A 
HETATM   15  C16 UNL     1      25.733   6.774  17.815  1.00  0.00     0.004 A 
HETATM   16  C17 UNL     1      25.234   6.158  16.710  1.00  0.00     0.044 A 
ENDROOT
BRANCH   1  17
HETATM   17  N2  UNL     1      25.242   5.759  14.356  1.00  0.00    -0.326 N 
HETATM   18  C4  UNL     1      25.599   4.494  13.859  1.00  0.00     0.250 C 
HETATM   19  O1  UNL     1      26.495   3.814  14.389  1.00  0.00    -0.271 OA
ATOM     20  H2  UNL     1      24.493   6.240  13.858  1.00  0.00     0.169 HD
BRANCH  18  21
HETATM   21  C3  UNL     1      24.898   3.927  12.664  1.00  0.00     0.373 C 
BRANCH  21  22
HETATM   22  N1  UNL     1      24.409   4.987  11.804  1.00  0.00     0.088 N 
HETATM   23  C1  UNL     1      25.199   5.024  10.565  1.00  0.00     0.310 C 
HETATM   24  C2  UNL     1      23.040   4.692  11.374  1.00  0.00     0.310 C 
ENDBRANCH  21  22
ENDBRANCH  18  21
ENDBRANCH   1  17
TORSDOF 3
ENDMDL
