MODEL 1
REMARK VINA RESULT: -9.665692570      0.000      0.000
REMARK  9 active torsions:
REMARK  status: ('A' for Active; 'I' for Inactive)
REMARK    1  A    between atoms: C1_2  and  C2_6 
REMARK    2  A    between atoms: C6_10  and  C7_11 
REMARK    3  A    between atoms: C11_15  and  C12_16 
REMARK    4  A    between atoms: C12_16  and  C13_17 
REMARK    5  A    between atoms: C12_16  and  C21_29 
REMARK    6  A    between atoms: C13_17  and  C14_18 
REMARK    7  A    between atoms: C14_18  and  C15_19 
REMARK    8  A    between atoms: C15_19  and  N3_20 
REMARK    9  A    between atoms: N3_20  and  C16_22 
ROOT
HETATM    1  C7  UNL     1      -0.918  21.194  19.089  1.00  0.00    -0.025 A 
HETATM    2  C8  UNL     1      -1.376  20.435  20.151  1.00  0.00     0.012 A 
HETATM    3  C9  UNL     1      -0.770  19.258  20.459  1.00  0.00     0.001 A 
HETATM    4  C10 UNL     1       0.305  18.835  19.701  1.00  0.00     0.008 A 
HETATM    5  C11 UNL     1       0.794  19.558  18.639  1.00  0.00    -0.043 A 
HETATM    6  C22 UNL     1       0.168  20.747  18.339  1.00  0.00     0.020 A 
ENDROOT
BRANCH   5   7
HETATM    7  C12 UNL     1       1.935  19.088  17.851  1.00  0.00     0.120 C 
BRANCH   7   8
HETATM    8  C13 UNL     1       1.683  17.758  17.180  1.00  0.00     0.022 C 
BRANCH   8   9
HETATM    9  C14 UNL     1       1.736  17.924  15.685  1.00  0.00     0.021 C 
BRANCH   9  10
HETATM   10  C15 UNL     1       3.008  17.332  15.129  1.00  0.00     0.120 C 
BRANCH  10  11
HETATM   11  N3  UNL     1       4.019  18.331  14.921  1.00  0.00    -0.390 N 
ATOM     12  H3  UNL     1       4.551  18.696  15.710  1.00  0.00     0.159 HD
BRANCH  11  13
HETATM   13  C16 UNL     1       4.268  18.803  13.614  1.00  0.00     0.030 A 
HETATM   14  C17 UNL     1       5.383  19.503  13.260  1.00  0.00     0.046 A 
HETATM   15  C18 UNL     1       5.630  19.969  11.973  1.00  0.00     0.089 A 
HETATM   16  N4  UNL     1       4.684  19.685  11.059  1.00  0.00    -0.375 N 
HETATM   17  C19 UNL     1       3.571  19.000  11.355  1.00  0.00     0.089 A 
ATOM     18  H4  UNL     1       4.820  20.006  10.100  1.00  0.00     0.164 HD
HETATM   19  C20 UNL     1       3.334  18.547  12.619  1.00  0.00     0.046 A 
ENDBRANCH  11  13
ENDBRANCH  10  11
ENDBRANCH   9  10
ENDBRANCH   8   9
ENDBRANCH   7   8
BRANCH   7  20
HETATM   20  C21 UNL     1       3.192  19.017  18.671  1.00  0.00     0.181 C 
HETATM   21  O1  UNL     1       4.311  18.957  18.119  1.00  0.00    -0.647 OA
HETATM   22  O2  UNL     1       3.147  19.018  20.057  1.00  0.00    -0.647 OA
ENDBRANCH   7  20
ENDBRANCH   5   7
BRANCH   1  23
HETATM   23  C6  UNL     1      -1.599  22.465  18.783  1.00  0.00    -0.025 A 
HETATM   24  C5  UNL     1      -0.911  23.511  18.188  1.00  0.00     0.012 A 
HETATM   25  C4  UNL     1      -1.563  24.693  17.906  1.00  0.00     0.002 A 
HETATM   26  C3  UNL     1      -2.917  24.837  18.222  1.00  0.00     0.015 A 
HETATM   27  C2  UNL     1      -3.634  23.826  18.812  1.00  0.00     0.005 A 
HETATM   28  C23 UNL     1      -2.925  22.653  19.074  1.00  0.00     0.027 A 
BRANCH  27  29
HETATM   29  C1  UNL     1      -5.047  23.928  19.160  1.00  0.00     0.120 C 
HETATM   30  N1  UNL     1      -5.833  22.755  19.160  1.00  0.00    -0.082 NA
HETATM   31  N2  UNL     1      -5.578  25.041  19.460  1.00  0.00    -0.387 N 
ATOM     32  H22 UNL     1      -6.565  25.113  19.704  1.00  0.00     0.157 HD
ATOM     33  H21 UNL     1      -5.010  25.888  19.460  1.00  0.00     0.157 HD
ENDBRANCH  27  29
ENDBRANCH   1  23
TORSDOF 9
ENDMDL
