MODEL 7
REMARK VINA RESULT: -9.251543183      1.974      8.365
REMARK  9 active torsions:
REMARK  status: ('A' for Active; 'I' for Inactive)
REMARK    1  A    between atoms: C1_2  and  C2_6 
REMARK    2  A    between atoms: C6_10  and  C7_11 
REMARK    3  A    between atoms: C11_15  and  C12_16 
REMARK    4  A    between atoms: C12_16  and  C13_17 
REMARK    5  A    between atoms: C12_16  and  C21_29 
REMARK    6  A    between atoms: C13_17  and  C14_18 
REMARK    7  A    between atoms: C14_18  and  C15_19 
REMARK    8  A    between atoms: C15_19  and  N3_20 
REMARK    9  A    between atoms: N3_20  and  C16_22 
ROOT
HETATM    1  C7  UNL     1       1.808  17.769  15.378  1.00  0.00    -0.025 A 
HETATM    2  C8  UNL     1       0.844  17.041  14.702  1.00  0.00     0.012 A 
HETATM    3  C9  UNL     1      -0.308  16.688  15.331  1.00  0.00     0.001 A 
HETATM    4  C10 UNL     1      -0.502  17.066  16.645  1.00  0.00     0.008 A 
HETATM    5  C11 UNL     1       0.427  17.790  17.354  1.00  0.00    -0.043 A 
HETATM    6  C22 UNL     1       1.590  18.139  16.703  1.00  0.00     0.020 A 
ENDROOT
BRANCH   5   7
HETATM    7  C12 UNL     1       0.198  18.179  18.746  1.00  0.00     0.120 C 
BRANCH   7   8
HETATM    8  C13 UNL     1       0.014  19.668  18.922  1.00  0.00     0.022 C 
BRANCH   8   9
HETATM    9  C14 UNL     1      -1.215  19.935  19.748  1.00  0.00     0.021 C 
BRANCH   9  10
HETATM   10  C15 UNL     1      -2.254  20.668  18.935  1.00  0.00     0.120 C 
BRANCH  10  11
HETATM   11  N3  UNL     1      -1.665  21.426  17.868  1.00  0.00    -0.390 N 
ATOM     12  H3  UNL     1      -1.236  20.949  17.074  1.00  0.00     0.159 HD
BRANCH  11  13
HETATM   13  C16 UNL     1      -1.683  22.836  17.927  1.00  0.00     0.030 A 
HETATM   14  C17 UNL     1      -2.626  23.608  17.316  1.00  0.00     0.046 A 
HETATM   15  C18 UNL     1      -2.646  24.998  17.373  1.00  0.00     0.089 A 
HETATM   16  N4  UNL     1      -1.656  25.566  18.085  1.00  0.00    -0.375 N 
HETATM   17  C19 UNL     1      -0.705  24.852  18.705  1.00  0.00     0.089 A 
ATOM     18  H4  UNL     1      -1.627  26.583  18.157  1.00  0.00     0.164 HD
HETATM   19  C20 UNL     1      -0.691  23.489  18.645  1.00  0.00     0.046 A 
ENDBRANCH  11  13
ENDBRANCH  10  11
ENDBRANCH   9  10
ENDBRANCH   8   9
ENDBRANCH   7   8
BRANCH   7  20
HETATM   20  C21 UNL     1       1.289  17.687  19.654  1.00  0.00     0.181 C 
HETATM   21  O1  UNL     1       2.036  18.494  20.248  1.00  0.00    -0.647 OA
HETATM   22  O2  UNL     1       1.499  16.331  19.858  1.00  0.00    -0.647 OA
ENDBRANCH   7  20
ENDBRANCH   5   7
BRANCH   1  23
HETATM   23  C6  UNL     1       3.046  18.134  14.666  1.00  0.00    -0.025 A 
HETATM   24  C5  UNL     1       4.270  18.101  15.315  1.00  0.00     0.012 A 
HETATM   25  C4  UNL     1       5.420  18.444  14.635  1.00  0.00     0.002 A 
HETATM   26  C3  UNL     1       5.351  18.825  13.293  1.00  0.00     0.015 A 
HETATM   27  C2  UNL     1       4.159  18.872  12.614  1.00  0.00     0.005 A 
HETATM   28  C23 UNL     1       3.028  18.516  13.350  1.00  0.00     0.027 A 
BRANCH  27  29
HETATM   29  C1  UNL     1       4.035  19.264  11.214  1.00  0.00     0.120 C 
HETATM   30  N1  UNL     1       4.836  20.322  10.732  1.00  0.00    -0.082 NA
HETATM   31  N2  UNL     1       3.228  18.677  10.430  1.00  0.00    -0.387 N 
ATOM     32  H22 UNL     1       3.141  18.951   9.451  1.00  0.00     0.157 HD
ATOM     33  H21 UNL     1       2.650  17.912  10.778  1.00  0.00     0.157 HD
ENDBRANCH  27  29
ENDBRANCH   1  23
TORSDOF 9
ENDMDL
