MODEL 2
REMARK VINA RESULT: -9.656847457      1.921      2.660
REMARK  9 active torsions:
REMARK  status: ('A' for Active; 'I' for Inactive)
REMARK    1  A    between atoms: C1_2  and  C2_6 
REMARK    2  A    between atoms: C6_10  and  C7_11 
REMARK    3  A    between atoms: C11_15  and  C12_16 
REMARK    4  A    between atoms: C12_16  and  C13_17 
REMARK    5  A    between atoms: C12_16  and  C21_29 
REMARK    6  A    between atoms: C13_17  and  C14_18 
REMARK    7  A    between atoms: C14_18  and  C15_19 
REMARK    8  A    between atoms: C15_19  and  N3_20 
REMARK    9  A    between atoms: N3_20  and  C16_22 
ROOT
HETATM    1  C7  UNL     1      -1.819  20.583  17.263  1.00  0.00    -0.025 A 
HETATM    2  C8  UNL     1      -2.481  19.579  16.578  1.00  0.00     0.012 A 
HETATM    3  C9  UNL     1      -1.818  18.449  16.216  1.00  0.00     0.001 A 
HETATM    4  C10 UNL     1      -0.482  18.319  16.541  1.00  0.00     0.008 A 
HETATM    5  C11 UNL     1       0.215  19.290  17.220  1.00  0.00    -0.043 A 
HETATM    6  C22 UNL     1      -0.471  20.428  17.579  1.00  0.00     0.020 A 
ENDROOT
BRANCH   5   7
HETATM    7  C12 UNL     1       1.631  19.127  17.553  1.00  0.00     0.120 C 
BRANCH   7   8
HETATM    8  C13 UNL     1       2.316  18.065  16.723  1.00  0.00     0.022 C 
BRANCH   8   9
HETATM    9  C14 UNL     1       3.679  18.547  16.306  1.00  0.00     0.021 C 
BRANCH   9  10
HETATM   10  C15 UNL     1       4.146  17.820  15.069  1.00  0.00     0.120 C 
BRANCH  10  11
HETATM   11  N3  UNL     1       5.105  18.587  14.325  1.00  0.00    -0.390 N 
ATOM     12  H3  UNL     1       6.002  18.833  14.744  1.00  0.00     0.159 HD
BRANCH  11  13
HETATM   13  C16 UNL     1       4.795  18.996  13.010  1.00  0.00     0.030 A 
HETATM   14  C17 UNL     1       3.685  18.590  12.331  1.00  0.00     0.046 A 
HETATM   15  C18 UNL     1       3.378  18.992  11.036  1.00  0.00     0.089 A 
HETATM   16  N4  UNL     1       4.258  19.833  10.463  1.00  0.00    -0.375 N 
HETATM   17  C19 UNL     1       5.364  20.263  11.087  1.00  0.00     0.089 A 
ATOM     18  H4  UNL     1       4.077  20.157   9.513  1.00  0.00     0.164 HD
HETATM   19  C20 UNL     1       5.660  19.864  12.358  1.00  0.00     0.046 A 
ENDBRANCH  11  13
ENDBRANCH  10  11
ENDBRANCH   9  10
ENDBRANCH   8   9
ENDBRANCH   7   8
BRANCH   7  20
HETATM   20  C21 UNL     1       1.836  18.845  19.014  1.00  0.00     0.181 C 
HETATM   21  O1  UNL     1       0.946  18.280  19.685  1.00  0.00    -0.647 OA
HETATM   22  O2  UNL     1       3.012  19.200  19.658  1.00  0.00    -0.647 OA
ENDBRANCH   7  20
ENDBRANCH   5   7
BRANCH   1  23
HETATM   23  C6  UNL     1      -2.568  21.794  17.639  1.00  0.00    -0.025 A 
HETATM   24  C5  UNL     1      -3.899  21.713  18.019  1.00  0.00     0.012 A 
HETATM   25  C4  UNL     1      -4.587  22.855  18.370  1.00  0.00     0.002 A 
HETATM   26  C3  UNL     1      -3.943  24.095  18.341  1.00  0.00     0.015 A 
HETATM   27  C2  UNL     1      -2.627  24.220  17.971  1.00  0.00     0.005 A 
HETATM   28  C23 UNL     1      -1.980  23.032  17.626  1.00  0.00     0.027 A 
BRANCH  27  29
HETATM   29  C1  UNL     1      -1.912  25.491  17.925  1.00  0.00     0.120 C 
HETATM   30  N1  UNL     1      -2.593  26.637  17.458  1.00  0.00    -0.082 NA
HETATM   31  N2  UNL     1      -0.702  25.584  18.293  1.00  0.00    -0.387 N 
ATOM     32  H22 UNL     1      -0.201  26.472  18.262  1.00  0.00     0.157 HD
ATOM     33  H21 UNL     1      -0.210  24.756  18.631  1.00  0.00     0.157 HD
ENDBRANCH  27  29
ENDBRANCH   1  23
TORSDOF 9
ENDMDL
