MODEL 3
REMARK VINA RESULT: -9.559436437      1.692      2.554
REMARK  9 active torsions:
REMARK  status: ('A' for Active; 'I' for Inactive)
REMARK    1  A    between atoms: C1_2  and  C2_6 
REMARK    2  A    between atoms: C6_10  and  C7_11 
REMARK    3  A    between atoms: C11_15  and  C12_16 
REMARK    4  A    between atoms: C12_16  and  C13_17 
REMARK    5  A    between atoms: C12_16  and  C21_29 
REMARK    6  A    between atoms: C13_17  and  C14_18 
REMARK    7  A    between atoms: C14_18  and  C15_19 
REMARK    8  A    between atoms: C15_19  and  N3_20 
REMARK    9  A    between atoms: N3_20  and  C16_22 
ROOT
HETATM    1  C7  UNL     1      -0.071  19.537  19.008  1.00  0.00    -0.025 A 
HETATM    2  C8  UNL     1      -0.811  18.373  18.881  1.00  0.00     0.012 A 
HETATM    3  C9  UNL     1      -0.224  17.240  18.417  1.00  0.00     0.001 A 
HETATM    4  C10 UNL     1       1.115  17.265  18.076  1.00  0.00     0.008 A 
HETATM    5  C11 UNL     1       1.887  18.397  18.187  1.00  0.00    -0.043 A 
HETATM    6  C22 UNL     1       1.277  19.538  18.658  1.00  0.00     0.020 A 
ENDROOT
BRANCH   5   7
HETATM    7  C12 UNL     1       3.305  18.398  17.819  1.00  0.00     0.120 C 
BRANCH   7   8
HETATM    8  C13 UNL     1       3.551  17.909  16.411  1.00  0.00     0.022 C 
BRANCH   8   9
HETATM    9  C14 UNL     1       2.565  18.550  15.471  1.00  0.00     0.021 C 
BRANCH   9  10
HETATM   10  C15 UNL     1       2.281  17.644  14.298  1.00  0.00     0.120 C 
BRANCH  10  11
HETATM   11  N3  UNL     1       3.458  17.396  13.514  1.00  0.00    -0.390 N 
ATOM     12  H3  UNL     1       3.905  16.479  13.533  1.00  0.00     0.159 HD
BRANCH  11  13
HETATM   13  C16 UNL     1       3.990  18.432  12.716  1.00  0.00     0.030 A 
HETATM   14  C17 UNL     1       3.387  18.910  11.591  1.00  0.00     0.046 A 
HETATM   15  C18 UNL     1       3.909  19.930  10.804  1.00  0.00     0.089 A 
HETATM   16  N4  UNL     1       5.081  20.444  11.220  1.00  0.00    -0.375 N 
HETATM   17  C19 UNL     1       5.715  20.011  12.319  1.00  0.00     0.089 A 
ATOM     18  H4  UNL     1       5.504  21.196  10.676  1.00  0.00     0.164 HD
HETATM   19  C20 UNL     1       5.197  19.009  13.086  1.00  0.00     0.046 A 
ENDBRANCH  11  13
ENDBRANCH  10  11
ENDBRANCH   9  10
ENDBRANCH   8   9
ENDBRANCH   7   8
BRANCH   7  20
HETATM   20  C21 UNL     1       4.136  17.606  18.788  1.00  0.00     0.181 C 
HETATM   21  O1  UNL     1       4.914  16.717  18.383  1.00  0.00    -0.647 OA
HETATM   22  O2  UNL     1       4.065  17.838  20.154  1.00  0.00    -0.647 OA
ENDBRANCH   7  20
ENDBRANCH   5   7
BRANCH   1  23
HETATM   23  C6  UNL     1      -0.741  20.748  19.515  1.00  0.00    -0.025 A 
HETATM   24  C5  UNL     1      -1.308  20.765  20.779  1.00  0.00     0.012 A 
HETATM   25  C4  UNL     1      -1.930  21.907  21.240  1.00  0.00     0.002 A 
HETATM   26  C3  UNL     1      -1.989  23.045  20.432  1.00  0.00     0.015 A 
HETATM   27  C2  UNL     1      -1.440  23.069  19.174  1.00  0.00     0.005 A 
HETATM   28  C23 UNL     1      -0.824  21.888  18.759  1.00  0.00     0.027 A 
BRANCH  27  29
HETATM   29  C1  UNL     1      -1.476  24.232  18.294  1.00  0.00     0.120 C 
HETATM   30  N1  UNL     1      -2.395  24.244  17.222  1.00  0.00    -0.082 NA
HETATM   31  N2  UNL     1      -0.704  25.223  18.472  1.00  0.00    -0.387 N 
ATOM     32  H22 UNL     1      -0.729  26.036  17.857  1.00  0.00     0.157 HD
ATOM     33  H21 UNL     1      -0.040  25.215  19.246  1.00  0.00     0.157 HD
ENDBRANCH  27  29
ENDBRANCH   1  23
TORSDOF 9
ENDMDL
