MODEL 15
REMARK VINA RESULT: -9.999184868      2.153      2.548
REMARK  11 active torsions:
REMARK  status: ('A' for Active; 'I' for Inactive)
REMARK    1  A    between atoms: S1_2  and  C2_5 
REMARK    2  A    between atoms: C2_5  and  C3_6 
REMARK    3  A    between atoms: C3_6  and  N1_7 
REMARK    4  A    between atoms: N1_7  and  C4_10 
REMARK    5  A    between atoms: C4_10  and  C5_11 
REMARK    6  A    between atoms: C8_14  and  C9_15 
REMARK    7  A    between atoms: C14_24  and  N4_25 
REMARK    8  A    between atoms: N4_25  and  C15_27 
REMARK    9  A    between atoms: C18_30  and  O3_31 
REMARK   10  A    between atoms: O3_31  and  C19_32 
REMARK   11  A    between atoms: C19_32  and  C20_33 
ROOT
HETATM    1  C9  UNL     1      17.799  31.343  35.127  1.00  0.00    -0.001 A 
HETATM    2  C10 UNL     1      16.724  31.113  34.295  1.00  0.00     0.016 A 
HETATM    3  C11 UNL     1      15.456  31.486  34.668  1.00  0.00     0.031 A 
HETATM    4  C12 UNL     1      15.295  32.101  35.911  1.00  0.00     0.047 A 
HETATM    5  N2  UNL     1      14.034  32.462  36.256  1.00  0.00    -0.352 N 
ATOM      6  H2  UNL     1      13.255  32.282  35.623  1.00  0.00     0.166 HD
HETATM    7  C13 UNL     1      13.823  33.058  37.441  1.00  0.00     0.182 A 
HETATM    8  N3  UNL     1      14.818  33.302  38.276  1.00  0.00    -0.338 N 
ATOM      9  H3  UNL     1      14.620  33.757  39.168  1.00  0.00     0.168 HD
HETATM   10  C14 UNL     1      16.069  32.967  37.982  1.00  0.00     0.119 A 
HETATM   11  C28 UNL     1      16.318  32.350  36.767  1.00  0.00     0.036 A 
HETATM   12  C29 UNL     1      17.581  31.965  36.366  1.00  0.00     0.031 A 
ENDROOT
BRANCH  10  13
HETATM   13  N4  UNL     1      17.101  33.213  38.898  1.00  0.00    -0.342 N 
ATOM     14  H4  UNL     1      18.063  33.150  38.566  1.00  0.00     0.167 HD
BRANCH  13  15
HETATM   15  C15 UNL     1      16.888  33.537  40.240  1.00  0.00     0.035 A 
HETATM   16  C16 UNL     1      17.539  34.668  40.749  1.00  0.00     0.032 A 
HETATM   17  C17 UNL     1      17.374  35.081  42.045  1.00  0.00     0.041 A 
HETATM   18  C18 UNL     1      16.554  34.381  42.884  1.00  0.00     0.091 A 
HETATM   19  C26 UNL     1      15.903  33.273  42.425  1.00  0.00     0.069 A 
HETATM   20 CL1  UNL     1      14.848  32.370  43.497  1.00  0.00    -0.081 Cl
HETATM   21  C27 UNL     1      16.084  32.869  41.094  1.00  0.00     0.056 A 
BRANCH  18  22
HETATM   22  O3  UNL     1      16.347  34.755  44.223  1.00  0.00    -0.345 OA
BRANCH  22  23
HETATM   23  C19 UNL     1      17.030  35.908  44.676  1.00  0.00     0.214 C 
BRANCH  23  24
HETATM   24  C20 UNL     1      16.100  37.064  44.726  1.00  0.00    -0.031 A 
HETATM   25  C21 UNL     1      16.575  38.278  45.146  1.00  0.00     0.009 A 
HETATM   26  C22 UNL     1      15.732  39.365  45.202  1.00  0.00     0.004 A 
HETATM   27  C23 UNL     1      14.404  39.248  44.837  1.00  0.00     0.042 A 
HETATM   28  C24 UNL     1      13.954  38.009  44.417  1.00  0.00     0.117 A 
HETATM   29  F1  UNL     1      12.629  37.925  44.062  1.00  0.00    -0.206 F 
HETATM   30  C25 UNL     1      14.776  36.909  44.353  1.00  0.00     0.051 A 
ENDBRANCH  23  24
ENDBRANCH  22  23
ENDBRANCH  18  22
ENDBRANCH  13  15
ENDBRANCH  10  13
BRANCH   1  31
HETATM   31  C8  UNL     1      19.152  30.952  34.744  1.00  0.00     0.086 A 
HETATM   32  C7  UNL     1      20.244  30.918  35.576  1.00  0.00     0.040 A 
HETATM   33  C6  UNL     1      21.286  30.496  34.786  1.00  0.00     0.037 A 
HETATM   34  C5  UNL     1      20.811  30.285  33.509  1.00  0.00     0.079 A 
HETATM   35  O4  UNL     1      19.533  30.578  33.561  1.00  0.00    -0.313 OA
BRANCH  34  36
HETATM   36  C4  UNL     1      21.534  29.832  32.308  1.00  0.00     0.296 C 
BRANCH  36  37
HETATM   37  N1  UNL     1      22.025  30.953  31.489  1.00  0.00    -0.069 N 
ATOM     38  H12 UNL     1      21.603  31.835  31.781  1.00  0.00     0.277 HD
ATOM     39  H11 UNL     1      21.659  30.903  30.538  1.00  0.00     0.277 HD
BRANCH  37  40
HETATM   40  C3  UNL     1      23.439  31.038  31.489  1.00  0.00     0.247 C 
BRANCH  40  41
HETATM   41  C2  UNL     1      24.111  31.682  32.629  1.00  0.00     0.167 C 
BRANCH  41  42
HETATM   42  S1  UNL     1      23.823  33.376  32.909  1.00  0.00     0.142 S 
HETATM   43  C1  UNL     1      25.269  34.391  32.843  1.00  0.00     0.161 C 
HETATM   44  O1  UNL     1      22.934  33.862  31.763  1.00  0.00    -0.228 OA
HETATM   45  O2  UNL     1      23.015  33.638  34.154  1.00  0.00    -0.228 OA
ENDBRANCH  41  42
ENDBRANCH  40  41
ENDBRANCH  37  40
ENDBRANCH  36  37
ENDBRANCH  34  36
ENDBRANCH   1  31
TORSDOF 11
ENDMDL
