MODEL 8
REMARK VINA RESULT: -10.350085487      1.386      1.534
REMARK  11 active torsions:
REMARK  status: ('A' for Active; 'I' for Inactive)
REMARK    1  A    between atoms: S1_2  and  C2_5 
REMARK    2  A    between atoms: C2_5  and  C3_6 
REMARK    3  A    between atoms: C3_6  and  N1_7 
REMARK    4  A    between atoms: N1_7  and  C4_10 
REMARK    5  A    between atoms: C4_10  and  C5_11 
REMARK    6  A    between atoms: C8_14  and  C9_15 
REMARK    7  A    between atoms: C14_24  and  N4_25 
REMARK    8  A    between atoms: N4_25  and  C15_27 
REMARK    9  A    between atoms: C18_30  and  O3_31 
REMARK   10  A    between atoms: O3_31  and  C19_32 
REMARK   11  A    between atoms: C19_32  and  C20_33 
ROOT
HETATM    1  C9  UNL     1      16.293  31.615  35.247  1.00  0.00    -0.001 A 
HETATM    2  C10 UNL     1      15.084  31.626  34.587  1.00  0.00     0.016 A 
HETATM    3  C11 UNL     1      13.962  32.145  35.185  1.00  0.00     0.031 A 
HETATM    4  C12 UNL     1      14.089  32.657  36.478  1.00  0.00     0.047 A 
HETATM    5  N2  UNL     1      12.967  33.165  37.047  1.00  0.00    -0.352 N 
ATOM      6  H2  UNL     1      12.084  33.163  36.537  1.00  0.00     0.166 HD
HETATM    7  C13 UNL     1      13.033  33.671  38.290  1.00  0.00     0.182 A 
HETATM    8  N3  UNL     1      14.167  33.684  38.968  1.00  0.00    -0.338 N 
ATOM      9  H3  UNL     1      14.180  34.077  39.910  1.00  0.00     0.168 HD
HETATM   10  C14 UNL     1      15.290  33.199  38.453  1.00  0.00     0.119 A 
HETATM   11  C28 UNL     1      15.254  32.670  37.172  1.00  0.00     0.036 A 
HETATM   12  C29 UNL     1      16.365  32.142  36.546  1.00  0.00     0.031 A 
ENDROOT
BRANCH  10  13
HETATM   13  N4  UNL     1      16.473  33.201  39.205  1.00  0.00    -0.342 N 
ATOM     14  H4  UNL     1      17.332  32.891  38.751  1.00  0.00     0.167 HD
BRANCH  13  15
HETATM   15  C15 UNL     1      16.543  33.604  40.541  1.00  0.00     0.035 A 
HETATM   16  C16 UNL     1      17.438  34.632  40.866  1.00  0.00     0.032 A 
HETATM   17  C17 UNL     1      17.561  35.111  42.144  1.00  0.00     0.041 A 
HETATM   18  C18 UNL     1      16.797  34.584  43.147  1.00  0.00     0.091 A 
HETATM   19  C26 UNL     1      15.915  33.580  42.868  1.00  0.00     0.069 A 
HETATM   20 CL1  UNL     1      14.932  32.900  44.151  1.00  0.00    -0.081 Cl
HETATM   21  C27 UNL     1      15.803  33.105  41.553  1.00  0.00     0.056 A 
BRANCH  18  22
HETATM   22  O3  UNL     1      16.880  35.034  44.475  1.00  0.00    -0.345 OA
BRANCH  22  23
HETATM   23  C19 UNL     1      17.332  36.361  44.672  1.00  0.00     0.214 C 
BRANCH  23  24
HETATM   24  C20 UNL     1      16.172  37.280  44.794  1.00  0.00    -0.031 A 
HETATM   25  C21 UNL     1      16.393  38.577  45.174  1.00  0.00     0.009 A 
HETATM   26  C22 UNL     1      15.335  39.449  45.295  1.00  0.00     0.004 A 
HETATM   27  C23 UNL     1      14.043  39.030  45.037  1.00  0.00     0.042 A 
HETATM   28  C24 UNL     1      13.852  37.714  44.655  1.00  0.00     0.117 A 
HETATM   29  F1  UNL     1      12.556  37.329  44.406  1.00  0.00    -0.206 F 
HETATM   30  C25 UNL     1      14.893  36.825  44.528  1.00  0.00     0.051 A 
ENDBRANCH  23  24
ENDBRANCH  22  23
ENDBRANCH  18  22
ENDBRANCH  13  15
ENDBRANCH  10  13
BRANCH   1  31
HETATM   31  C8  UNL     1      17.494  31.068  34.625  1.00  0.00     0.086 A 
HETATM   32  C7  UNL     1      17.540  30.370  33.443  1.00  0.00     0.040 A 
HETATM   33  C6  UNL     1      18.866  30.060  33.259  1.00  0.00     0.037 A 
HETATM   34  C5  UNL     1      19.586  30.569  34.318  1.00  0.00     0.079 A 
HETATM   35  O4  UNL     1      18.703  31.155  35.091  1.00  0.00    -0.313 OA
BRANCH  34  36
HETATM   36  C4  UNL     1      21.035  30.500  34.580  1.00  0.00     0.296 C 
BRANCH  36  37
HETATM   37  N1  UNL     1      21.818  31.312  33.633  1.00  0.00    -0.069 N 
ATOM     38  H12 UNL     1      21.783  30.917  32.692  1.00  0.00     0.277 HD
ATOM     39  H11 UNL     1      22.818  31.223  33.810  1.00  0.00     0.277 HD
BRANCH  37  40
HETATM   40  C3  UNL     1      21.417  32.670  33.633  1.00  0.00     0.247 C 
BRANCH  40  41
HETATM   41  C2  UNL     1      21.738  33.505  34.802  1.00  0.00     0.167 C 
BRANCH  41  42
HETATM   42  S1  UNL     1      23.349  33.426  35.457  1.00  0.00     0.142 S 
HETATM   43  C1  UNL     1      24.631  33.848  34.315  1.00  0.00     0.161 C 
HETATM   44  O1  UNL     1      23.423  34.485  36.559  1.00  0.00    -0.228 OA
HETATM   45  O2  UNL     1      23.636  32.125  36.161  1.00  0.00    -0.228 OA
ENDBRANCH  41  42
ENDBRANCH  40  41
ENDBRANCH  37  40
ENDBRANCH  36  37
ENDBRANCH  34  36
ENDBRANCH   1  31
TORSDOF 11
ENDMDL
