MODEL 5
REMARK VINA RESULT: -10.701379085      3.489      5.589
REMARK  11 active torsions:
REMARK  status: ('A' for Active; 'I' for Inactive)
REMARK    1  A    between atoms: S1_2  and  C2_5 
REMARK    2  A    between atoms: C2_5  and  C3_6 
REMARK    3  A    between atoms: C3_6  and  N1_7 
REMARK    4  A    between atoms: N1_7  and  C4_10 
REMARK    5  A    between atoms: C4_10  and  C5_11 
REMARK    6  A    between atoms: C8_14  and  C9_15 
REMARK    7  A    between atoms: C14_24  and  N4_25 
REMARK    8  A    between atoms: N4_25  and  C15_27 
REMARK    9  A    between atoms: C18_30  and  O3_31 
REMARK   10  A    between atoms: O3_31  and  C19_32 
REMARK   11  A    between atoms: C19_32  and  C20_33 
ROOT
HETATM    1  C9  UNL     1      18.785  31.557  35.772  1.00  0.00    -0.001 A 
HETATM    2  C10 UNL     1      19.998  30.928  35.598  1.00  0.00     0.016 A 
HETATM    3  C11 UNL     1      21.050  31.186  36.442  1.00  0.00     0.031 A 
HETATM    4  C12 UNL     1      20.848  32.102  37.476  1.00  0.00     0.047 A 
HETATM    5  N2  UNL     1      21.901  32.339  38.297  1.00  0.00    -0.352 N 
ATOM      6  H2  UNL     1      22.790  31.860  38.149  1.00  0.00     0.166 HD
HETATM    7  C13 UNL     1      21.762  33.212  39.309  1.00  0.00     0.182 A 
HETATM    8  N3  UNL     1      20.620  33.843  39.521  1.00  0.00    -0.338 N 
ATOM      9  H3  UNL     1      20.550  34.499  40.299  1.00  0.00     0.168 HD
HETATM   10  C14 UNL     1      19.562  33.644  38.743  1.00  0.00     0.119 A 
HETATM   11  C28 UNL     1      19.675  32.749  37.691  1.00  0.00     0.036 A 
HETATM   12  C29 UNL     1      18.636  32.471  36.827  1.00  0.00     0.031 A 
ENDROOT
BRANCH  10  13
HETATM   13  N4  UNL     1      18.372  34.347  38.974  1.00  0.00    -0.342 N 
ATOM     14  H4  UNL     1      18.016  34.947  38.230  1.00  0.00     0.167 HD
BRANCH  13  15
HETATM   15  C15 UNL     1      17.645  34.274  40.165  1.00  0.00     0.035 A 
HETATM   16  C16 UNL     1      17.673  35.388  41.015  1.00  0.00     0.032 A 
HETATM   17  C17 UNL     1      16.973  35.421  42.193  1.00  0.00     0.041 A 
HETATM   18  C18 UNL     1      16.219  34.344  42.569  1.00  0.00     0.091 A 
HETATM   19  C26 UNL     1      16.169  33.241  41.767  1.00  0.00     0.069 A 
HETATM   20 CL1  UNL     1      15.203  31.857  42.244  1.00  0.00    -0.081 Cl
HETATM   21  C27 UNL     1      16.891  33.229  40.564  1.00  0.00     0.056 A 
BRANCH  18  22
HETATM   22  O3  UNL     1      15.482  34.320  43.764  1.00  0.00    -0.345 OA
BRANCH  22  23
HETATM   23  C19 UNL     1      15.962  35.122  44.827  1.00  0.00     0.214 C 
BRANCH  23  24
HETATM   24  C20 UNL     1      15.352  36.473  44.761  1.00  0.00    -0.031 A 
HETATM   25  C21 UNL     1      14.017  36.583  44.475  1.00  0.00     0.009 A 
HETATM   26  C22 UNL     1      13.427  37.824  44.407  1.00  0.00     0.004 A 
HETATM   27  C23 UNL     1      14.168  38.971  44.624  1.00  0.00     0.042 A 
HETATM   28  C24 UNL     1      15.514  38.827  44.910  1.00  0.00     0.117 A 
HETATM   29  F1  UNL     1      16.224  39.986  45.120  1.00  0.00    -0.206 F 
HETATM   30  C25 UNL     1      16.125  37.598  44.983  1.00  0.00     0.051 A 
ENDBRANCH  23  24
ENDBRANCH  22  23
ENDBRANCH  18  22
ENDBRANCH  13  15
ENDBRANCH  10  13
BRANCH   1  31
HETATM   31  C8  UNL     1      17.658  31.294  34.883  1.00  0.00     0.086 A 
HETATM   32  C7  UNL     1      16.355  31.665  35.105  1.00  0.00     0.040 A 
HETATM   33  C6  UNL     1      15.659  31.208  34.013  1.00  0.00     0.037 A 
HETATM   34  C5  UNL     1      16.541  30.577  33.162  1.00  0.00     0.079 A 
HETATM   35  O4  UNL     1      17.712  30.668  33.747  1.00  0.00    -0.313 OA
BRANCH  34  36
HETATM   36  C4  UNL     1      16.283  29.925  31.866  1.00  0.00     0.296 C 
BRANCH  36  37
HETATM   37  N1  UNL     1      16.586  30.804  30.723  1.00  0.00    -0.069 N 
ATOM     38  H12 UNL     1      16.930  31.712  31.037  1.00  0.00     0.277 HD
ATOM     39  H11 UNL     1      15.732  31.106  30.255  1.00  0.00     0.277 HD
BRANCH  37  40
HETATM   40  C3  UNL     1      17.486  30.204  29.809  1.00  0.00     0.247 C 
BRANCH  40  41
HETATM   41  C2  UNL     1      17.699  30.843  28.501  1.00  0.00     0.167 C 
BRANCH  41  42
HETATM   42  S1  UNL     1      16.647  32.150  28.037  1.00  0.00     0.142 S 
HETATM   43  C1  UNL     1      16.693  32.561  26.319  1.00  0.00     0.161 C 
HETATM   44  O1  UNL     1      15.218  31.673  28.302  1.00  0.00    -0.228 OA
HETATM   45  O2  UNL     1      16.806  33.371  28.906  1.00  0.00    -0.228 OA
ENDBRANCH  41  42
ENDBRANCH  40  41
ENDBRANCH  37  40
ENDBRANCH  36  37
ENDBRANCH  34  36
ENDBRANCH   1  31
TORSDOF 11
ENDMDL
