MODEL 12
REMARK VINA RESULT: -10.187596930      4.039      8.850
REMARK  11 active torsions:
REMARK  status: ('A' for Active; 'I' for Inactive)
REMARK    1  A    between atoms: S1_2  and  C2_5 
REMARK    2  A    between atoms: C2_5  and  C3_6 
REMARK    3  A    between atoms: C3_6  and  N1_7 
REMARK    4  A    between atoms: N1_7  and  C4_10 
REMARK    5  A    between atoms: C4_10  and  C5_11 
REMARK    6  A    between atoms: C8_14  and  C9_15 
REMARK    7  A    between atoms: C14_24  and  N4_25 
REMARK    8  A    between atoms: N4_25  and  C15_27 
REMARK    9  A    between atoms: C18_30  and  O3_31 
REMARK   10  A    between atoms: O3_31  and  C19_32 
REMARK   11  A    between atoms: C19_32  and  C20_33 
ROOT
HETATM    1  C9  UNL     1      15.736  33.158  38.667  1.00  0.00    -0.001 A 
HETATM    2  C10 UNL     1      14.522  33.515  38.122  1.00  0.00     0.016 A 
HETATM    3  C11 UNL     1      14.197  33.156  36.837  1.00  0.00     0.031 A 
HETATM    4  C12 UNL     1      15.134  32.423  36.107  1.00  0.00     0.047 A 
HETATM    5  N2  UNL     1      14.789  32.079  34.841  1.00  0.00    -0.352 N 
ATOM      6  H2  UNL     1      13.883  32.354  34.460  1.00  0.00     0.166 HD
HETATM    7  C13 UNL     1      15.654  31.373  34.093  1.00  0.00     0.182 A 
HETATM    8  N3  UNL     1      16.832  31.006  34.566  1.00  0.00    -0.338 N 
ATOM      9  H3  UNL     1      17.464  30.470  33.970  1.00  0.00     0.168 HD
HETATM   10  C14 UNL     1      17.213  31.319  35.799  1.00  0.00     0.119 A 
HETATM   11  C28 UNL     1      16.343  32.047  36.595  1.00  0.00     0.036 A 
HETATM   12  C29 UNL     1      16.642  32.421  37.888  1.00  0.00     0.031 A 
ENDROOT
BRANCH  10  13
HETATM   13  N4  UNL     1      18.480  30.940  36.266  1.00  0.00    -0.342 N 
ATOM     14  H4  UNL     1      18.585  30.009  36.667  1.00  0.00     0.167 HD
BRANCH  13  15
HETATM   15  C15 UNL     1      19.606  31.765  36.214  1.00  0.00     0.035 A 
HETATM   16  C16 UNL     1      20.183  32.159  37.428  1.00  0.00     0.032 A 
HETATM   17  C17 UNL     1      21.303  32.948  37.479  1.00  0.00     0.041 A 
HETATM   18  C18 UNL     1      21.889  33.374  36.320  1.00  0.00     0.091 A 
HETATM   19  C26 UNL     1      21.355  33.012  35.118  1.00  0.00     0.069 A 
HETATM   20 CL1  UNL     1      22.104  33.557  33.629  1.00  0.00    -0.081 Cl
HETATM   21  C27 UNL     1      20.209  32.203  35.089  1.00  0.00     0.056 A 
BRANCH  18  22
HETATM   22  O3  UNL     1      23.037  34.184  36.310  1.00  0.00    -0.345 OA
BRANCH  22  23
HETATM   23  C19 UNL     1      24.223  33.618  36.836  1.00  0.00     0.214 C 
BRANCH  23  24
HETATM   24  C20 UNL     1      24.798  34.512  37.872  1.00  0.00    -0.031 A 
HETATM   25  C21 UNL     1      26.158  34.662  37.936  1.00  0.00     0.009 A 
HETATM   26  C22 UNL     1      26.716  35.484  38.888  1.00  0.00     0.004 A 
HETATM   27  C23 UNL     1      25.917  36.167  39.787  1.00  0.00     0.042 A 
HETATM   28  C24 UNL     1      24.547  35.995  39.696  1.00  0.00     0.117 A 
HETATM   29  F1  UNL     1      23.781  36.687  40.604  1.00  0.00    -0.206 F 
HETATM   30  C25 UNL     1      23.967  35.179  38.754  1.00  0.00     0.051 A 
ENDBRANCH  23  24
ENDBRANCH  22  23
ENDBRANCH  18  22
ENDBRANCH  13  15
ENDBRANCH  10  13
BRANCH   1  31
HETATM   31  C8  UNL     1      16.096  33.532  40.031  1.00  0.00     0.086 A 
HETATM   32  C7  UNL     1      17.206  34.251  40.401  1.00  0.00     0.040 A 
HETATM   33  C6  UNL     1      17.127  34.357  41.769  1.00  0.00     0.037 A 
HETATM   34  C5  UNL     1      15.987  33.709  42.194  1.00  0.00     0.079 A 
HETATM   35  O4  UNL     1      15.425  33.242  41.104  1.00  0.00    -0.313 OA
BRANCH  34  36
HETATM   36  C4  UNL     1      15.463  33.543  43.561  1.00  0.00     0.296 C 
BRANCH  36  37
HETATM   37  N1  UNL     1      14.925  34.798  44.114  1.00  0.00    -0.069 N 
ATOM     38  H12 UNL     1      14.036  34.640  44.589  1.00  0.00     0.277 HD
ATOM     39  H11 UNL     1      14.606  35.421  43.372  1.00  0.00     0.277 HD
BRANCH  37  40
HETATM   40  C3  UNL     1      15.851  35.449  44.966  1.00  0.00     0.247 C 
BRANCH  40  41
HETATM   41  C2  UNL     1      16.142  36.874  44.740  1.00  0.00     0.167 C 
BRANCH  41  42
HETATM   42  S1  UNL     1      14.813  37.945  44.399  1.00  0.00     0.142 S 
HETATM   43  C1  UNL     1      13.916  38.484  45.824  1.00  0.00     0.161 C 
HETATM   44  O1  UNL     1      15.420  39.215  43.799  1.00  0.00    -0.228 OA
HETATM   45  O2  UNL     1      13.893  37.420  43.327  1.00  0.00    -0.228 OA
ENDBRANCH  41  42
ENDBRANCH  40  41
ENDBRANCH  37  40
ENDBRANCH  36  37
ENDBRANCH  34  36
ENDBRANCH   1  31
TORSDOF 11
ENDMDL
