MODEL 20
REMARK VINA RESULT: -9.857880670      2.301      2.846
REMARK  11 active torsions:
REMARK  status: ('A' for Active; 'I' for Inactive)
REMARK    1  A    between atoms: S1_2  and  C2_5 
REMARK    2  A    between atoms: C2_5  and  C3_6 
REMARK    3  A    between atoms: C3_6  and  N1_7 
REMARK    4  A    between atoms: N1_7  and  C4_10 
REMARK    5  A    between atoms: C4_10  and  C5_11 
REMARK    6  A    between atoms: C8_14  and  C9_15 
REMARK    7  A    between atoms: C14_24  and  N4_25 
REMARK    8  A    between atoms: N4_25  and  C15_27 
REMARK    9  A    between atoms: C18_30  and  O3_31 
REMARK   10  A    between atoms: O3_31  and  C19_32 
REMARK   11  A    between atoms: C19_32  and  C20_33 
ROOT
HETATM    1  C9  UNL     1      18.127  31.336  35.230  1.00  0.00    -0.001 A 
HETATM    2  C10 UNL     1      17.117  31.071  34.331  1.00  0.00     0.016 A 
HETATM    3  C11 UNL     1      15.818  31.418  34.612  1.00  0.00     0.031 A 
HETATM    4  C12 UNL     1      15.559  32.043  35.833  1.00  0.00     0.047 A 
HETATM    5  N2  UNL     1      14.269  32.376  36.088  1.00  0.00    -0.352 N 
ATOM      6  H2  UNL     1      13.539  32.170  35.405  1.00  0.00     0.166 HD
HETATM    7  C13 UNL     1      13.963  32.980  37.248  1.00  0.00     0.182 A 
HETATM    8  N3  UNL     1      14.893  33.256  38.146  1.00  0.00    -0.338 N 
ATOM      9  H3  UNL     1      14.625  33.716  39.016  1.00  0.00     0.168 HD
HETATM   10  C14 UNL     1      16.169  32.949  37.941  1.00  0.00     0.119 A 
HETATM   11  C28 UNL     1      16.515  32.326  36.753  1.00  0.00     0.036 A 
HETATM   12  C29 UNL     1      17.811  31.966  36.444  1.00  0.00     0.031 A 
ENDROOT
BRANCH  10  13
HETATM   13  N4  UNL     1      17.130  33.230  38.922  1.00  0.00    -0.342 N 
ATOM     14  H4  UNL     1      18.113  33.197  38.654  1.00  0.00     0.167 HD
BRANCH  13  15
HETATM   15  C15 UNL     1      16.819  33.550  40.246  1.00  0.00     0.035 A 
HETATM   16  C16 UNL     1      17.309  34.759  40.756  1.00  0.00     0.032 A 
HETATM   17  C17 UNL     1      17.037  35.172  42.035  1.00  0.00     0.041 A 
HETATM   18  C18 UNL     1      16.267  34.394  42.853  1.00  0.00     0.091 A 
HETATM   19  C26 UNL     1      15.773  33.208  42.391  1.00  0.00     0.069 A 
HETATM   20 CL1  UNL     1      14.784  32.206  43.437  1.00  0.00    -0.081 Cl
HETATM   21  C27 UNL     1      16.062  32.806  41.078  1.00  0.00     0.056 A 
BRANCH  18  22
HETATM   22  O3  UNL     1      15.956  34.764  44.172  1.00  0.00    -0.345 OA
BRANCH  22  23
HETATM   23  C19 UNL     1      14.729  35.440  44.373  1.00  0.00     0.214 C 
BRANCH  23  24
HETATM   24  C20 UNL     1      14.983  36.852  44.755  1.00  0.00    -0.031 A 
HETATM   25  C21 UNL     1      16.273  37.311  44.770  1.00  0.00     0.009 A 
HETATM   26  C22 UNL     1      16.536  38.616  45.120  1.00  0.00     0.004 A 
HETATM   27  C23 UNL     1      15.507  39.476  45.460  1.00  0.00     0.042 A 
HETATM   28  C24 UNL     1      14.215  38.982  45.435  1.00  0.00     0.117 A 
HETATM   29  F1  UNL     1      13.216  39.862  45.778  1.00  0.00    -0.206 F 
HETATM   30  C25 UNL     1      13.929  37.683  45.089  1.00  0.00     0.051 A 
ENDBRANCH  23  24
ENDBRANCH  22  23
ENDBRANCH  18  22
ENDBRANCH  13  15
ENDBRANCH  10  13
BRANCH   1  31
HETATM   31  C8  UNL     1      19.512  30.975  34.945  1.00  0.00     0.086 A 
HETATM   32  C7  UNL     1      19.944  30.229  33.877  1.00  0.00     0.040 A 
HETATM   33  C6  UNL     1      21.308  30.149  34.022  1.00  0.00     0.037 A 
HETATM   34  C5  UNL     1      21.670  30.837  35.160  1.00  0.00     0.079 A 
HETATM   35  O4  UNL     1      20.547  31.301  35.657  1.00  0.00    -0.313 OA
BRANCH  34  36
HETATM   36  C4  UNL     1      23.008  31.041  35.741  1.00  0.00     0.296 C 
BRANCH  36  37
HETATM   37  N1  UNL     1      23.835  31.961  34.942  1.00  0.00    -0.069 N 
ATOM     38  H12 UNL     1      24.075  31.551  34.039  1.00  0.00     0.277 HD
ATOM     39  H11 UNL     1      24.773  32.049  35.334  1.00  0.00     0.277 HD
BRANCH  37  40
HETATM   40  C3  UNL     1      23.225  33.229  34.782  1.00  0.00     0.247 C 
BRANCH  40  41
HETATM   41  C2  UNL     1      22.788  33.642  33.439  1.00  0.00     0.167 C 
BRANCH  41  42
HETATM   42  S1  UNL     1      23.775  33.199  32.075  1.00  0.00     0.142 S 
HETATM   43  C1  UNL     1      23.376  31.636  31.352  1.00  0.00     0.161 C 
HETATM   44  O1  UNL     1      23.498  34.233  30.983  1.00  0.00    -0.228 OA
HETATM   45  O2  UNL     1      25.251  33.324  32.351  1.00  0.00    -0.228 OA
ENDBRANCH  41  42
ENDBRANCH  40  41
ENDBRANCH  37  40
ENDBRANCH  36  37
ENDBRANCH  34  36
ENDBRANCH   1  31
TORSDOF 11
ENDMDL
