MODEL 19
REMARK VINA RESULT: -9.883837316      3.023      3.401
REMARK  11 active torsions:
REMARK  status: ('A' for Active; 'I' for Inactive)
REMARK    1  A    between atoms: S1_2  and  C2_5 
REMARK    2  A    between atoms: C2_5  and  C3_6 
REMARK    3  A    between atoms: C3_6  and  N1_7 
REMARK    4  A    between atoms: N1_7  and  C4_10 
REMARK    5  A    between atoms: C4_10  and  C5_11 
REMARK    6  A    between atoms: C8_14  and  C9_15 
REMARK    7  A    between atoms: C14_24  and  N4_25 
REMARK    8  A    between atoms: N4_25  and  C15_27 
REMARK    9  A    between atoms: C18_30  and  O3_31 
REMARK   10  A    between atoms: O3_31  and  C19_32 
REMARK   11  A    between atoms: C19_32  and  C20_33 
ROOT
HETATM    1  C9  UNL     1      17.047  31.733  34.917  1.00  0.00    -0.001 A 
HETATM    2  C10 UNL     1      15.899  31.457  34.207  1.00  0.00     0.016 A 
HETATM    3  C11 UNL     1      14.664  31.766  34.722  1.00  0.00     0.031 A 
HETATM    4  C12 UNL     1      14.613  32.368  35.980  1.00  0.00     0.047 A 
HETATM    5  N2  UNL     1      13.383  32.665  36.466  1.00  0.00    -0.352 N 
ATOM      6  H2  UNL     1      12.547  32.451  35.921  1.00  0.00     0.166 HD
HETATM    7  C13 UNL     1      13.275  33.245  37.674  1.00  0.00     0.182 A 
HETATM    8  N3  UNL     1      14.344  33.532  38.396  1.00  0.00    -0.338 N 
ATOM      9  H3  UNL     1      14.225  33.973  39.309  1.00  0.00     0.168 HD
HETATM   10  C14 UNL     1      15.569  33.259  37.962  1.00  0.00     0.119 A 
HETATM   11  C28 UNL     1      15.712  32.661  36.721  1.00  0.00     0.036 A 
HETATM   12  C29 UNL     1      16.939  32.338  36.179  1.00  0.00     0.031 A 
ENDROOT
BRANCH  10  13
HETATM   13  N4  UNL     1      16.684  33.549  38.761  1.00  0.00    -0.342 N 
ATOM     14  H4  UNL     1      17.597  33.603  38.311  1.00  0.00     0.167 HD
BRANCH  13  15
HETATM   15  C15 UNL     1      16.616  33.769  40.140  1.00  0.00     0.035 A 
HETATM   16  C16 UNL     1      17.295  34.880  40.657  1.00  0.00     0.032 A 
HETATM   17  C17 UNL     1      17.267  35.192  41.991  1.00  0.00     0.041 A 
HETATM   18  C18 UNL     1      16.563  34.407  42.860  1.00  0.00     0.091 A 
HETATM   19  C26 UNL     1      15.890  33.316  42.393  1.00  0.00     0.069 A 
HETATM   20 CL1  UNL     1      14.984  32.305  43.505  1.00  0.00    -0.081 Cl
HETATM   21  C27 UNL     1      15.929  33.015  41.024  1.00  0.00     0.056 A 
BRANCH  18  22
HETATM   22  O3  UNL     1      16.499  34.677  44.238  1.00  0.00    -0.345 OA
BRANCH  22  23
HETATM   23  C19 UNL     1      15.221  34.962  44.774  1.00  0.00     0.214 C 
BRANCH  23  24
HETATM   24  C20 UNL     1      14.926  36.411  44.642  1.00  0.00    -0.031 A 
HETATM   25  C21 UNL     1      13.683  36.797  44.216  1.00  0.00     0.009 A 
HETATM   26  C22 UNL     1      13.385  38.134  44.084  1.00  0.00     0.004 A 
HETATM   27  C23 UNL     1      14.329  39.101  44.379  1.00  0.00     0.042 A 
HETATM   28  C24 UNL     1      15.575  38.679  44.807  1.00  0.00     0.117 A 
HETATM   29  F1  UNL     1      16.492  39.663  45.091  1.00  0.00    -0.206 F 
HETATM   30  C25 UNL     1      15.896  37.349  44.946  1.00  0.00     0.051 A 
ENDBRANCH  23  24
ENDBRANCH  22  23
ENDBRANCH  18  22
ENDBRANCH  13  15
ENDBRANCH  10  13
BRANCH   1  31
HETATM   31  C8  UNL     1      18.367  31.410  34.384  1.00  0.00     0.086 A 
HETATM   32  C7  UNL     1      18.738  30.210  33.830  1.00  0.00     0.040 A 
HETATM   33  C6  UNL     1      20.055  30.370  33.473  1.00  0.00     0.037 A 
HETATM   34  C5  UNL     1      20.450  31.646  33.813  1.00  0.00     0.079 A 
HETATM   35  O4  UNL     1      19.392  32.206  34.351  1.00  0.00    -0.313 OA
BRANCH  34  36
HETATM   36  C4  UNL     1      21.761  32.295  33.637  1.00  0.00     0.296 C 
BRANCH  36  37
HETATM   37  N1  UNL     1      22.133  32.438  32.219  1.00  0.00    -0.069 N 
ATOM     38  H12 UNL     1      21.308  32.579  31.635  1.00  0.00     0.277 HD
ATOM     39  H11 UNL     1      22.457  31.552  31.831  1.00  0.00     0.277 HD
BRANCH  37  40
HETATM   40  C3  UNL     1      23.086  33.465  32.016  1.00  0.00     0.247 C 
BRANCH  40  41
HETATM   41  C2  UNL     1      24.093  33.299  30.955  1.00  0.00     0.167 C 
BRANCH  41  42
HETATM   42  S1  UNL     1      25.737  33.762  31.295  1.00  0.00     0.142 S 
HETATM   43  C1  UNL     1      25.927  34.844  32.680  1.00  0.00     0.161 C 
HETATM   44  O1  UNL     1      26.480  32.480  31.677  1.00  0.00    -0.228 OA
HETATM   45  O2  UNL     1      26.467  34.276  30.081  1.00  0.00    -0.228 OA
ENDBRANCH  41  42
ENDBRANCH  40  41
ENDBRANCH  37  40
ENDBRANCH  36  37
ENDBRANCH  34  36
ENDBRANCH   1  31
TORSDOF 11
ENDMDL
