MODEL 9
REMARK VINA RESULT: -10.339188646      3.431      5.605
REMARK  11 active torsions:
REMARK  status: ('A' for Active; 'I' for Inactive)
REMARK    1  A    between atoms: S1_2  and  C2_5 
REMARK    2  A    between atoms: C2_5  and  C3_6 
REMARK    3  A    between atoms: C3_6  and  N1_7 
REMARK    4  A    between atoms: N1_7  and  C4_10 
REMARK    5  A    between atoms: C4_10  and  C5_11 
REMARK    6  A    between atoms: C8_14  and  C9_15 
REMARK    7  A    between atoms: C14_24  and  N4_25 
REMARK    8  A    between atoms: N4_25  and  C15_27 
REMARK    9  A    between atoms: C18_30  and  O3_31 
REMARK   10  A    between atoms: O3_31  and  C19_32 
REMARK   11  A    between atoms: C19_32  and  C20_33 
ROOT
HETATM    1  C9  UNL     1      18.702  31.566  35.642  1.00  0.00    -0.001 A 
HETATM    2  C10 UNL     1      19.918  30.951  35.441  1.00  0.00     0.016 A 
HETATM    3  C11 UNL     1      20.977  31.199  36.279  1.00  0.00     0.031 A 
HETATM    4  C12 UNL     1      20.779  32.091  37.334  1.00  0.00     0.047 A 
HETATM    5  N2  UNL     1      21.839  32.319  38.149  1.00  0.00    -0.352 N 
ATOM      6  H2  UNL     1      22.730  31.851  37.980  1.00  0.00     0.166 HD
HETATM    7  C13 UNL     1      21.704  33.169  39.181  1.00  0.00     0.182 A 
HETATM    8  N3  UNL     1      20.560  33.786  39.419  1.00  0.00    -0.338 N 
ATOM      9  H3  UNL     1      20.493  34.424  40.212  1.00  0.00     0.168 HD
HETATM   10  C14 UNL     1      19.495  33.594  38.649  1.00  0.00     0.119 A 
HETATM   11  C28 UNL     1      19.603  32.723  37.577  1.00  0.00     0.036 A 
HETATM   12  C29 UNL     1      18.557  32.455  36.719  1.00  0.00     0.031 A 
ENDROOT
BRANCH  10  13
HETATM   13  N4  UNL     1      18.301  34.283  38.908  1.00  0.00    -0.342 N 
ATOM     14  H4  UNL     1      17.909  34.859  38.165  1.00  0.00     0.167 HD
BRANCH  13  15
HETATM   15  C15 UNL     1      17.620  34.224  40.127  1.00  0.00     0.035 A 
HETATM   16  C16 UNL     1      17.706  35.335  40.976  1.00  0.00     0.032 A 
HETATM   17  C17 UNL     1      17.053  35.381  42.180  1.00  0.00     0.041 A 
HETATM   18  C18 UNL     1      16.291  34.321  42.584  1.00  0.00     0.091 A 
HETATM   19  C26 UNL     1      16.184  33.221  41.783  1.00  0.00     0.069 A 
HETATM   20 CL1  UNL     1      15.207  31.858  42.296  1.00  0.00    -0.081 Cl
HETATM   21  C27 UNL     1      16.859  33.195  40.554  1.00  0.00     0.056 A 
BRANCH  18  22
HETATM   22  O3  UNL     1      15.600  34.312  43.807  1.00  0.00    -0.345 OA
BRANCH  22  23
HETATM   23  C19 UNL     1      16.109  35.142  44.834  1.00  0.00     0.214 C 
BRANCH  23  24
HETATM   24  C20 UNL     1      15.440  36.467  44.795  1.00  0.00    -0.031 A 
HETATM   25  C21 UNL     1      14.096  36.523  44.537  1.00  0.00     0.009 A 
HETATM   26  C22 UNL     1      13.454  37.739  44.494  1.00  0.00     0.004 A 
HETATM   27  C23 UNL     1      14.151  38.914  44.709  1.00  0.00     0.042 A 
HETATM   28  C24 UNL     1      15.507  38.824  44.967  1.00  0.00     0.117 A 
HETATM   29  F1  UNL     1      16.171  40.010  45.176  1.00  0.00    -0.206 F 
HETATM   30  C25 UNL     1      16.171  37.621  45.015  1.00  0.00     0.051 A 
ENDBRANCH  23  24
ENDBRANCH  22  23
ENDBRANCH  18  22
ENDBRANCH  13  15
ENDBRANCH  10  13
BRANCH   1  31
HETATM   31  C8  UNL     1      17.567  31.313  34.760  1.00  0.00     0.086 A 
HETATM   32  C7  UNL     1      16.259  31.644  35.017  1.00  0.00     0.040 A 
HETATM   33  C6  UNL     1      15.556  31.216  33.917  1.00  0.00     0.037 A 
HETATM   34  C5  UNL     1      16.439  30.641  33.028  1.00  0.00     0.079 A 
HETATM   35  O4  UNL     1      17.617  30.735  33.598  1.00  0.00    -0.313 OA
BRANCH  34  36
HETATM   36  C4  UNL     1      16.175  30.036  31.711  1.00  0.00     0.296 C 
BRANCH  36  37
HETATM   37  N1  UNL     1      17.318  30.170  30.791  1.00  0.00    -0.069 N 
ATOM     38  H12 UNL     1      17.351  29.395  30.129  1.00  0.00     0.277 HD
ATOM     39  H11 UNL     1      18.201  30.009  31.274  1.00  0.00     0.277 HD
BRANCH  37  40
HETATM   40  C3  UNL     1      17.322  31.417  30.119  1.00  0.00     0.247 C 
BRANCH  40  41
HETATM   41  C2  UNL     1      17.311  31.430  28.647  1.00  0.00     0.167 C 
BRANCH  41  42
HETATM   42  S1  UNL     1      18.105  30.131  27.803  1.00  0.00     0.142 S 
HETATM   43  C1  UNL     1      18.565  30.506  26.138  1.00  0.00     0.161 C 
HETATM   44  O1  UNL     1      19.422  29.874  28.539  1.00  0.00    -0.228 OA
HETATM   45  O2  UNL     1      17.358  28.826  27.895  1.00  0.00    -0.228 OA
ENDBRANCH  41  42
ENDBRANCH  40  41
ENDBRANCH  37  40
ENDBRANCH  36  37
ENDBRANCH  34  36
ENDBRANCH   1  31
TORSDOF 11
ENDMDL
