MODEL 3
REMARK VINA RESULT: -6.244327771      1.443      3.780
REMARK  6 active torsions:
REMARK  status: ('A' for Active; 'I' for Inactive)
REMARK    1  A    between atoms: O1_1  and  C1_3 
REMARK    2  A    between atoms: C1_3  and  C2_4 
REMARK    3  A    between atoms: C3_6  and  O2_7 
REMARK    4  A    between atoms: C4_9  and  O3_10 
REMARK    5  A    between atoms: C5_12  and  O4_13 
REMARK    6  A    between atoms: C6_15  and  O5_16 
ROOT
HETATM    1  C2  UNL     1      24.270  72.368   9.162  1.00  0.00     0.105 C 
HETATM    2  S1  UNL     1      23.539  74.006   9.232  1.00  0.00    -0.125 SA
HETATM    3  C3  UNL     1      24.071  74.948  10.677  1.00  0.00     0.211 C 
HETATM    4  C4  UNL     1      25.333  74.369  11.288  1.00  0.00     0.188 C 
HETATM    5  C5  UNL     1      26.067  73.649  10.178  1.00  0.00     0.180 C 
HETATM    6  C6  UNL     1      25.433  72.254  10.109  1.00  0.00     0.165 C 
ENDROOT
BRANCH   1   7
HETATM    7  C1  UNL     1      23.215  71.329   9.406  1.00  0.00     0.181 C 
BRANCH   7   8
HETATM    8  O1  UNL     1      23.749  70.092   9.737  1.00  0.00    -0.400 OA
ATOM      9  H1  UNL     1      23.610  69.865  10.649  1.00  0.00     0.209 HD
ENDBRANCH   7   8
ENDBRANCH   1   7
BRANCH   6  10
HETATM   10  O5  UNL     1      26.379  71.324   9.693  1.00  0.00    -0.392 OA
ATOM     11  H5  UNL     1      26.864  70.942  10.416  1.00  0.00     0.210 HD
ENDBRANCH   6  10
BRANCH   3  12
HETATM   12  O2  UNL     1      24.386  76.244  10.255  1.00  0.00    -0.383 OA
ATOM     13  H2  UNL     1      24.057  76.352   9.371  1.00  0.00     0.211 HD
ENDBRANCH   3  12
BRANCH   5  14
HETATM   14  O4  UNL     1      27.423  73.598  10.361  1.00  0.00    -0.390 OA
ATOM     15  H4  UNL     1      27.839  74.451  10.363  1.00  0.00     0.210 HD
ENDBRANCH   5  14
BRANCH   4  16
HETATM   16  O3  UNL     1      26.104  75.320  11.918  1.00  0.00    -0.389 OA
ATOM     17  H3  UNL     1      27.005  75.042  12.036  1.00  0.00     0.210 HD
ENDBRANCH   4  16
TORSDOF 6
ENDMDL
