MODEL 10
REMARK VINA RESULT: -5.971858822      1.921      3.774
REMARK  6 active torsions:
REMARK  status: ('A' for Active; 'I' for Inactive)
REMARK    1  A    between atoms: O1_1  and  C1_3 
REMARK    2  A    between atoms: C1_3  and  C2_4 
REMARK    3  A    between atoms: C3_6  and  O2_7 
REMARK    4  A    between atoms: C4_9  and  O3_10 
REMARK    5  A    between atoms: C5_12  and  O4_13 
REMARK    6  A    between atoms: C6_15  and  O5_16 
ROOT
HETATM    1  C2  UNL     1      23.052  73.108  10.053  1.00  0.00     0.105 C 
HETATM    2  S1  UNL     1      24.113  71.671   9.879  1.00  0.00    -0.125 SA
HETATM    3  C3  UNL     1      25.843  72.109   9.600  1.00  0.00     0.211 C 
HETATM    4  C4  UNL     1      26.128  73.544  10.003  1.00  0.00     0.188 C 
HETATM    5  C5  UNL     1      25.111  73.912  11.061  1.00  0.00     0.180 C 
HETATM    6  C6  UNL     1      23.861  74.354  10.289  1.00  0.00     0.165 C 
ENDROOT
BRANCH   1   7
HETATM    7  C1  UNL     1      22.145  73.218   8.862  1.00  0.00     0.181 C 
BRANCH   7   8
HETATM    8  O1  UNL     1      21.008  73.970   9.124  1.00  0.00    -0.400 OA
ATOM      9  H1  UNL     1      20.239  73.432   9.271  1.00  0.00     0.209 HD
ENDBRANCH   7   8
ENDBRANCH   1   7
BRANCH   6  10
HETATM   10  O5  UNL     1      23.171  75.318  11.015  1.00  0.00    -0.392 OA
ATOM     11  H5  UNL     1      23.374  75.296  11.943  1.00  0.00     0.210 HD
ENDBRANCH   6  10
BRANCH   3  12
HETATM   12  O2  UNL     1      26.631  71.296  10.420  1.00  0.00    -0.383 OA
ATOM     13  H2  UNL     1      26.226  71.265  11.279  1.00  0.00     0.211 HD
ENDBRANCH   3  12
BRANCH   5  14
HETATM   14  O4  UNL     1      25.551  74.871  11.934  1.00  0.00    -0.390 OA
ATOM     15  H4  UNL     1      25.075  75.690  11.870  1.00  0.00     0.210 HD
ENDBRANCH   5  14
BRANCH   4  16
HETATM   16  O3  UNL     1      27.428  73.732  10.414  1.00  0.00    -0.389 OA
ATOM     17  H3  UNL     1      27.491  74.259  11.203  1.00  0.00     0.210 HD
ENDBRANCH   4  16
TORSDOF 6
ENDMDL
