MODEL 9
REMARK VINA RESULT: -5.992255269      2.325      3.910
REMARK  6 active torsions:
REMARK  status: ('A' for Active; 'I' for Inactive)
REMARK    1  A    between atoms: O1_1  and  C1_3 
REMARK    2  A    between atoms: C1_3  and  C2_4 
REMARK    3  A    between atoms: C3_6  and  O2_7 
REMARK    4  A    between atoms: C4_9  and  O3_10 
REMARK    5  A    between atoms: C5_12  and  O4_13 
REMARK    6  A    between atoms: C6_15  and  O5_16 
ROOT
HETATM    1  C2  UNL     1      22.689  72.655   8.841  1.00  0.00     0.105 C 
HETATM    2  S1  UNL     1      23.271  73.566  10.274  1.00  0.00    -0.125 SA
HETATM    3  C3  UNL     1      24.587  72.706  11.162  1.00  0.00     0.211 C 
HETATM    4  C4  UNL     1      25.234  71.636  10.303  1.00  0.00     0.188 C 
HETATM    5  C5  UNL     1      25.043  72.056   8.862  1.00  0.00     0.180 C 
HETATM    6  C6  UNL     1      23.646  71.555   8.474  1.00  0.00     0.165 C 
ENDROOT
BRANCH   1   7
HETATM    7  C1  UNL     1      21.294  72.157   9.088  1.00  0.00     0.181 C 
BRANCH   7   8
HETATM    8  O1  UNL     1      21.238  70.779   9.244  1.00  0.00    -0.400 OA
ATOM      9  H1  UNL     1      22.077  70.359   9.092  1.00  0.00     0.209 HD
ENDBRANCH   7   8
ENDBRANCH   1   7
BRANCH   6  10
HETATM   10  O5  UNL     1      23.614  71.241   7.120  1.00  0.00    -0.392 OA
ATOM     11  H5  UNL     1      22.951  71.727   6.643  1.00  0.00     0.210 HD
ENDBRANCH   6  10
BRANCH   3  12
HETATM   12  O2  UNL     1      25.586  73.638  11.463  1.00  0.00    -0.383 OA
ATOM     13  H2  UNL     1      25.210  74.506  11.379  1.00  0.00     0.211 HD
ENDBRANCH   3  12
BRANCH   5  14
HETATM   14  O4  UNL     1      26.017  71.588   8.021  1.00  0.00    -0.390 OA
ATOM     15  H4  UNL     1      25.937  70.662   7.826  1.00  0.00     0.210 HD
ENDBRANCH   5  14
BRANCH   4  16
HETATM   16  O3  UNL     1      26.553  71.415  10.631  1.00  0.00    -0.389 OA
ATOM     17  H3  UNL     1      26.890  70.604  10.270  1.00  0.00     0.210 HD
ENDBRANCH   4  16
TORSDOF 6
ENDMDL
