MODEL 5
REMARK VINA RESULT: -9.266641999      1.139      1.139
REMARK  5 active torsions:
REMARK  status: ('A' for Active; 'I' for Inactive)
REMARK    1  A    between atoms: O1_2  and  C2_3 
REMARK    2  A    between atoms: C5_6  and  C6_7 
REMARK       I    between atoms: C6_7  and  N1_9 
REMARK    3  A    between atoms: N1_9  and  C7_11 
REMARK    4  A    between atoms: C13_21  and  O3_22 
REMARK    5  A    between atoms: O3_22  and  C14_23 
ROOT
HETATM    1  C2  UNL     1      90.335   2.015  63.755  1.00  0.00     0.101 A 
HETATM    2  C3  UNL     1      90.312   2.238  62.390  1.00  0.00     0.040 A 
HETATM    3  C4  UNL     1      89.126   2.251  61.687  1.00  0.00     0.020 A 
HETATM    4  C5  UNL     1      87.928   2.039  62.344  1.00  0.00     0.035 A 
HETATM    5  C12 UNL     1      87.982   1.822  63.688  1.00  0.00     0.056 A 
HETATM    6  C13 UNL     1      89.135   1.797  64.439  1.00  0.00     0.103 A 
ENDROOT
BRANCH   4   7
HETATM    7  C6  UNL     1      86.713   2.063  61.559  1.00  0.00     0.256 C 
HETATM    8  O2  UNL     1      86.326   1.038  60.932  1.00  0.00    -0.267 OA
HETATM    9  N1  UNL     1      85.871   3.203  61.423  1.00  0.00    -0.320 N 
ATOM     10  H1  UNL     1      86.126   4.066  61.904  1.00  0.00     0.169 HD
BRANCH   9  11
HETATM   11  C7  UNL     1      84.683   3.180  60.637  1.00  0.00     0.081 A 
HETATM   12  C8  UNL     1      83.497   2.921  61.297  1.00  0.00     0.077 A 
HETATM   13 CL1  UNL     1      83.484   2.638  63.019  1.00  0.00    -0.080 Cl
HETATM   14  C9  UNL     1      82.308   2.883  60.604  1.00  0.00     0.113 A 
HETATM   15  N2  UNL     1      82.311   3.101  59.265  1.00  0.00    -0.372 N 
HETATM   16  C10 UNL     1      83.449   3.357  58.593  1.00  0.00     0.113 A 
ATOM     17  H2  UNL     1      81.429   3.072  58.755  1.00  0.00     0.164 HD
HETATM   18  C11 UNL     1      84.640   3.393  59.296  1.00  0.00     0.077 A 
HETATM   19 CL2  UNL     1      86.152   3.724  58.457  1.00  0.00    -0.080 Cl
ENDBRANCH   9  11
ENDBRANCH   4   7
BRANCH   6  20
HETATM   20  O3  UNL     1      89.207   1.580  65.792  1.00  0.00    -0.343 OA
BRANCH  20  21
HETATM   21  C14 UNL     1      88.260   1.914  66.757  1.00  0.00     0.129 C 
HETATM   22  C15 UNL     1      88.779   1.763  68.175  1.00  0.00     0.032 C 
HETATM   23  C16 UNL     1      88.943   0.261  68.273  1.00  0.00     0.002 C 
HETATM   24  C17 UNL     1      87.613  -0.214  67.725  1.00  0.00     0.002 C 
HETATM   25  C18 UNL     1      87.178   0.828  66.717  1.00  0.00     0.032 C 
ENDBRANCH  20  21
ENDBRANCH   6  20
BRANCH   1  26
HETATM   26  O1  UNL     1      91.547   2.008  64.432  1.00  0.00    -0.353 OA
HETATM   27  C1  UNL     1      92.710   2.366  63.742  1.00  0.00     0.210 C 
ENDBRANCH   1  26
TORSDOF 5
ENDMDL
