MODEL 17
REMARK VINA RESULT: -7.279634920      3.549      6.155
REMARK  5 active torsions:
REMARK  status: ('A' for Active; 'I' for Inactive)
REMARK    1  A    between atoms: O1_2  and  C2_3 
REMARK    2  A    between atoms: C5_6  and  C6_7 
REMARK       I    between atoms: C6_7  and  N1_9 
REMARK    3  A    between atoms: N1_9  and  C7_11 
REMARK    4  A    between atoms: C13_21  and  O3_22 
REMARK    5  A    between atoms: O3_22  and  C14_23 
ROOT
HETATM    1  C2  UNL     1      89.226   2.033  63.727  1.00  0.00     0.101 A 
HETATM    2  C3  UNL     1      89.376   1.503  64.996  1.00  0.00     0.040 A 
HETATM    3  C4  UNL     1      88.296   1.009  65.697  1.00  0.00     0.020 A 
HETATM    4  C5  UNL     1      87.034   1.035  65.135  1.00  0.00     0.035 A 
HETATM    5  C12 UNL     1      86.916   1.562  63.884  1.00  0.00     0.056 A 
HETATM    6  C13 UNL     1      87.956   2.069  63.140  1.00  0.00     0.103 A 
ENDROOT
BRANCH   4   7
HETATM    7  C6  UNL     1      85.936   0.504  65.915  1.00  0.00     0.256 C 
HETATM    8  O2  UNL     1      85.934   0.591  67.174  1.00  0.00    -0.267 OA
HETATM    9  N1  UNL     1      84.798  -0.144  65.356  1.00  0.00    -0.320 N 
ATOM     10  H1  UNL     1      84.737  -0.248  64.343  1.00  0.00     0.169 HD
BRANCH   9  11
HETATM   11  C7  UNL     1      83.741  -0.653  66.164  1.00  0.00     0.081 A 
HETATM   12  C8  UNL     1      82.664   0.183  66.390  1.00  0.00     0.077 A 
HETATM   13 CL1  UNL     1      82.626   1.786  65.704  1.00  0.00    -0.080 Cl
HETATM   14  C9  UNL     1      81.605  -0.239  67.162  1.00  0.00     0.113 A 
HETATM   15  N2  UNL     1      81.628  -1.485  67.699  1.00  0.00    -0.372 N 
HETATM   16  C10 UNL     1      82.661  -2.323  67.497  1.00  0.00     0.113 A 
ATOM     17  H2  UNL     1      80.842  -1.794  68.270  1.00  0.00     0.164 HD
HETATM   18  C11 UNL     1      83.723  -1.892  66.721  1.00  0.00     0.077 A 
HETATM   19 CL2  UNL     1      85.095  -2.955  66.432  1.00  0.00    -0.080 Cl
ENDBRANCH   9  11
ENDBRANCH   4   7
BRANCH   6  20
HETATM   20  O3  UNL     1      87.856   2.603  61.880  1.00  0.00    -0.343 OA
BRANCH  20  21
HETATM   21  C14 UNL     1      87.639   1.923  60.685  1.00  0.00     0.129 C 
HETATM   22  C15 UNL     1      87.101   2.816  59.582  1.00  0.00     0.032 C 
HETATM   23  C16 UNL     1      85.722   3.148  60.114  1.00  0.00     0.002 C 
HETATM   24  C17 UNL     1      85.224   1.773  60.509  1.00  0.00     0.002 C 
HETATM   25  C18 UNL     1      86.449   0.982  60.914  1.00  0.00     0.032 C 
ENDBRANCH  20  21
ENDBRANCH   6  20
BRANCH   1  26
HETATM   26  O1  UNL     1      90.334   2.522  63.048  1.00  0.00    -0.353 OA
HETATM   27  C1  UNL     1      91.595   1.991  63.339  1.00  0.00     0.210 C 
ENDBRANCH   1  26
TORSDOF 5
ENDMDL
