MODEL 3
REMARK VINA RESULT: -9.313365341      1.146      1.799
REMARK  5 active torsions:
REMARK  status: ('A' for Active; 'I' for Inactive)
REMARK    1  A    between atoms: O1_2  and  C2_3 
REMARK    2  A    between atoms: C5_6  and  C6_7 
REMARK       I    between atoms: C6_7  and  N1_9 
REMARK    3  A    between atoms: N1_9  and  C7_11 
REMARK    4  A    between atoms: C13_21  and  O3_22 
REMARK    5  A    between atoms: O3_22  and  C14_23 
ROOT
HETATM    1  C2  UNL     1      90.290   2.020  63.761  1.00  0.00     0.101 A 
HETATM    2  C3  UNL     1      90.242   2.274  62.402  1.00  0.00     0.040 A 
HETATM    3  C4  UNL     1      89.043   2.298  61.721  1.00  0.00     0.020 A 
HETATM    4  C5  UNL     1      87.858   2.067  62.394  1.00  0.00     0.035 A 
HETATM    5  C12 UNL     1      87.936   1.821  63.732  1.00  0.00     0.056 A 
HETATM    6  C13 UNL     1      89.102   1.784  64.462  1.00  0.00     0.103 A 
ENDROOT
BRANCH   4   7
HETATM    7  C6  UNL     1      86.629   2.105  61.631  1.00  0.00     0.256 C 
HETATM    8  O2  UNL     1      86.112   1.044  61.183  1.00  0.00    -0.267 OA
HETATM    9  N1  UNL     1      85.914   3.297  61.323  1.00  0.00    -0.320 N 
ATOM     10  H1  UNL     1      86.278   4.190  61.656  1.00  0.00     0.169 HD
BRANCH   9  11
HETATM   11  C7  UNL     1      84.707   3.285  60.567  1.00  0.00     0.081 A 
HETATM   12  C8  UNL     1      84.820   3.442  59.199  1.00  0.00     0.077 A 
HETATM   13 CL1  UNL     1      86.385   3.645  58.456  1.00  0.00    -0.080 Cl
HETATM   14  C9  UNL     1      83.697   3.441  58.403  1.00  0.00     0.113 A 
HETATM   15  N2  UNL     1      82.476   3.284  58.975  1.00  0.00    -0.372 N 
HETATM   16  C10 UNL     1      82.332   3.128  60.304  1.00  0.00     0.113 A 
ATOM     17  H2  UNL     1      81.647   3.284  58.382  1.00  0.00     0.164 HD
HETATM   18  C11 UNL     1      83.465   3.131  61.098  1.00  0.00     0.077 A 
HETATM   19 CL2  UNL     1      83.324   2.931  62.841  1.00  0.00    -0.080 Cl
ENDBRANCH   9  11
ENDBRANCH   4   7
BRANCH   6  20
HETATM   20  O3  UNL     1      89.199   1.537  65.808  1.00  0.00    -0.343 OA
BRANCH  20  21
HETATM   21  C14 UNL     1      88.297   1.899  66.804  1.00  0.00     0.129 C 
HETATM   22  C15 UNL     1      88.846   1.701  68.204  1.00  0.00     0.032 C 
HETATM   23  C16 UNL     1      88.940   0.190  68.275  1.00  0.00     0.002 C 
HETATM   24  C17 UNL     1      87.574  -0.211  67.757  1.00  0.00     0.002 C 
HETATM   25  C18 UNL     1      87.163   0.867  66.778  1.00  0.00     0.032 C 
ENDBRANCH  20  21
ENDBRANCH   6  20
BRANCH   1  26
HETATM   26  O1  UNL     1      91.514   2.003  64.417  1.00  0.00    -0.353 OA
HETATM   27  C1  UNL     1      92.656   2.427  63.729  1.00  0.00     0.210 C 
ENDBRANCH   1  26
TORSDOF 5
ENDMDL
