MODEL 1
REMARK VINA RESULT: -9.392076311      0.000      0.000
REMARK  5 active torsions:
REMARK  status: ('A' for Active; 'I' for Inactive)
REMARK    1  A    between atoms: O1_2  and  C2_3 
REMARK    2  A    between atoms: C5_6  and  C6_7 
REMARK       I    between atoms: C6_7  and  N1_9 
REMARK    3  A    between atoms: N1_9  and  C7_11 
REMARK    4  A    between atoms: C13_21  and  O3_22 
REMARK    5  A    between atoms: O3_22  and  C14_23 
ROOT
HETATM    1  C2  UNL     1      90.085   2.005  63.628  1.00  0.00     0.101 A 
HETATM    2  C3  UNL     1      90.184   2.478  62.331  1.00  0.00     0.040 A 
HETATM    3  C4  UNL     1      89.059   2.716  61.569  1.00  0.00     0.020 A 
HETATM    4  C5  UNL     1      87.803   2.483  62.096  1.00  0.00     0.035 A 
HETATM    5  C12 UNL     1      87.736   2.019  63.375  1.00  0.00     0.056 A 
HETATM    6  C13 UNL     1      88.823   1.763  64.180  1.00  0.00     0.103 A 
ENDROOT
BRANCH   4   7
HETATM    7  C6  UNL     1      86.657   2.750  61.253  1.00  0.00     0.256 C 
HETATM    8  O2  UNL     1      86.743   3.543  60.275  1.00  0.00    -0.267 OA
HETATM    9  N1  UNL     1      85.372   2.166  61.441  1.00  0.00    -0.320 N 
ATOM     10  H1  UNL     1      85.234   1.515  62.215  1.00  0.00     0.169 HD
BRANCH   9  11
HETATM   11  C7  UNL     1      84.272   2.459  60.585  1.00  0.00     0.081 A 
HETATM   12  C8  UNL     1      83.410   3.462  60.988  1.00  0.00     0.077 A 
HETATM   13 CL1  UNL     1      83.682   4.314  62.486  1.00  0.00    -0.080 Cl
HETATM   14  C9  UNL     1      82.325   3.801  60.213  1.00  0.00     0.113 A 
HETATM   15  N2  UNL     1      82.108   3.141  59.047  1.00  0.00    -0.372 N 
HETATM   16  C10 UNL     1      82.928   2.160  58.626  1.00  0.00     0.113 A 
ATOM     17  H2  UNL     1      81.303   3.394  58.476  1.00  0.00     0.164 HD
HETATM   18  C11 UNL     1      84.017   1.824  59.411  1.00  0.00     0.077 A 
HETATM   19 CL2  UNL     1      85.116   0.548  58.899  1.00  0.00    -0.080 Cl
ENDBRANCH   9  11
ENDBRANCH   4   7
BRANCH   6  20
HETATM   20  O3  UNL     1      88.774   1.295  65.469  1.00  0.00    -0.343 OA
BRANCH  20  21
HETATM   21  C14 UNL     1      87.888   1.668  66.475  1.00  0.00     0.129 C 
HETATM   22  C15 UNL     1      88.523   1.682  67.852  1.00  0.00     0.032 C 
HETATM   23  C16 UNL     1      88.785   0.206  68.073  1.00  0.00     0.002 C 
HETATM   24  C17 UNL     1      87.448  -0.389  67.683  1.00  0.00     0.002 C 
HETATM   25  C18 UNL     1      86.873   0.528  66.624  1.00  0.00     0.032 C 
ENDBRANCH  20  21
ENDBRANCH   6  20
BRANCH   1  26
HETATM   26  O1  UNL     1      91.237   1.776  64.368  1.00  0.00    -0.353 OA
HETATM   27  C1  UNL     1      92.467   2.202  63.855  1.00  0.00     0.210 C 
ENDBRANCH   1  26
TORSDOF 5
ENDMDL
