MODEL 4
REMARK VINA RESULT: -9.310463294      1.017      2.219
REMARK  5 active torsions:
REMARK  status: ('A' for Active; 'I' for Inactive)
REMARK    1  A    between atoms: O1_2  and  C2_3 
REMARK    2  A    between atoms: C5_6  and  C6_7 
REMARK       I    between atoms: C6_7  and  N1_9 
REMARK    3  A    between atoms: N1_9  and  C7_11 
REMARK    4  A    between atoms: C13_21  and  O3_22 
REMARK    5  A    between atoms: O3_22  and  C14_23 
ROOT
HETATM    1  C2  UNL     1      90.168   1.984  63.875  1.00  0.00     0.101 A 
HETATM    2  C3  UNL     1      89.972   2.354  62.556  1.00  0.00     0.040 A 
HETATM    3  C4  UNL     1      88.715   2.345  61.990  1.00  0.00     0.020 A 
HETATM    4  C5  UNL     1      87.619   1.962  62.740  1.00  0.00     0.035 A 
HETATM    5  C12 UNL     1      87.842   1.604  64.036  1.00  0.00     0.056 A 
HETATM    6  C13 UNL     1      89.072   1.593  64.652  1.00  0.00     0.103 A 
ENDROOT
BRANCH   4   7
HETATM    7  C6  UNL     1      86.323   1.970  62.097  1.00  0.00     0.256 C 
HETATM    8  O2  UNL     1      85.443   1.117  62.400  1.00  0.00    -0.267 OA
HETATM    9  N1  UNL     1      85.932   2.906  61.097  1.00  0.00    -0.320 N 
ATOM     10  H1  UNL     1      86.597   3.623  60.806  1.00  0.00     0.169 HD
BRANCH   9  11
HETATM   11  C7  UNL     1      84.644   2.876  60.490  1.00  0.00     0.081 A 
HETATM   12  C8  UNL     1      84.506   2.113  59.346  1.00  0.00     0.077 A 
HETATM   13 CL1  UNL     1      85.866   1.237  58.694  1.00  0.00    -0.080 Cl
HETATM   14  C9  UNL     1      83.290   2.035  58.704  1.00  0.00     0.113 A 
HETATM   15  N2  UNL     1      82.228   2.715  59.205  1.00  0.00    -0.372 N 
HETATM   16  C10 UNL     1      82.330   3.466  60.318  1.00  0.00     0.113 A 
ATOM     17  H2  UNL     1      81.330   2.656  58.727  1.00  0.00     0.164 HD
HETATM   18  C11 UNL     1      83.555   3.540  60.958  1.00  0.00     0.077 A 
HETATM   19 CL2  UNL     1      83.733   4.510  62.415  1.00  0.00    -0.080 Cl
ENDBRANCH   9  11
ENDBRANCH   4   7
BRANCH   6  20
HETATM   20  O3  UNL     1      89.315   1.236  65.954  1.00  0.00    -0.343 OA
BRANCH  20  21
HETATM   21  C14 UNL     1      88.480   0.518  66.807  1.00  0.00     0.129 C 
HETATM   22  C15 UNL     1      87.331   1.347  67.350  1.00  0.00     0.032 C 
HETATM   23  C16 UNL     1      88.067   2.329  68.238  1.00  0.00     0.002 C 
HETATM   24  C17 UNL     1      88.975   1.397  69.013  1.00  0.00     0.002 C 
HETATM   25  C18 UNL     1      89.279   0.239  68.086  1.00  0.00     0.032 C 
ENDBRANCH  20  21
ENDBRANCH   6  20
BRANCH   1  26
HETATM   26  O1  UNL     1      91.447   2.005  64.414  1.00  0.00    -0.353 OA
HETATM   27  C1  UNL     1      92.519   2.387  63.600  1.00  0.00     0.210 C 
ENDBRANCH   1  26
TORSDOF 5
ENDMDL
