MODEL 16
REMARK VINA RESULT: -7.295665750      3.592      6.492
REMARK  5 active torsions:
REMARK  status: ('A' for Active; 'I' for Inactive)
REMARK    1  A    between atoms: O1_2  and  C2_3 
REMARK    2  A    between atoms: C5_6  and  C6_7 
REMARK       I    between atoms: C6_7  and  N1_9 
REMARK    3  A    between atoms: N1_9  and  C7_11 
REMARK    4  A    between atoms: C13_21  and  O3_22 
REMARK    5  A    between atoms: O3_22  and  C14_23 
ROOT
HETATM    1  C2  UNL     1      88.768   2.036  63.267  1.00  0.00     0.101 A 
HETATM    2  C3  UNL     1      88.961   1.745  64.606  1.00  0.00     0.040 A 
HETATM    3  C4  UNL     1      87.930   1.279  65.393  1.00  0.00     0.020 A 
HETATM    4  C5  UNL     1      86.672   1.095  64.850  1.00  0.00     0.035 A 
HETATM    5  C12 UNL     1      86.511   1.390  63.529  1.00  0.00     0.056 A 
HETATM    6  C13 UNL     1      87.503   1.857  62.698  1.00  0.00     0.103 A 
ENDROOT
BRANCH   4   7
HETATM    7  C6  UNL     1      85.625   0.605  65.721  1.00  0.00     0.256 C 
HETATM    8  O2  UNL     1      85.754   0.646  66.976  1.00  0.00    -0.267 OA
HETATM    9  N1  UNL     1      84.397   0.049  65.262  1.00  0.00    -0.320 N 
ATOM     10  H1  UNL     1      84.229  -0.014  64.257  1.00  0.00     0.169 HD
BRANCH   9  11
HETATM   11  C7  UNL     1      83.395  -0.422  66.158  1.00  0.00     0.081 A 
HETATM   12  C8  UNL     1      83.464  -1.749  66.538  1.00  0.00     0.077 A 
HETATM   13 CL1  UNL     1      84.733  -2.780  65.931  1.00  0.00    -0.080 Cl
HETATM   14  C9  UNL     1      82.530  -2.275  67.402  1.00  0.00     0.113 A 
HETATM   15  N2  UNL     1      81.539  -1.478  67.877  1.00  0.00    -0.372 N 
HETATM   16  C10 UNL     1      81.445  -0.182  67.526  1.00  0.00     0.113 A 
ATOM     17  H2  UNL     1      80.849  -1.872  68.515  1.00  0.00     0.164 HD
HETATM   18  C11 UNL     1      82.387   0.340  66.657  1.00  0.00     0.077 A 
HETATM   19 CL2  UNL     1      82.301   2.030  66.173  1.00  0.00    -0.080 Cl
ENDBRANCH   9  11
ENDBRANCH   4   7
BRANCH   6  20
HETATM   20  O3  UNL     1      87.358   2.159  61.367  1.00  0.00    -0.343 OA
BRANCH  20  21
HETATM   21  C14 UNL     1      86.870   3.338  60.813  1.00  0.00     0.129 C 
HETATM   22  C15 UNL     1      85.403   3.576  61.120  1.00  0.00     0.032 C 
HETATM   23  C16 UNL     1      84.749   2.460  60.332  1.00  0.00     0.002 C 
HETATM   24  C17 UNL     1      85.444   2.603  58.993  1.00  0.00     0.002 C 
HETATM   25  C18 UNL     1      86.829   3.136  59.293  1.00  0.00     0.032 C 
ENDBRANCH  20  21
ENDBRANCH   6  20
BRANCH   1  26
HETATM   26  O1  UNL     1      89.828   2.503  62.502  1.00  0.00    -0.353 OA
HETATM   27  C1  UNL     1      91.128   2.398  63.011  1.00  0.00     0.210 C 
ENDBRANCH   1  26
TORSDOF 5
ENDMDL
