MODEL 2
REMARK VINA RESULT: -9.326119204      0.190      1.798
REMARK  5 active torsions:
REMARK  status: ('A' for Active; 'I' for Inactive)
REMARK    1  A    between atoms: O1_2  and  C2_3 
REMARK    2  A    between atoms: C5_6  and  C6_7 
REMARK       I    between atoms: C6_7  and  N1_9 
REMARK    3  A    between atoms: N1_9  and  C7_11 
REMARK    4  A    between atoms: C13_21  and  O3_22 
REMARK    5  A    between atoms: O3_22  and  C14_23 
ROOT
HETATM    1  C2  UNL     1      90.034   1.999  63.641  1.00  0.00     0.101 A 
HETATM    2  C3  UNL     1      90.092   2.471  62.341  1.00  0.00     0.040 A 
HETATM    3  C4  UNL     1      88.945   2.734  61.624  1.00  0.00     0.020 A 
HETATM    4  C5  UNL     1      87.705   2.529  62.199  1.00  0.00     0.035 A 
HETATM    5  C12 UNL     1      87.678   2.064  63.479  1.00  0.00     0.056 A 
HETATM    6  C13 UNL     1      88.789   1.784  64.242  1.00  0.00     0.103 A 
ENDROOT
BRANCH   4   7
HETATM    7  C6  UNL     1      86.533   2.822  61.401  1.00  0.00     0.256 C 
HETATM    8  O2  UNL     1      86.520   3.802  60.606  1.00  0.00    -0.267 OA
HETATM    9  N1  UNL     1      85.330   2.061  61.437  1.00  0.00    -0.320 N 
ATOM     10  H1  UNL     1      85.275   1.255  62.060  1.00  0.00     0.169 HD
BRANCH   9  11
HETATM   11  C7  UNL     1      84.200   2.388  60.633  1.00  0.00     0.081 A 
HETATM   12  C8  UNL     1      84.098   1.759  59.407  1.00  0.00     0.077 A 
HETATM   13 CL1  UNL     1      85.313   0.619  58.891  1.00  0.00    -0.080 Cl
HETATM   14  C9  UNL     1      83.034   2.024  58.575  1.00  0.00     0.113 A 
HETATM   15  N2  UNL     1      82.086   2.911  58.970  1.00  0.00    -0.372 N 
HETATM   16  C10 UNL     1      82.156   3.540  60.158  1.00  0.00     0.113 A 
ATOM     17  H2  UNL     1      81.300   3.106  58.351  1.00  0.00     0.164 HD
HETATM   18  C11 UNL     1      83.229   3.268  60.989  1.00  0.00     0.077 A 
HETATM   19 CL2  UNL     1      83.361   4.068  62.551  1.00  0.00    -0.080 Cl
ENDBRANCH   9  11
ENDBRANCH   4   7
BRANCH   6  20
HETATM   20  O3  UNL     1      88.780   1.315  65.531  1.00  0.00    -0.343 OA
BRANCH  20  21
HETATM   21  C14 UNL     1      87.907   1.668  66.556  1.00  0.00     0.129 C 
HETATM   22  C15 UNL     1      88.567   1.676  67.922  1.00  0.00     0.032 C 
HETATM   23  C16 UNL     1      88.851   0.202  68.124  1.00  0.00     0.002 C 
HETATM   24  C17 UNL     1      87.514  -0.406  67.752  1.00  0.00     0.002 C 
HETATM   25  C18 UNL     1      86.910   0.513  66.712  1.00  0.00     0.032 C 
ENDBRANCH  20  21
ENDBRANCH   6  20
BRANCH   1  26
HETATM   26  O1  UNL     1      91.208   1.743  64.335  1.00  0.00    -0.353 OA
HETATM   27  C1  UNL     1      92.426   2.154  63.781  1.00  0.00     0.210 C 
ENDBRANCH   1  26
TORSDOF 5
ENDMDL
