MODEL 3
REMARK VINA RESULT: -9.119243382      1.068      2.042
REMARK  7 active torsions:
REMARK  status: ('A' for Active; 'I' for Inactive)
REMARK       I    between atoms: C1_2  and  N1_3 
REMARK    1  A    between atoms: C1_2  and  C7_14 
REMARK    2  A    between atoms: N1_3  and  C2_5 
REMARK    3  A    between atoms: C10_17  and  O2_18 
REMARK    4  A    between atoms: O2_18  and  C11_19 
REMARK    5  A    between atoms: C12_22  and  O3_23 
REMARK    6  A    between atoms: O3_23  and  C13_24 
REMARK    7  A    between atoms: C13_24  and  C14_25 
ROOT
HETATM    1  C7  UNL     1       2.138   1.340  42.596  1.00  0.00     0.035 A 
HETATM    2  C8  UNL     1       0.893   1.492  43.149  1.00  0.00     0.020 A 
HETATM    3  C9  UNL     1      -0.261   1.241  42.419  1.00  0.00     0.041 A 
HETATM    4  C10 UNL     1      -0.155   0.829  41.109  1.00  0.00     0.108 A 
HETATM    5  C12 UNL     1       1.104   0.671  40.536  1.00  0.00     0.103 A 
HETATM    6  C17 UNL     1       2.234   0.922  41.267  1.00  0.00     0.056 A 
ENDROOT
BRANCH   1   7
HETATM    7  C1  UNL     1       3.339   1.597  43.356  1.00  0.00     0.256 C 
HETATM    8  O1  UNL     1       3.428   2.693  44.011  1.00  0.00    -0.267 OA
HETATM    9  N1  UNL     1       4.420   0.688  43.406  1.00  0.00    -0.320 N 
ATOM     10  H1  UNL     1       4.391  -0.197  42.899  1.00  0.00     0.169 HD
BRANCH   9  11
HETATM   11  C2  UNL     1       5.557   1.055  44.193  1.00  0.00     0.081 A 
HETATM   12  C3  UNL     1       6.586   1.776  43.630  1.00  0.00     0.077 A 
HETATM   13 CL1  UNL     1       6.529   2.261  41.957  1.00  0.00    -0.080 Cl
HETATM   14  C4  UNL     1       7.701   2.135  44.397  1.00  0.00     0.113 A 
HETATM   15  N2  UNL     1       7.798   1.789  45.692  1.00  0.00    -0.372 N 
HETATM   16  C5  UNL     1       6.804   1.085  46.254  1.00  0.00     0.113 A 
ATOM     17  H2  UNL     1       8.616   2.057  46.239  1.00  0.00     0.164 HD
HETATM   18  C6  UNL     1       5.674   0.709  45.521  1.00  0.00     0.077 A 
HETATM   19 CL2  UNL     1       4.386  -0.203  46.259  1.00  0.00    -0.080 Cl
ENDBRANCH   9  11
ENDBRANCH   1   7
BRANCH   5  20
HETATM   20  O3  UNL     1       1.215   0.261  39.233  1.00  0.00    -0.348 OA
BRANCH  20  21
HETATM   21  C13 UNL     1       2.166  -0.630  38.738  1.00  0.00     0.180 C 
BRANCH  21  22
HETATM   22  C14 UNL     1       1.671  -1.200  37.404  1.00  0.00     0.010 A 
HETATM   23  C15 UNL     1       2.451  -0.875  36.162  1.00  0.00     0.007 A 
HETATM   24  C16 UNL     1       2.553  -2.230  36.796  1.00  0.00     0.007 A 
ENDBRANCH  21  22
ENDBRANCH  20  21
ENDBRANCH   5  20
BRANCH   4  25
HETATM   25  O2  UNL     1      -1.242   0.562  40.328  1.00  0.00    -0.287 OA
BRANCH  25  26
HETATM   26  C11 UNL     1      -2.591   0.704  40.629  1.00  0.00     0.505 C 
HETATM   27  F1  UNL     1      -2.766   2.011  41.103  1.00  0.00    -0.184 F 
HETATM   28  F2  UNL     1      -2.996  -0.144  41.660  1.00  0.00    -0.184 F 
ENDBRANCH  25  26
ENDBRANCH   4  25
TORSDOF 7
ENDMDL
