MODEL 19
REMARK VINA RESULT: -7.879618642      3.453      5.517
REMARK  7 active torsions:
REMARK  status: ('A' for Active; 'I' for Inactive)
REMARK       I    between atoms: C1_2  and  N1_3 
REMARK    1  A    between atoms: C1_2  and  C7_14 
REMARK    2  A    between atoms: N1_3  and  C2_5 
REMARK    3  A    between atoms: C10_17  and  O2_18 
REMARK    4  A    between atoms: O2_18  and  C11_19 
REMARK    5  A    between atoms: C12_22  and  O3_23 
REMARK    6  A    between atoms: O3_23  and  C13_24 
REMARK    7  A    between atoms: C13_24  and  C14_25 
ROOT
HETATM    1  C7  UNL     1       2.829   0.082  40.240  1.00  0.00     0.035 A 
HETATM    2  C8  UNL     1       1.759  -0.045  39.394  1.00  0.00     0.020 A 
HETATM    3  C9  UNL     1       0.482   0.347  39.774  1.00  0.00     0.041 A 
HETATM    4  C10 UNL     1       0.285   0.879  41.030  1.00  0.00     0.108 A 
HETATM    5  C12 UNL     1       1.365   1.013  41.898  1.00  0.00     0.103 A 
HETATM    6  C17 UNL     1       2.618   0.621  41.511  1.00  0.00     0.056 A 
ENDROOT
BRANCH   1   7
HETATM    7  C1  UNL     1       4.158  -0.322  39.843  1.00  0.00     0.256 C 
HETATM    8  O1  UNL     1       5.163   0.271  40.368  1.00  0.00    -0.267 OA
HETATM    9  N1  UNL     1       4.394  -1.347  38.898  1.00  0.00    -0.320 N 
ATOM     10  H1  UNL     1       3.622  -1.846  38.456  1.00  0.00     0.169 HD
BRANCH   9  11
HETATM   11  C2  UNL     1       5.754  -1.658  38.586  1.00  0.00     0.081 A 
HETATM   12  C3  UNL     1       6.483  -2.484  39.412  1.00  0.00     0.077 A 
HETATM   13 CL1  UNL     1       5.771  -3.171  40.847  1.00  0.00    -0.080 Cl
HETATM   14  C4  UNL     1       7.816  -2.789  39.111  1.00  0.00     0.113 A 
HETATM   15  N2  UNL     1       8.416  -2.289  38.018  1.00  0.00    -0.372 N 
HETATM   16  C5  UNL     1       7.720  -1.481  37.204  1.00  0.00     0.113 A 
ATOM     17  H2  UNL     1       9.388  -2.519  37.810  1.00  0.00     0.164 HD
HETATM   18  C6  UNL     1       6.386  -1.155  37.471  1.00  0.00     0.077 A 
HETATM   19 CL2  UNL     1       5.487  -0.107  36.408  1.00  0.00    -0.080 Cl
ENDBRANCH   9  11
ENDBRANCH   1   7
BRANCH   5  20
HETATM   20  O3  UNL     1       1.174   1.541  43.149  1.00  0.00    -0.348 OA
BRANCH  20  21
HETATM   21  C13 UNL     1       1.994   1.326  44.256  1.00  0.00     0.180 C 
BRANCH  21  22
HETATM   22  C14 UNL     1       2.857   2.572  44.488  1.00  0.00     0.010 A 
HETATM   23  C15 UNL     1       3.768   2.590  45.682  1.00  0.00     0.007 A 
HETATM   24  C16 UNL     1       4.317   2.366  44.305  1.00  0.00     0.007 A 
ENDBRANCH  21  22
ENDBRANCH  20  21
ENDBRANCH   5  20
BRANCH   4  25
HETATM   25  O2  UNL     1      -0.938   1.288  41.476  1.00  0.00    -0.287 OA
BRANCH  25  26
HETATM   26  C11 UNL     1      -2.200   0.868  41.074  1.00  0.00     0.505 C 
HETATM   27  F1  UNL     1      -3.111   1.838  41.514  1.00  0.00    -0.184 F 
HETATM   28  F2  UNL     1      -2.579  -0.329  41.681  1.00  0.00    -0.184 F 
ENDBRANCH  25  26
ENDBRANCH   4  25
TORSDOF 7
ENDMDL
