MODEL 1
REMARK VINA RESULT: -9.443242332      0.000      0.000
REMARK  7 active torsions:
REMARK  status: ('A' for Active; 'I' for Inactive)
REMARK       I    between atoms: C1_2  and  N1_3 
REMARK    1  A    between atoms: C1_2  and  C7_14 
REMARK    2  A    between atoms: N1_3  and  C2_5 
REMARK    3  A    between atoms: C10_17  and  O2_18 
REMARK    4  A    between atoms: O2_18  and  C11_19 
REMARK    5  A    between atoms: C12_22  and  O3_23 
REMARK    6  A    between atoms: O3_23  and  C13_24 
REMARK    7  A    between atoms: C13_24  and  C14_25 
ROOT
HETATM    1  C7  UNL     1       2.117   1.079  42.047  1.00  0.00     0.035 A 
HETATM    2  C8  UNL     1       1.020   1.543  42.726  1.00  0.00     0.020 A 
HETATM    3  C9  UNL     1      -0.255   1.468  42.183  1.00  0.00     0.041 A 
HETATM    4  C10 UNL     1      -0.426   0.913  40.934  1.00  0.00     0.108 A 
HETATM    5  C12 UNL     1       0.681   0.438  40.234  1.00  0.00     0.103 A 
HETATM    6  C17 UNL     1       1.933   0.520  40.781  1.00  0.00     0.056 A 
ENDROOT
BRANCH   1   7
HETATM    7  C1  UNL     1       3.443   1.154  42.613  1.00  0.00     0.256 C 
HETATM    8  O1  UNL     1       4.319   0.300  42.240  1.00  0.00    -0.267 OA
HETATM    9  N1  UNL     1       3.813   2.133  43.564  1.00  0.00    -0.320 N 
ATOM     10  H1  UNL     1       3.147   2.833  43.889  1.00  0.00     0.169 HD
BRANCH   9  11
HETATM   11  C2  UNL     1       5.157   2.105  44.052  1.00  0.00     0.081 A 
HETATM   12  C3  UNL     1       5.471   1.377  45.178  1.00  0.00     0.077 A 
HETATM   13 CL1  UNL     1       4.247   0.472  46.028  1.00  0.00    -0.080 Cl
HETATM   14  C4  UNL     1       6.785   1.349  45.661  1.00  0.00     0.113 A 
HETATM   15  N2  UNL     1       7.768   2.027  45.045  1.00  0.00    -0.372 N 
HETATM   16  C5  UNL     1       7.479   2.742  43.948  1.00  0.00     0.113 A 
ATOM     17  H2  UNL     1       8.721   1.997  45.407  1.00  0.00     0.164 HD
HETATM   18  C6  UNL     1       6.178   2.793  43.435  1.00  0.00     0.077 A 
HETATM   19 CL2  UNL     1       5.811   3.723  42.008  1.00  0.00    -0.080 Cl
ENDBRANCH   9  11
ENDBRANCH   1   7
BRANCH   5  20
HETATM   20  O3  UNL     1       0.517  -0.114  38.991  1.00  0.00    -0.348 OA
BRANCH  20  21
HETATM   21  C13 UNL     1       1.297   0.163  37.868  1.00  0.00     0.180 C 
BRANCH  21  22
HETATM   22  C14 UNL     1       1.944  -1.137  37.376  1.00  0.00     0.010 A 
HETATM   23  C15 UNL     1       3.164  -1.035  36.506  1.00  0.00     0.007 A 
HETATM   24  C16 UNL     1       3.284  -1.426  37.949  1.00  0.00     0.007 A 
ENDBRANCH  21  22
ENDBRANCH  20  21
ENDBRANCH   5  20
BRANCH   4  25
HETATM   25  O2  UNL     1      -1.647   0.803  40.334  1.00  0.00    -0.287 OA
BRANCH  25  26
HETATM   26  C11 UNL     1      -2.878   0.509  40.906  1.00  0.00     0.505 C 
HETATM   27  F1  UNL     1      -3.288   1.656  41.600  1.00  0.00    -0.184 F 
HETATM   28  F2  UNL     1      -2.793  -0.512  41.853  1.00  0.00    -0.184 F 
ENDBRANCH  25  26
ENDBRANCH   4  25
TORSDOF 7
ENDMDL
