MODEL 18
REMARK VINA RESULT: -7.883394781      3.437      5.750
REMARK  7 active torsions:
REMARK  status: ('A' for Active; 'I' for Inactive)
REMARK       I    between atoms: C1_2  and  N1_3 
REMARK    1  A    between atoms: C1_2  and  C7_14 
REMARK    2  A    between atoms: N1_3  and  C2_5 
REMARK    3  A    between atoms: C10_17  and  O2_18 
REMARK    4  A    between atoms: O2_18  and  C11_19 
REMARK    5  A    between atoms: C12_22  and  O3_23 
REMARK    6  A    between atoms: O3_23  and  C13_24 
REMARK    7  A    between atoms: C13_24  and  C14_25 
ROOT
HETATM    1  C7  UNL     1       2.805   0.141  40.342  1.00  0.00     0.035 A 
HETATM    2  C8  UNL     1       1.734   0.057  39.490  1.00  0.00     0.020 A 
HETATM    3  C9  UNL     1       0.461   0.446  39.884  1.00  0.00     0.041 A 
HETATM    4  C10 UNL     1       0.267   0.931  41.159  1.00  0.00     0.108 A 
HETATM    5  C12 UNL     1       1.347   1.022  42.033  1.00  0.00     0.103 A 
HETATM    6  C17 UNL     1       2.597   0.633  41.632  1.00  0.00     0.056 A 
ENDROOT
BRANCH   1   7
HETATM    7  C1  UNL     1       4.130  -0.261  39.931  1.00  0.00     0.256 C 
HETATM    8  O1  UNL     1       5.138   0.349  40.429  1.00  0.00    -0.267 OA
HETATM    9  N1  UNL     1       4.358  -1.301  39.002  1.00  0.00    -0.320 N 
ATOM     10  H1  UNL     1       3.583  -1.814  38.581  1.00  0.00     0.169 HD
BRANCH   9  11
HETATM   11  C2  UNL     1       5.716  -1.608  38.673  1.00  0.00     0.081 A 
HETATM   12  C3  UNL     1       6.279  -1.111  37.519  1.00  0.00     0.077 A 
HETATM   13 CL1  UNL     1       5.360  -0.099  36.438  1.00  0.00    -0.080 Cl
HETATM   14  C4  UNL     1       7.607  -1.411  37.193  1.00  0.00     0.113 A 
HETATM   15  N2  UNL     1       8.363  -2.186  37.989  1.00  0.00    -0.372 N 
HETATM   16  C5  UNL     1       7.829  -2.678  39.117  1.00  0.00     0.113 A 
ATOM     17  H2  UNL     1       9.329  -2.396  37.740  1.00  0.00     0.164 HD
HETATM   18  C6  UNL     1       6.506  -2.400  39.477  1.00  0.00     0.077 A 
HETATM   19 CL2  UNL     1       5.820  -3.041  40.944  1.00  0.00    -0.080 Cl
ENDBRANCH   9  11
ENDBRANCH   1   7
BRANCH   5  20
HETATM   20  O3  UNL     1       1.160   1.503  43.303  1.00  0.00    -0.348 OA
BRANCH  20  21
HETATM   21  C13 UNL     1       1.750   0.996  44.460  1.00  0.00     0.180 C 
BRANCH  21  22
HETATM   22  C14 UNL     1       2.547   2.113  45.144  1.00  0.00     0.010 A 
HETATM   23  C15 UNL     1       3.924   1.792  45.652  1.00  0.00     0.007 A 
HETATM   24  C16 UNL     1       3.739   2.584  44.392  1.00  0.00     0.007 A 
ENDBRANCH  21  22
ENDBRANCH  20  21
ENDBRANCH   5  20
BRANCH   4  25
HETATM   25  O2  UNL     1      -0.953   1.335  41.619  1.00  0.00    -0.287 OA
BRANCH  25  26
HETATM   26  C11 UNL     1      -2.218   0.918  41.224  1.00  0.00     0.505 C 
HETATM   27  F1  UNL     1      -3.126   1.879  41.687  1.00  0.00    -0.184 F 
HETATM   28  F2  UNL     1      -2.588  -0.289  41.817  1.00  0.00    -0.184 F 
ENDBRANCH  25  26
ENDBRANCH   4  25
TORSDOF 7
ENDMDL
