MODEL 7
REMARK VINA RESULT: -8.802619764      1.247      2.104
REMARK  7 active torsions:
REMARK  status: ('A' for Active; 'I' for Inactive)
REMARK       I    between atoms: C1_2  and  N1_3 
REMARK    1  A    between atoms: C1_2  and  C7_14 
REMARK    2  A    between atoms: N1_3  and  C2_5 
REMARK    3  A    between atoms: C10_17  and  O2_18 
REMARK    4  A    between atoms: O2_18  and  C11_19 
REMARK    5  A    between atoms: C12_22  and  O3_23 
REMARK    6  A    between atoms: O3_23  and  C13_24 
REMARK    7  A    between atoms: C13_24  and  C14_25 
ROOT
HETATM    1  C7  UNL     1       2.889   1.315  42.513  1.00  0.00     0.035 A 
HETATM    2  C8  UNL     1       1.776   1.617  43.254  1.00  0.00     0.020 A 
HETATM    3  C9  UNL     1       0.496   1.444  42.746  1.00  0.00     0.041 A 
HETATM    4  C10 UNL     1       0.337   0.956  41.467  1.00  0.00     0.108 A 
HETATM    5  C12 UNL     1       1.460   0.645  40.705  1.00  0.00     0.103 A 
HETATM    6  C17 UNL     1       2.717   0.821  41.218  1.00  0.00     0.056 A 
ENDROOT
BRANCH   1   7
HETATM    7  C1  UNL     1       4.221   1.491  43.043  1.00  0.00     0.256 C 
HETATM    8  O1  UNL     1       4.902   0.453  43.351  1.00  0.00    -0.267 OA
HETATM    9  N1  UNL     1       4.802   2.765  43.237  1.00  0.00    -0.320 N 
ATOM     10  H1  UNL     1       4.295   3.619  43.006  1.00  0.00     0.169 HD
BRANCH   9  11
HETATM   11  C2  UNL     1       6.128   2.812  43.770  1.00  0.00     0.081 A 
HETATM   12  C3  UNL     1       7.215   2.828  42.924  1.00  0.00     0.077 A 
HETATM   13 CL1  UNL     1       7.004   2.796  41.195  1.00  0.00    -0.080 Cl
HETATM   14  C4  UNL     1       8.515   2.871  43.443  1.00  0.00     0.113 A 
HETATM   15  N2  UNL     1       8.737   2.898  44.767  1.00  0.00    -0.372 N 
HETATM   16  C5  UNL     1       7.690   2.882  45.605  1.00  0.00     0.113 A 
ATOM     17  H2  UNL     1       9.690   2.930  45.131  1.00  0.00     0.164 HD
HETATM   18  C6  UNL     1       6.376   2.840  45.124  1.00  0.00     0.077 A 
HETATM   19 CL2  UNL     1       5.020   2.822  46.218  1.00  0.00    -0.080 Cl
ENDBRANCH   9  11
ENDBRANCH   1   7
BRANCH   5  20
HETATM   20  O3  UNL     1       1.308   0.159  39.432  1.00  0.00    -0.348 OA
BRANCH  20  21
HETATM   21  C13 UNL     1       2.255  -0.581  38.726  1.00  0.00     0.180 C 
BRANCH  21  22
HETATM   22  C14 UNL     1       1.581  -1.221  37.506  1.00  0.00     0.010 A 
HETATM   23  C15 UNL     1       2.069  -0.828  36.140  1.00  0.00     0.007 A 
HETATM   24  C16 UNL     1       2.440  -2.155  36.732  1.00  0.00     0.007 A 
ENDBRANCH  21  22
ENDBRANCH  20  21
ENDBRANCH   5  20
BRANCH   4  25
HETATM   25  O2  UNL     1      -0.887   0.757  40.898  1.00  0.00    -0.287 OA
BRANCH  25  26
HETATM   26  C11 UNL     1      -2.144   1.075  41.397  1.00  0.00     0.505 C 
HETATM   27  F1  UNL     1      -3.081   0.605  40.466  1.00  0.00    -0.184 F 
HETATM   28  F2  UNL     1      -2.344   2.451  41.494  1.00  0.00    -0.184 F 
ENDBRANCH  25  26
ENDBRANCH   4  25
TORSDOF 7
ENDMDL
