MODEL 6
REMARK VINA RESULT: -8.818535443      1.243      1.400
REMARK  7 active torsions:
REMARK  status: ('A' for Active; 'I' for Inactive)
REMARK       I    between atoms: C1_2  and  N1_3 
REMARK    1  A    between atoms: C1_2  and  C7_14 
REMARK    2  A    between atoms: N1_3  and  C2_5 
REMARK    3  A    between atoms: C10_17  and  O2_18 
REMARK    4  A    between atoms: O2_18  and  C11_19 
REMARK    5  A    between atoms: C12_22  and  O3_23 
REMARK    6  A    between atoms: O3_23  and  C13_24 
REMARK    7  A    between atoms: C13_24  and  C14_25 
ROOT
HETATM    1  C7  UNL     1       2.894   1.307  42.468  1.00  0.00     0.035 A 
HETATM    2  C8  UNL     1       1.784   1.612  43.213  1.00  0.00     0.020 A 
HETATM    3  C9  UNL     1       0.502   1.439  42.710  1.00  0.00     0.041 A 
HETATM    4  C10 UNL     1       0.338   0.947  41.433  1.00  0.00     0.108 A 
HETATM    5  C12 UNL     1       1.457   0.634  40.667  1.00  0.00     0.103 A 
HETATM    6  C17 UNL     1       2.716   0.811  41.175  1.00  0.00     0.056 A 
ENDROOT
BRANCH   1   7
HETATM    7  C1  UNL     1       4.228   1.484  42.992  1.00  0.00     0.256 C 
HETATM    8  O1  UNL     1       4.907   0.445  43.305  1.00  0.00    -0.267 OA
HETATM    9  N1  UNL     1       4.813   2.757  43.175  1.00  0.00    -0.320 N 
ATOM     10  H1  UNL     1       4.307   3.611  42.939  1.00  0.00     0.169 HD
BRANCH   9  11
HETATM   11  C2  UNL     1       6.142   2.804  43.703  1.00  0.00     0.081 A 
HETATM   12  C3  UNL     1       6.346   2.832  45.064  1.00  0.00     0.077 A 
HETATM   13 CL1  UNL     1       5.000   2.807  46.172  1.00  0.00    -0.080 Cl
HETATM   14  C4  UNL     1       7.645   2.881  45.585  1.00  0.00     0.113 A 
HETATM   15  N2  UNL     1       8.719   2.901  44.778  1.00  0.00    -0.372 N 
HETATM   16  C5  UNL     1       8.537   2.876  43.449  1.00  0.00     0.113 A 
ATOM     17  H2  UNL     1       9.660   2.936  45.171  1.00  0.00     0.164 HD
HETATM   18  C6  UNL     1       7.255   2.826  42.892  1.00  0.00     0.077 A 
HETATM   19 CL2  UNL     1       7.026   2.790  41.165  1.00  0.00    -0.080 Cl
ENDBRANCH   9  11
ENDBRANCH   1   7
BRANCH   5  20
HETATM   20  O3  UNL     1       1.300   0.145  39.396  1.00  0.00    -0.348 OA
BRANCH  20  21
HETATM   21  C13 UNL     1       2.245  -0.595  38.686  1.00  0.00     0.180 C 
BRANCH  21  22
HETATM   22  C14 UNL     1       1.570  -1.222  37.460  1.00  0.00     0.010 A 
HETATM   23  C15 UNL     1       2.076  -0.837  36.099  1.00  0.00     0.007 A 
HETATM   24  C16 UNL     1       2.419  -2.170  36.694  1.00  0.00     0.007 A 
ENDBRANCH  21  22
ENDBRANCH  20  21
ENDBRANCH   5  20
BRANCH   4  25
HETATM   25  O2  UNL     1      -0.889   0.748  40.870  1.00  0.00    -0.287 OA
BRANCH  25  26
HETATM   26  C11 UNL     1      -2.145   1.054  41.379  1.00  0.00     0.505 C 
HETATM   27  F1  UNL     1      -3.084   0.611  40.438  1.00  0.00    -0.184 F 
HETATM   28  F2  UNL     1      -2.343   2.428  41.514  1.00  0.00    -0.184 F 
ENDBRANCH  25  26
ENDBRANCH   4  25
TORSDOF 7
ENDMDL
