MODEL 2
REMARK VINA RESULT: -9.417380733      0.030      1.756
REMARK  7 active torsions:
REMARK  status: ('A' for Active; 'I' for Inactive)
REMARK       I    between atoms: C1_2  and  N1_3 
REMARK    1  A    between atoms: C1_2  and  C7_14 
REMARK    2  A    between atoms: N1_3  and  C2_5 
REMARK    3  A    between atoms: C10_17  and  O2_18 
REMARK    4  A    between atoms: O2_18  and  C11_19 
REMARK    5  A    between atoms: C12_22  and  O3_23 
REMARK    6  A    between atoms: O3_23  and  C13_24 
REMARK    7  A    between atoms: C13_24  and  C14_25 
ROOT
HETATM    1  C7  UNL     1       2.119   1.075  42.060  1.00  0.00     0.035 A 
HETATM    2  C8  UNL     1       1.021   1.548  42.730  1.00  0.00     0.020 A 
HETATM    3  C9  UNL     1      -0.252   1.476  42.180  1.00  0.00     0.041 A 
HETATM    4  C10 UNL     1      -0.418   0.916  40.932  1.00  0.00     0.108 A 
HETATM    5  C12 UNL     1       0.691   0.432  40.242  1.00  0.00     0.103 A 
HETATM    6  C17 UNL     1       1.940   0.510  40.796  1.00  0.00     0.056 A 
ENDROOT
BRANCH   1   7
HETATM    7  C1  UNL     1       3.442   1.146  42.634  1.00  0.00     0.256 C 
HETATM    8  O1  UNL     1       4.315   0.283  42.273  1.00  0.00    -0.267 OA
HETATM    9  N1  UNL     1       3.813   2.130  43.579  1.00  0.00    -0.320 N 
ATOM     10  H1  UNL     1       3.149   2.837  43.894  1.00  0.00     0.169 HD
BRANCH   9  11
HETATM   11  C2  UNL     1       5.153   2.098  44.076  1.00  0.00     0.081 A 
HETATM   12  C3  UNL     1       6.148   2.803  43.436  1.00  0.00     0.077 A 
HETATM   13 CL1  UNL     1       5.800   3.750  42.014  1.00  0.00    -0.080 Cl
HETATM   14  C4  UNL     1       7.462   2.771  43.918  1.00  0.00     0.113 A 
HETATM   15  N2  UNL     1       7.787   2.059  45.010  1.00  0.00    -0.372 N 
HETATM   16  C5  UNL     1       6.830   1.366  45.645  1.00  0.00     0.113 A 
ATOM     17  H2  UNL     1       8.748   2.045  45.351  1.00  0.00     0.164 HD
HETATM   18  C6  UNL     1       5.506   1.373  45.193  1.00  0.00     0.077 A 
HETATM   19 CL2  UNL     1       4.267   0.473  46.025  1.00  0.00    -0.080 Cl
ENDBRANCH   9  11
ENDBRANCH   1   7
BRANCH   5  20
HETATM   20  O3  UNL     1       0.532  -0.126  39.000  1.00  0.00    -0.348 OA
BRANCH  20  21
HETATM   21  C13 UNL     1       1.311   0.152  37.878  1.00  0.00     0.180 C 
BRANCH  21  22
HETATM   22  C14 UNL     1       1.950  -1.150  37.379  1.00  0.00     0.010 A 
HETATM   23  C15 UNL     1       3.189  -1.054  36.536  1.00  0.00     0.007 A 
HETATM   24  C16 UNL     1       3.273  -1.469  37.975  1.00  0.00     0.007 A 
ENDBRANCH  21  22
ENDBRANCH  20  21
ENDBRANCH   5  20
BRANCH   4  25
HETATM   25  O2  UNL     1      -1.635   0.809  40.326  1.00  0.00    -0.287 OA
BRANCH  25  26
HETATM   26  C11 UNL     1      -2.873   0.531  40.893  1.00  0.00     0.505 C 
HETATM   27  F1  UNL     1      -3.267   1.681  41.591  1.00  0.00    -0.184 F 
HETATM   28  F2  UNL     1      -2.806  -0.496  41.834  1.00  0.00    -0.184 F 
ENDBRANCH  25  26
ENDBRANCH   4  25
TORSDOF 7
ENDMDL
