MODEL 2
REMARK VINA RESULT: -8.335679044      1.143      1.285
REMARK  4 active torsions:
REMARK  status: ('A' for Active; 'I' for Inactive)
REMARK    1  A    between atoms: O1_2  and  C2_3 
REMARK    2  A    between atoms: C5_6  and  C6_7 
REMARK    3  A    between atoms: C11_15  and  O3_16 
REMARK    4  A    between atoms: O3_16  and  C12_17 
ROOT
HETATM    1  C2  UNL     1      45.695   1.698  62.725  1.00  0.00     0.101 A 
HETATM    2  C3  UNL     1      45.715   1.663  61.348  1.00  0.00     0.040 A 
HETATM    3  C4  UNL     1      44.580   1.625  60.581  1.00  0.00     0.010 A 
HETATM    4  C5  UNL     1      43.359   1.621  61.202  1.00  0.00    -0.049 A 
HETATM    5  C10 UNL     1      43.309   1.656  62.564  1.00  0.00     0.047 A 
HETATM    6  C11 UNL     1      44.483   1.695  63.368  1.00  0.00     0.103 A 
ENDROOT
BRANCH   4   7
HETATM    7  C6  UNL     1      42.114   1.582  60.415  1.00  0.00     0.045 C 
HETATM    8  C7  UNL     1      42.179   2.553  59.251  1.00  0.00     0.132 C 
HETATM    9  N1  UNL     1      40.833   3.070  59.194  1.00  0.00    -0.360 N 
HETATM   10  C8  UNL     1      40.355   3.149  60.526  1.00  0.00     0.218 C 
ATOM     11  H1  UNL     1      40.320   3.331  58.351  1.00  0.00     0.162 HD
HETATM   12  O2  UNL     1      39.564   4.011  61.000  1.00  0.00    -0.274 OA
HETATM   13  C9  UNL     1      40.965   2.017  61.267  1.00  0.00     0.113 C 
ENDBRANCH   4   7
BRANCH   6  14
HETATM   14  O3  UNL     1      44.296   1.726  64.708  1.00  0.00    -0.343 OA
BRANCH  14  15
HETATM   15  C12 UNL     1      43.208   1.748  65.536  1.00  0.00     0.129 C 
HETATM   16  C13 UNL     1      42.824   0.301  65.834  1.00  0.00     0.032 C 
HETATM   17  C14 UNL     1      43.521  -0.068  67.115  1.00  0.00     0.002 C 
HETATM   18  C15 UNL     1      43.918   1.209  67.792  1.00  0.00     0.002 C 
HETATM   19  C16 UNL     1      43.512   2.341  66.911  1.00  0.00     0.032 C 
ENDBRANCH  14  15
ENDBRANCH   6  14
BRANCH   1  20
HETATM   20  O1  UNL     1      46.851   1.735  63.479  1.00  0.00    -0.353 OA
HETATM   21  C1  UNL     1      48.108   2.121  63.027  1.00  0.00     0.210 C 
ENDBRANCH   1  20
TORSDOF 4
ENDMDL
