MODEL 6
REMARK VINA RESULT: -8.106757142      1.184      1.341
REMARK  4 active torsions:
REMARK  status: ('A' for Active; 'I' for Inactive)
REMARK    1  A    between atoms: O1_2  and  C2_3 
REMARK    2  A    between atoms: C5_6  and  C6_7 
REMARK    3  A    between atoms: C11_15  and  O3_16 
REMARK    4  A    between atoms: O3_16  and  C12_17 
ROOT
HETATM    1  C2  UNL     1      45.142   1.864  62.939  1.00  0.00     0.101 A 
HETATM    2  C3  UNL     1      45.034   2.378  61.664  1.00  0.00     0.040 A 
HETATM    3  C4  UNL     1      43.842   2.755  61.105  1.00  0.00     0.010 A 
HETATM    4  C5  UNL     1      42.692   2.619  61.839  1.00  0.00    -0.049 A 
HETATM    5  C10 UNL     1      42.769   2.115  63.103  1.00  0.00     0.047 A 
HETATM    6  C11 UNL     1      44.003   1.720  63.691  1.00  0.00     0.103 A 
ENDROOT
BRANCH   4   7
HETATM    7  C6  UNL     1      41.389   3.014  61.276  1.00  0.00     0.045 C 
HETATM    8  C7  UNL     1      40.252   2.322  62.005  1.00  0.00     0.132 C 
HETATM    9  N1  UNL     1      39.321   2.034  60.942  1.00  0.00    -0.360 N 
HETATM   10  C8  UNL     1      40.081   1.739  59.784  1.00  0.00     0.218 C 
ATOM     11  H1  UNL     1      38.303   2.043  61.011  1.00  0.00     0.162 HD
HETATM   12  O2  UNL     1      39.785   0.921  58.868  1.00  0.00    -0.274 OA
HETATM   13  C9  UNL     1      41.303   2.578  59.849  1.00  0.00     0.113 C 
ENDBRANCH   4   7
BRANCH   6  14
HETATM   14  O3  UNL     1      43.943   1.234  64.952  1.00  0.00    -0.343 OA
BRANCH  14  15
HETATM   15  C12 UNL     1      43.194   1.507  66.064  1.00  0.00     0.129 C 
HETATM   16  C13 UNL     1      42.126   0.423  66.180  1.00  0.00     0.032 C 
HETATM   17  C14 UNL     1      42.692  -0.635  67.088  1.00  0.00     0.002 C 
HETATM   18  C15 UNL     1      43.829  -0.015  67.842  1.00  0.00     0.002 C 
HETATM   19  C16 UNL     1      43.986   1.389  67.366  1.00  0.00     0.032 C 
ENDBRANCH  14  15
ENDBRANCH   6  14
BRANCH   1  20
HETATM   20  O1  UNL     1      46.354   1.490  63.483  1.00  0.00    -0.353 OA
HETATM   21  C1  UNL     1      47.609   1.866  63.018  1.00  0.00     0.210 C 
ENDBRANCH   1  20
TORSDOF 4
ENDMDL
