MODEL 8
REMARK VINA RESULT: -7.812710173      2.688      4.861
REMARK  4 active torsions:
REMARK  status: ('A' for Active; 'I' for Inactive)
REMARK    1  A    between atoms: O1_2  and  C2_3 
REMARK    2  A    between atoms: C5_6  and  C6_7 
REMARK    3  A    between atoms: C11_15  and  O3_16 
REMARK    4  A    between atoms: O3_16  and  C12_17 
ROOT
HETATM    1  C2  UNL     1      42.708   1.071  65.214  1.00  0.00     0.101 A 
HETATM    2  C3  UNL     1      44.085   1.058  65.144  1.00  0.00     0.040 A 
HETATM    3  C4  UNL     1      44.784   1.425  64.024  1.00  0.00     0.010 A 
HETATM    4  C5  UNL     1      44.091   1.825  62.912  1.00  0.00    -0.049 A 
HETATM    5  C10 UNL     1      42.729   1.849  62.952  1.00  0.00     0.047 A 
HETATM    6  C11 UNL     1      41.996   1.469  64.111  1.00  0.00     0.103 A 
ENDROOT
BRANCH   4   7
HETATM    7  C6  UNL     1      44.804   2.229  61.686  1.00  0.00     0.045 C 
HETATM    8  C7  UNL     1      43.873   2.212  60.488  1.00  0.00     0.132 C 
HETATM    9  N1  UNL     1      44.723   1.718  59.433  1.00  0.00    -0.360 N 
HETATM   10  C8  UNL     1      45.611   0.778  60.012  1.00  0.00     0.218 C 
ATOM     11  H1  UNL     1      44.691   1.994  58.451  1.00  0.00     0.162 HD
HETATM   12  O2  UNL     1      46.077  -0.262  59.468  1.00  0.00    -0.274 OA
HETATM   13  C9  UNL     1      45.893   1.249  61.391  1.00  0.00     0.113 C 
ENDBRANCH   4   7
BRANCH   6  14
HETATM   14  O3  UNL     1      40.647   1.536  64.020  1.00  0.00    -0.343 OA
BRANCH  14  15
HETATM   15  C12 UNL     1      39.672   0.762  63.454  1.00  0.00     0.129 C 
HETATM   16  C13 UNL     1      38.858   1.655  62.520  1.00  0.00     0.032 C 
HETATM   17  C14 UNL     1      39.468   1.504  61.152  1.00  0.00     0.002 C 
HETATM   18  C15 UNL     1      40.292   0.253  61.165  1.00  0.00     0.002 C 
HETATM   19  C16 UNL     1      40.225  -0.327  62.537  1.00  0.00     0.032 C 
ENDBRANCH  14  15
ENDBRANCH   6  14
BRANCH   1  20
HETATM   20  O1  UNL     1      42.024   0.697  66.353  1.00  0.00    -0.353 OA
HETATM   21  C1  UNL     1      41.685  -0.603  66.712  1.00  0.00     0.210 C 
ENDBRANCH   1  20
TORSDOF 4
ENDMDL
