MODEL 7
REMARK VINA RESULT: -7.893309891      2.544      4.708
REMARK  4 active torsions:
REMARK  status: ('A' for Active; 'I' for Inactive)
REMARK    1  A    between atoms: O1_2  and  C2_3 
REMARK    2  A    between atoms: C5_6  and  C6_7 
REMARK    3  A    between atoms: C11_15  and  O3_16 
REMARK    4  A    between atoms: O3_16  and  C12_17 
ROOT
HETATM    1  C2  UNL     1      41.683   2.177  62.776  1.00  0.00     0.101 A 
HETATM    2  C3  UNL     1      42.120   2.875  61.670  1.00  0.00     0.040 A 
HETATM    3  C4  UNL     1      43.425   2.882  61.254  1.00  0.00     0.010 A 
HETATM    4  C5  UNL     1      44.352   2.165  61.965  1.00  0.00    -0.049 A 
HETATM    5  C10 UNL     1      43.948   1.464  63.063  1.00  0.00     0.047 A 
HETATM    6  C11 UNL     1      42.595   1.453  63.501  1.00  0.00     0.103 A 
ENDROOT
BRANCH   4   7
HETATM    7  C6  UNL     1      45.767   2.145  61.552  1.00  0.00     0.045 C 
HETATM    8  C7  UNL     1      46.315   0.730  61.569  1.00  0.00     0.132 C 
HETATM    9  N1  UNL     1      47.661   0.918  62.053  1.00  0.00    -0.360 N 
HETATM   10  C8  UNL     1      47.628   1.980  62.990  1.00  0.00     0.218 C 
ATOM     11  H1  UNL     1      48.485   0.385  61.772  1.00  0.00     0.162 HD
HETATM   12  O2  UNL     1      48.341   2.104  64.025  1.00  0.00    -0.274 OA
HETATM   13  C9  UNL     1      46.587   2.929  62.523  1.00  0.00     0.113 C 
ENDBRANCH   4   7
BRANCH   6  14
HETATM   14  O3  UNL     1      42.325   0.719  64.606  1.00  0.00    -0.343 OA
BRANCH  14  15
HETATM   15  C12 UNL     1      42.208   0.982  65.943  1.00  0.00     0.129 C 
HETATM   16  C13 UNL     1      42.710  -0.244  66.701  1.00  0.00     0.032 C 
HETATM   17  C14 UNL     1      44.164   0.008  67.000  1.00  0.00     0.002 C 
HETATM   18  C15 UNL     1      44.403   1.479  66.848  1.00  0.00     0.002 C 
HETATM   19  C16 UNL     1      43.124   2.111  66.415  1.00  0.00     0.032 C 
ENDBRANCH  14  15
ENDBRANCH   6  14
BRANCH   1  20
HETATM   20  O1  UNL     1      40.362   2.184  63.177  1.00  0.00    -0.353 OA
HETATM   21  C1  UNL     1      39.369   1.319  62.732  1.00  0.00     0.210 C 
ENDBRANCH   1  20
TORSDOF 4
ENDMDL
