MODEL 4
REMARK VINA RESULT: -8.155951811      2.850      6.001
REMARK  4 active torsions:
REMARK  status: ('A' for Active; 'I' for Inactive)
REMARK    1  A    between atoms: O1_2  and  C2_3 
REMARK    2  A    between atoms: C5_6  and  C6_7 
REMARK    3  A    between atoms: C11_15  and  O3_16 
REMARK    4  A    between atoms: O3_16  and  C12_17 
ROOT
HETATM    1  C2  UNL     1      44.377   1.671  61.649  1.00  0.00     0.101 A 
HETATM    2  C3  UNL     1      45.254   1.771  62.708  1.00  0.00     0.040 A 
HETATM    3  C4  UNL     1      44.864   1.676  64.018  1.00  0.00     0.010 A 
HETATM    4  C5  UNL     1      43.539   1.473  64.303  1.00  0.00    -0.049 A 
HETATM    5  C10 UNL     1      42.649   1.369  63.275  1.00  0.00     0.047 A 
HETATM    6  C11 UNL     1      43.046   1.467  61.913  1.00  0.00     0.103 A 
ENDROOT
BRANCH   4   7
HETATM    7  C6  UNL     1      43.077   1.364  65.698  1.00  0.00     0.045 C 
HETATM    8  C7  UNL     1      44.103   0.644  66.553  1.00  0.00     0.132 C 
HETATM    9  N1  UNL     1      43.281  -0.145  67.438  1.00  0.00    -0.360 N 
HETATM   10  C8  UNL     1      42.141  -0.553  66.702  1.00  0.00     0.218 C 
ATOM     11  H1  UNL     1      43.483  -0.367  68.413  1.00  0.00     0.162 HD
HETATM   12  O2  UNL     1      41.507  -1.638  66.823  1.00  0.00    -0.274 OA
HETATM   13  C9  UNL     1      41.829   0.545  65.754  1.00  0.00     0.113 C 
ENDBRANCH   4   7
BRANCH   6  14
HETATM   14  O3  UNL     1      42.064   1.348  60.989  1.00  0.00    -0.343 OA
BRANCH  14  15
HETATM   15  C12 UNL     1      41.275   2.221  60.292  1.00  0.00     0.129 C 
HETATM   16  C13 UNL     1      39.823   1.796  60.497  1.00  0.00     0.032 C 
HETATM   17  C14 UNL     1      39.307   2.598  61.662  1.00  0.00     0.002 C 
HETATM   18  C15 UNL     1      40.232   3.762  61.847  1.00  0.00     0.002 C 
HETATM   19  C16 UNL     1      41.325   3.647  60.840  1.00  0.00     0.032 C 
ENDBRANCH  14  15
ENDBRANCH   6  14
BRANCH   1  20
HETATM   20  O1  UNL     1      44.791   1.770  60.336  1.00  0.00    -0.353 OA
HETATM   21  C1  UNL     1      45.293   0.732  59.558  1.00  0.00     0.210 C 
ENDBRANCH   1  20
TORSDOF 4
ENDMDL
