MODEL 4
REMARK VINA RESULT: -7.377781488      1.456      6.213
REMARK  1 active torsions:
REMARK  status: ('A' for Active; 'I' for Inactive)
REMARK    1  A    between atoms: C2_2  and  O1_3 
ROOT
HETATM    1  C1  UNL     1      25.357   5.146   4.632  1.00  0.00     0.047 C 
HETATM    2  C2  UNL     1      24.458   3.942   4.455  1.00  0.00     0.065 C 
HETATM    3  C3  UNL     1      23.962   3.421   5.794  1.00  0.00     0.039 C 
HETATM    4  C4  UNL     1      24.330   1.940   5.794  1.00  0.00     0.009 C 
HETATM    5  C5  UNL     1      25.543   1.931   4.953  1.00  0.00     0.009 C 
HETATM    6  C6  UNL     1      25.948   0.611   4.388  1.00  0.00     0.025 C 
HETATM    7  C7  UNL     1      26.183  -0.469   5.394  1.00  0.00     0.014 C 
HETATM    8  C8  UNL     1      26.579  -1.721   4.598  1.00  0.00     0.040 C 
HETATM    9  C9  UNL     1      27.865  -1.403   3.947  1.00  0.00    -0.048 C 
HETATM   10  C10 UNL     1      28.813  -2.303   3.910  1.00  0.00     0.057 C 
HETATM   11  C11 UNL     1      30.082  -1.961   3.256  1.00  0.00     0.150 C 
HETATM   12  O2  UNL     1      31.158  -2.487   3.643  1.00  0.00    -0.293 OA
HETATM   13  C12 UNL     1      29.999  -0.980   2.142  1.00  0.00     0.087 C 
HETATM   14  C13 UNL     1      29.237   0.248   2.508  1.00  0.00     0.047 C 
HETATM   15  C14 UNL     1      28.040  -0.089   3.361  1.00  0.00    -0.045 C 
HETATM   16  C15 UNL     1      27.152   0.882   3.554  1.00  0.00    -0.047 C 
HETATM   17  C16 UNL     1      27.325   2.204   2.975  1.00  0.00     0.005 C 
HETATM   18  C17 UNL     1      26.374   3.150   3.065  1.00  0.00    -0.014 C 
HETATM   19  C18 UNL     1      25.140   2.808   3.772  1.00  0.00     0.009 C 
HETATM   20  C19 UNL     1      24.239   2.069   2.808  1.00  0.00     0.023 C 
ENDROOT
BRANCH   2  21
HETATM   21  O1  UNL     1      23.327   4.333   3.729  1.00  0.00    -0.389 OA
ATOM     22  H1  UNL     1      23.596   4.553   2.845  1.00  0.00     0.210 HD
ENDBRANCH   2  21
TORSDOF 1
ENDMDL
