MODEL 6
REMARK VINA RESULT: -6.240064171      1.558      6.288
REMARK  1 active torsions:
REMARK  status: ('A' for Active; 'I' for Inactive)
REMARK    1  A    between atoms: C2_2  and  O1_3 
ROOT
HETATM    1  C1  UNL     1      22.569   3.721   3.272  1.00  0.00     0.047 C 
HETATM    2  C2  UNL     1      23.536   4.032   4.394  1.00  0.00     0.065 C 
HETATM    3  C3  UNL     1      24.277   5.335   4.139  1.00  0.00     0.039 C 
HETATM    4  C4  UNL     1      25.753   4.971   4.263  1.00  0.00     0.009 C 
HETATM    5  C5  UNL     1      25.754   3.562   3.824  1.00  0.00     0.009 C 
HETATM    6  C6  UNL     1      26.947   2.750   4.203  1.00  0.00     0.025 C 
HETATM    7  C7  UNL     1      28.261   3.288   3.734  1.00  0.00     0.014 C 
HETATM    8  C8  UNL     1      29.331   2.308   4.235  1.00  0.00     0.040 C 
HETATM    9  C9  UNL     1      29.076   1.031   3.540  1.00  0.00    -0.048 C 
HETATM   10  C10 UNL     1      30.081   0.331   3.081  1.00  0.00     0.057 C 
HETATM   11  C11 UNL     1      29.799  -0.936   2.394  1.00  0.00     0.150 C 
HETATM   12  O2  UNL     1      30.567  -1.352   1.488  1.00  0.00    -0.293 OA
HETATM   13  C12 UNL     1      28.579  -1.661   2.836  1.00  0.00     0.087 C 
HETATM   14  C13 UNL     1      27.369  -0.790   2.871  1.00  0.00     0.047 C 
HETATM   15  C14 UNL     1      27.706   0.586   3.386  1.00  0.00    -0.045 C 
HETATM   16  C15 UNL     1      26.680   1.377   3.689  1.00  0.00    -0.047 C 
HETATM   17  C16 UNL     1      25.303   0.940   3.531  1.00  0.00     0.005 C 
HETATM   18  C17 UNL     1      24.266   1.688   3.949  1.00  0.00    -0.014 C 
HETATM   19  C18 UNL     1      24.566   2.974   4.578  1.00  0.00     0.009 C 
HETATM   20  C19 UNL     1      24.899   2.716   6.031  1.00  0.00     0.023 C 
ENDROOT
BRANCH   2  21
HETATM   21  O1  UNL     1      22.806   4.207   5.576  1.00  0.00    -0.389 OA
ATOM     22  H1  UNL     1      23.359   4.645   6.211  1.00  0.00     0.210 HD
ENDBRANCH   2  21
TORSDOF 1
ENDMDL
