MODEL 5
REMARK VINA RESULT: -6.389128968      1.099      6.152
REMARK  1 active torsions:
REMARK  status: ('A' for Active; 'I' for Inactive)
REMARK    1  A    between atoms: C2_2  and  O1_3 
ROOT
HETATM    1  C1  UNL     1      27.343   6.697   4.996  1.00  0.00     0.047 C 
HETATM    2  C2  UNL     1      26.271   6.170   4.066  1.00  0.00     0.065 C 
HETATM    3  C3  UNL     1      24.978   5.891   4.815  1.00  0.00     0.039 C 
HETATM    4  C4  UNL     1      24.634   4.446   4.468  1.00  0.00     0.009 C 
HETATM    5  C5  UNL     1      25.972   3.859   4.261  1.00  0.00     0.009 C 
HETATM    6  C6  UNL     1      26.022   2.572   3.507  1.00  0.00     0.025 C 
HETATM    7  C7  UNL     1      25.213   1.459   4.091  1.00  0.00     0.014 C 
HETATM    8  C8  UNL     1      25.408   0.252   3.162  1.00  0.00     0.040 C 
HETATM    9  C9  UNL     1      26.835  -0.111   3.254  1.00  0.00    -0.048 C 
HETATM   10  C10 UNL     1      27.180  -1.371   3.315  1.00  0.00     0.057 C 
HETATM   11  C11 UNL     1      28.607  -1.705   3.406  1.00  0.00     0.150 C 
HETATM   12  O2  UNL     1      28.978  -2.749   4.004  1.00  0.00    -0.293 OA
HETATM   13  C12 UNL     1      29.545  -0.748   2.761  1.00  0.00     0.087 C 
HETATM   14  C13 UNL     1      29.298   0.666   3.167  1.00  0.00     0.047 C 
HETATM   15  C14 UNL     1      27.821   0.950   3.276  1.00  0.00    -0.045 C 
HETATM   16  C15 UNL     1      27.467   2.226   3.396  1.00  0.00    -0.047 C 
HETATM   17  C16 UNL     1      28.452   3.295   3.424  1.00  0.00     0.005 C 
HETATM   18  C17 UNL     1      28.095   4.591   3.424  1.00  0.00    -0.014 C 
HETATM   19  C18 UNL     1      26.665   4.903   3.391  1.00  0.00     0.009 C 
HETATM   20  C19 UNL     1      26.204   4.828   1.953  1.00  0.00     0.023 C 
ENDROOT
BRANCH   2  21
HETATM   21  O1  UNL     1      25.983   7.154   3.114  1.00  0.00    -0.389 OA
ATOM     22  H1  UNL     1      26.795   7.425   2.702  1.00  0.00     0.210 HD
ENDBRANCH   2  21
TORSDOF 1
ENDMDL
