MODEL 1
REMARK VINA RESULT: -11.207357254      0.000      0.000
REMARK  1 active torsions:
REMARK  status: ('A' for Active; 'I' for Inactive)
REMARK    1  A    between atoms: C2_2  and  O1_3 
ROOT
HETATM    1  C1  UNL     1      29.431  -0.910   2.220  1.00  0.00     0.047 C 
HETATM    2  C2  UNL     1      28.759  -0.994   3.573  1.00  0.00     0.065 C 
HETATM    3  C3  UNL     1      27.479  -1.811   3.505  1.00  0.00     0.039 C 
HETATM    4  C4  UNL     1      26.408  -0.904   4.103  1.00  0.00     0.009 C 
HETATM    5  C5  UNL     1      26.917   0.436   3.751  1.00  0.00     0.009 C 
HETATM    6  C6  UNL     1      26.355   1.582   4.522  1.00  0.00     0.025 C 
HETATM    7  C7  UNL     1      24.868   1.722   4.466  1.00  0.00     0.014 C 
HETATM    8  C8  UNL     1      24.517   2.947   5.322  1.00  0.00     0.040 C 
HETATM    9  C9  UNL     1      25.120   4.109   4.642  1.00  0.00    -0.048 C 
HETATM   10  C10 UNL     1      24.449   5.229   4.554  1.00  0.00     0.057 C 
HETATM   11  C11 UNL     1      25.072   6.370   3.871  1.00  0.00     0.150 C 
HETATM   12  O2  UNL     1      24.361   7.218   3.274  1.00  0.00    -0.293 OA
HETATM   13  C12 UNL     1      26.556   6.441   3.940  1.00  0.00     0.087 C 
HETATM   14  C13 UNL     1      27.215   5.161   3.554  1.00  0.00     0.047 C 
HETATM   15  C14 UNL     1      26.451   3.975   4.085  1.00  0.00    -0.045 C 
HETATM   16  C15 UNL     1      27.059   2.794   4.014  1.00  0.00    -0.047 C 
HETATM   17  C16 UNL     1      28.391   2.650   3.451  1.00  0.00     0.005 C 
HETATM   18  C17 UNL     1      29.057   1.483   3.487  1.00  0.00    -0.014 C 
HETATM   19  C18 UNL     1      28.394   0.342   4.120  1.00  0.00     0.009 C 
HETATM   20  C19 UNL     1      28.606   0.449   5.613  1.00  0.00     0.023 C 
ENDROOT
BRANCH   2  21
HETATM   21  O1  UNL     1      29.617  -1.659   4.457  1.00  0.00    -0.389 OA
ATOM     22  H1  UNL     1      30.080  -1.011   4.974  1.00  0.00     0.210 HD
ENDBRANCH   2  21
TORSDOF 1
ENDMDL
