MODEL 2
REMARK VINA RESULT: -7.322803358      4.890      6.520
REMARK  7 active torsions:
REMARK  status: ('A' for Active; 'I' for Inactive)
REMARK    1  A    between atoms: C5_6  and  N2_7 
REMARK    2  A    between atoms: N2_7  and  C6_8 
REMARK    3  A    between atoms: N2_7  and  N4_22 
REMARK    4  A    between atoms: C6_8  and  C7_9 
REMARK    5  A    between atoms: C10_12  and  O1_13 
REMARK    6  A    between atoms: O1_13  and  S1_14 
REMARK    7  A    between atoms: S1_14  and  N3_15 
ROOT
HETATM    1  N1  UNL     1      19.925  25.004  19.375  1.00  0.00    -0.191 NA
HETATM    2  C1  UNL     1      20.354  26.070  19.412  1.00  0.00     0.099 C 
HETATM    3  C2  UNL     1      20.905  27.417  19.474  1.00  0.00     0.044 A 
HETATM    4  C3  UNL     1      22.271  27.607  19.454  1.00  0.00     0.025 A 
HETATM    5  C4  UNL     1      22.712  28.921  19.517  1.00  0.00     0.033 A 
HETATM    6  C5  UNL     1      21.871  30.004  19.597  1.00  0.00     0.051 A 
HETATM    7  C15 UNL     1      20.515  29.777  19.615  1.00  0.00     0.033 A 
HETATM    8  C16 UNL     1      20.039  28.481  19.554  1.00  0.00     0.025 A 
ENDROOT
BRANCH   6   9
HETATM    9  N2  UNL     1      22.386  31.322  19.652  1.00  0.00    -0.280 N 
BRANCH   9  10
HETATM   10  C6  UNL     1      22.137  32.234  20.720  1.00  0.00     0.188 C 
BRANCH  10  11
HETATM   11  C7  UNL     1      21.199  33.329  20.411  1.00  0.00    -0.038 A 
HETATM   12  C8  UNL     1      19.855  33.018  20.393  1.00  0.00     0.011 A 
HETATM   13  C9  UNL     1      18.885  33.956  20.113  1.00  0.00     0.039 A 
HETATM   14  C10 UNL     1      19.241  35.268  19.837  1.00  0.00     0.091 A 
HETATM   15  C11 UNL     1      20.582  35.591  19.853  1.00  0.00     0.039 A 
HETATM   16  C12 UNL     1      21.558  34.630  20.138  1.00  0.00     0.011 A 
BRANCH  14  17
HETATM   17  O1  UNL     1      18.245  36.189  19.560  1.00  0.00    -0.217 OA
BRANCH  17  18
HETATM   18  S1  UNL     1      18.034  36.914  18.039  1.00  0.00     0.360 S 
HETATM   19  O2  UNL     1      16.573  37.236  17.888  1.00  0.00    -0.176 OA
HETATM   20  O3  UNL     1      18.398  35.981  16.913  1.00  0.00    -0.176 OA
BRANCH  18  21
HETATM   21  N3  UNL     1      18.913  38.396  17.927  1.00  0.00    -0.305 N 
ATOM     22  H32 UNL     1      19.845  38.469  17.519  1.00  0.00     0.171 HD
ATOM     23  H31 UNL     1      18.378  39.171  18.319  1.00  0.00     0.171 HD
ENDBRANCH  18  21
ENDBRANCH  17  18
ENDBRANCH  14  17
ENDBRANCH  10  11
ENDBRANCH   9  10
BRANCH   9  24
HETATM   24  N4  UNL     1      23.186  31.743  18.590  1.00  0.00    -0.242 N 
HETATM   25  C13 UNL     1      24.473  32.103  18.645  1.00  0.00     0.224 A 
HETATM   26  N5  UNL     1      24.879  32.444  17.406  1.00  0.00    -0.293 N 
HETATM   27  N6  UNL     1      23.865  32.305  16.564  1.00  0.00    -0.293 N 
ATOM     28  H5  UNL     1      25.816  32.758  17.156  1.00  0.00     0.187 HD
HETATM   29  C14 UNL     1      22.817  31.872  17.296  1.00  0.00     0.224 A 
ATOM     30  H6  UNL     1      23.874  32.488  15.560  1.00  0.00     0.187 HD
ENDBRANCH   9  24
ENDBRANCH   6   9
TORSDOF 7
ENDMDL
