MODEL 1
REMARK VINA RESULT: -8.383883823      0.000      0.000
REMARK  7 active torsions:
REMARK  status: ('A' for Active; 'I' for Inactive)
REMARK    1  A    between atoms: C5_6  and  N2_7 
REMARK    2  A    between atoms: N2_7  and  C6_8 
REMARK    3  A    between atoms: N2_7  and  N4_22 
REMARK    4  A    between atoms: C6_8  and  C7_9 
REMARK    5  A    between atoms: C10_12  and  O1_13 
REMARK    6  A    between atoms: O1_13  and  S1_14 
REMARK    7  A    between atoms: S1_14  and  N3_15 
ROOT
HETATM    1  N1  UNL     1      23.172  27.257  13.194  1.00  0.00    -0.191 NA
HETATM    2  C1  UNL     1      22.987  28.178  13.857  1.00  0.00     0.099 C 
HETATM    3  C2  UNL     1      22.747  29.354  14.682  1.00  0.00     0.044 A 
HETATM    4  C3  UNL     1      21.462  29.821  14.863  1.00  0.00     0.025 A 
HETATM    5  C4  UNL     1      21.323  30.946  15.663  1.00  0.00     0.033 A 
HETATM    6  C5  UNL     1      22.377  31.592  16.262  1.00  0.00     0.051 A 
HETATM    7  C15 UNL     1      23.644  31.098  16.059  1.00  0.00     0.033 A 
HETATM    8  C16 UNL     1      23.822  29.979  15.267  1.00  0.00     0.025 A 
ENDROOT
BRANCH   6   9
HETATM    9  N2  UNL     1      22.165  32.734  17.072  1.00  0.00    -0.280 N 
BRANCH   9  10
HETATM   10  C6  UNL     1      21.933  32.685  18.478  1.00  0.00     0.188 C 
BRANCH  10  11
HETATM   11  C7  UNL     1      21.759  31.336  19.046  1.00  0.00    -0.038 A 
HETATM   12  C8  UNL     1      20.477  30.827  19.075  1.00  0.00     0.011 A 
HETATM   13  C9  UNL     1      20.191  29.580  19.584  1.00  0.00     0.039 A 
HETATM   14  C10 UNL     1      21.206  28.783  20.094  1.00  0.00     0.091 A 
HETATM   15  C11 UNL     1      22.493  29.281  20.071  1.00  0.00     0.039 A 
HETATM   16  C12 UNL     1      22.771  30.550  19.550  1.00  0.00     0.011 A 
BRANCH  14  17
HETATM   17  O1  UNL     1      20.889  27.533  20.600  1.00  0.00    -0.217 OA
BRANCH  17  18
HETATM   18  S1  UNL     1      20.250  26.274  19.657  1.00  0.00     0.360 S 
HETATM   19  O2  UNL     1      20.709  24.976  20.262  1.00  0.00    -0.176 OA
HETATM   20  O3  UNL     1      20.769  26.308  18.243  1.00  0.00    -0.176 OA
BRANCH  18  21
HETATM   21  N3  UNL     1      18.524  26.287  19.686  1.00  0.00    -0.305 N 
ATOM     22  H32 UNL     1      17.947  26.365  18.849  1.00  0.00     0.171 HD
ATOM     23  H31 UNL     1      18.172  26.207  20.640  1.00  0.00     0.171 HD
ENDBRANCH  18  21
ENDBRANCH  17  18
ENDBRANCH  14  17
ENDBRANCH  10  11
ENDBRANCH   9  10
BRANCH   9  24
HETATM   24  N4  UNL     1      22.188  33.980  16.444  1.00  0.00    -0.242 N 
HETATM   25  C13 UNL     1      23.185  34.871  16.461  1.00  0.00     0.224 A 
HETATM   26  N5  UNL     1      22.816  35.944  15.735  1.00  0.00    -0.293 N 
HETATM   27  N6  UNL     1      21.596  35.745  15.256  1.00  0.00    -0.293 N 
ATOM     28  H5  UNL     1      23.384  36.777  15.578  1.00  0.00     0.187 HD
HETATM   29  C14 UNL     1      21.207  34.530  15.695  1.00  0.00     0.224 A 
ATOM     30  H6  UNL     1      21.057  36.384  14.671  1.00  0.00     0.187 HD
ENDBRANCH   9  24
ENDBRANCH   6   9
TORSDOF 7
ENDMDL
