MODEL 11
REMARK VINA RESULT: -7.059657440      3.551      5.826
REMARK  7 active torsions:
REMARK  status: ('A' for Active; 'I' for Inactive)
REMARK    1  A    between atoms: C5_6  and  N2_7 
REMARK    2  A    between atoms: N2_7  and  C6_8 
REMARK    3  A    between atoms: N2_7  and  N4_22 
REMARK    4  A    between atoms: C6_8  and  C7_9 
REMARK    5  A    between atoms: C10_12  and  O1_13 
REMARK    6  A    between atoms: O1_13  and  S1_14 
REMARK    7  A    between atoms: S1_14  and  N3_15 
ROOT
HETATM    1  N1  UNL     1      26.133  34.461  25.713  1.00  0.00    -0.191 NA
HETATM    2  C1  UNL     1      25.495  34.344  24.764  1.00  0.00     0.099 C 
HETATM    3  C2  UNL     1      24.700  34.186  23.553  1.00  0.00     0.044 A 
HETATM    4  C3  UNL     1      24.292  32.931  23.153  1.00  0.00     0.025 A 
HETATM    5  C4  UNL     1      23.538  32.870  21.989  1.00  0.00     0.033 A 
HETATM    6  C5  UNL     1      23.194  33.972  21.245  1.00  0.00     0.051 A 
HETATM    7  C15 UNL     1      23.618  35.208  21.675  1.00  0.00     0.033 A 
HETATM    8  C16 UNL     1      24.371  35.307  22.830  1.00  0.00     0.025 A 
ENDROOT
BRANCH   6   9
HETATM    9  N2  UNL     1      22.417  33.842  20.069  1.00  0.00    -0.280 N 
BRANCH   9  10
HETATM   10  C6  UNL     1      21.035  33.492  20.057  1.00  0.00     0.188 C 
BRANCH  10  11
HETATM   11  C7  UNL     1      20.744  32.065  19.828  1.00  0.00    -0.038 A 
HETATM   12  C8  UNL     1      20.284  31.337  20.907  1.00  0.00     0.011 A 
HETATM   13  C9  UNL     1      19.983  29.996  20.816  1.00  0.00     0.039 A 
HETATM   14  C10 UNL     1      20.137  29.325  19.611  1.00  0.00     0.091 A 
HETATM   15  C11 UNL     1      20.596  30.042  18.526  1.00  0.00     0.039 A 
HETATM   16  C12 UNL     1      20.898  31.405  18.630  1.00  0.00     0.011 A 
BRANCH  14  17
HETATM   17  O1  UNL     1      19.826  27.977  19.550  1.00  0.00    -0.217 OA
BRANCH  17  18
HETATM   18  S1  UNL     1      20.942  26.776  19.104  1.00  0.00     0.360 S 
HETATM   19  O2  UNL     1      22.249  27.099  19.774  1.00  0.00    -0.176 OA
HETATM   20  O3  UNL     1      21.198  26.767  17.619  1.00  0.00    -0.176 OA
BRANCH  18  21
HETATM   21  N3  UNL     1      20.437  25.221  19.658  1.00  0.00    -0.305 N 
ATOM     22  H32 UNL     1      19.686  25.079  20.333  1.00  0.00     0.171 HD
ATOM     23  H31 UNL     1      20.987  24.480  19.224  1.00  0.00     0.171 HD
ENDBRANCH  18  21
ENDBRANCH  17  18
ENDBRANCH  14  17
ENDBRANCH  10  11
ENDBRANCH   9  10
BRANCH   9  24
HETATM   24  N4  UNL     1      23.056  34.073  18.849  1.00  0.00    -0.242 N 
HETATM   25  C13 UNL     1      22.707  34.962  17.914  1.00  0.00     0.224 A 
HETATM   26  N5  UNL     1      23.576  34.874  16.889  1.00  0.00    -0.293 N 
HETATM   27  N6  UNL     1      24.474  33.938  17.162  1.00  0.00    -0.293 N 
ATOM     28  H5  UNL     1      23.548  35.436  16.039  1.00  0.00     0.187 HD
HETATM   29  C14 UNL     1      24.152  33.441  18.374  1.00  0.00     0.224 A 
ATOM     30  H6  UNL     1      25.255  33.649  16.572  1.00  0.00     0.187 HD
ENDBRANCH   9  24
ENDBRANCH   6   9
TORSDOF 7
ENDMDL
