MODEL 3
REMARK VINA RESULT: -7.302309640      4.896      6.497
REMARK  7 active torsions:
REMARK  status: ('A' for Active; 'I' for Inactive)
REMARK    1  A    between atoms: C5_6  and  N2_7 
REMARK    2  A    between atoms: N2_7  and  C6_8 
REMARK    3  A    between atoms: N2_7  and  N4_22 
REMARK    4  A    between atoms: C6_8  and  C7_9 
REMARK    5  A    between atoms: C10_12  and  O1_13 
REMARK    6  A    between atoms: O1_13  and  S1_14 
REMARK    7  A    between atoms: S1_14  and  N3_15 
ROOT
HETATM    1  N1  UNL     1      19.925  25.017  19.366  1.00  0.00    -0.191 NA
HETATM    2  C1  UNL     1      20.334  26.090  19.423  1.00  0.00     0.099 C 
HETATM    3  C2  UNL     1      20.841  27.454  19.478  1.00  0.00     0.044 A 
HETATM    4  C3  UNL     1      19.976  28.507  19.692  1.00  0.00     0.025 A 
HETATM    5  C4  UNL     1      20.542  29.773  19.732  1.00  0.00     0.033 A 
HETATM    6  C5  UNL     1      21.885  30.013  19.572  1.00  0.00     0.051 A 
HETATM    7  C15 UNL     1      22.719  28.939  19.361  1.00  0.00     0.033 A 
HETATM    8  C16 UNL     1      22.190  27.663  19.315  1.00  0.00     0.025 A 
ENDROOT
BRANCH   6   9
HETATM    9  N2  UNL     1      22.401  31.330  19.628  1.00  0.00    -0.280 N 
BRANCH   9  10
HETATM   10  C6  UNL     1      22.158  32.239  20.699  1.00  0.00     0.188 C 
BRANCH  10  11
HETATM   11  C7  UNL     1      21.218  33.335  20.399  1.00  0.00    -0.038 A 
HETATM   12  C8  UNL     1      19.876  33.015  20.350  1.00  0.00     0.011 A 
HETATM   13  C9  UNL     1      18.905  33.953  20.074  1.00  0.00     0.039 A 
HETATM   14  C10 UNL     1      19.257  35.274  19.834  1.00  0.00     0.091 A 
HETATM   15  C11 UNL     1      20.596  35.605  19.879  1.00  0.00     0.039 A 
HETATM   16  C12 UNL     1      21.573  34.643  20.161  1.00  0.00     0.011 A 
BRANCH  14  17
HETATM   17  O1  UNL     1      18.260  36.195  19.560  1.00  0.00    -0.217 OA
BRANCH  17  18
HETATM   18  S1  UNL     1      18.047  36.923  18.040  1.00  0.00     0.360 S 
HETATM   19  O2  UNL     1      16.584  37.237  17.888  1.00  0.00    -0.176 OA
HETATM   20  O3  UNL     1      18.417  35.995  16.912  1.00  0.00    -0.176 OA
BRANCH  18  21
HETATM   21  N3  UNL     1      18.918  38.409  17.934  1.00  0.00    -0.305 N 
ATOM     22  H32 UNL     1      19.908  38.500  18.163  1.00  0.00     0.171 HD
ATOM     23  H31 UNL     1      18.314  39.168  17.616  1.00  0.00     0.171 HD
ENDBRANCH  18  21
ENDBRANCH  17  18
ENDBRANCH  14  17
ENDBRANCH  10  11
ENDBRANCH   9  10
BRANCH   9  24
HETATM   24  N4  UNL     1      23.196  31.754  18.563  1.00  0.00    -0.242 N 
HETATM   25  C13 UNL     1      22.807  31.962  17.301  1.00  0.00     0.224 A 
HETATM   26  N5  UNL     1      23.872  32.364  16.581  1.00  0.00    -0.293 N 
HETATM   27  N6  UNL     1      24.935  32.414  17.372  1.00  0.00    -0.293 N 
ATOM     28  H5  UNL     1      23.863  32.594  15.588  1.00  0.00     0.187 HD
HETATM   29  C14 UNL     1      24.518  32.036  18.597  1.00  0.00     0.224 A 
ATOM     30  H6  UNL     1      25.883  32.685  17.106  1.00  0.00     0.187 HD
ENDBRANCH   9  24
ENDBRANCH   6   9
TORSDOF 7
ENDMDL
