MODEL 4
REMARK VINA RESULT: -7.448713852      4.635      7.520
REMARK  7 active torsions:
REMARK  status: ('A' for Active; 'I' for Inactive)
REMARK    1  A    between atoms: C5_6  and  N2_7 
REMARK    2  A    between atoms: N2_7  and  C6_8 
REMARK    3  A    between atoms: N2_7  and  N4_23 
REMARK    4  A    between atoms: C6_8  and  C7_9 
REMARK    5  A    between atoms: C10_12  and  O1_13 
REMARK    6  A    between atoms: O1_13  and  S1_14 
REMARK    7  A    between atoms: S1_14  and  N3_15 
ROOT
HETATM    1  N1  UNL     1      20.058  25.183  19.239  1.00  0.00    -0.191 NA
HETATM    2  C1  UNL     1      20.525  26.262  19.285  1.00  0.00     0.099 C 
HETATM    3  C2  UNL     1      21.081  27.582  19.320  1.00  0.00     0.044 A 
HETATM    4  C3  UNL     1      21.574  28.151  18.138  1.00  0.00     0.025 A 
HETATM    5  C4  UNL     1      22.117  29.432  18.201  1.00  0.00     0.033 A 
HETATM    6  C5  UNL     1      22.205  30.177  19.341  1.00  0.00     0.051 A 
HETATM    7  C15 UNL     1      21.713  29.599  20.495  1.00  0.00     0.033 A 
HETATM    8  C16 UNL     1      21.162  28.325  20.483  1.00  0.00     0.025 A 
ENDROOT
BRANCH   6   9
HETATM    9  N2  UNL     1      22.742  31.477  19.403  1.00  0.00    -0.280 N 
BRANCH   9  10
HETATM   10  C6  UNL     1      22.636  32.385  20.507  1.00  0.00     0.188 C 
BRANCH  10  11
HETATM   11  C7  UNL     1      21.631  33.451  20.324  1.00  0.00    -0.037 A 
HETATM   12  C8  UNL     1      20.370  33.080  19.943  1.00  0.00     0.012 A 
HETATM   13  C9  UNL     1      19.349  33.990  19.707  1.00  0.00     0.040 A 
HETATM   14  C10 UNL     1      19.596  35.340  19.863  1.00  0.00     0.108 A 
HETATM   15  C11 UNL     1      20.861  35.724  20.251  1.00  0.00     0.046 A 
HETATM   16 BR1  UNL     1      21.240  37.595  20.469  1.00  0.00    -0.048 Br
HETATM   17  C12 UNL     1      21.876  34.795  20.480  1.00  0.00     0.031 A 
BRANCH  14  18
HETATM   18  O1  UNL     1      18.603  36.262  19.635  1.00  0.00    -0.215 OA
BRANCH  18  19
HETATM   19  S1  UNL     1      18.184  36.879  18.117  1.00  0.00     0.360 S 
HETATM   20  O2  UNL     1      16.685  37.036  18.064  1.00  0.00    -0.176 OA
HETATM   21  O3  UNL     1      18.570  35.953  17.012  1.00  0.00    -0.176 OA
BRANCH  19  22
HETATM   22  N3  UNL     1      18.955  38.410  17.888  1.00  0.00    -0.305 N 
ATOM     23  H32 UNL     1      19.828  38.690  18.335  1.00  0.00     0.171 HD
ATOM     24  H31 UNL     1      18.402  38.974  17.244  1.00  0.00     0.171 HD
ENDBRANCH  19  22
ENDBRANCH  18  19
ENDBRANCH  14  18
ENDBRANCH  10  11
ENDBRANCH   9  10
BRANCH   9  25
HETATM   25  N4  UNL     1      23.472  31.941  18.279  1.00  0.00    -0.242 N 
HETATM   26  C13 UNL     1      22.967  32.516  17.177  1.00  0.00     0.224 A 
HETATM   27  N5  UNL     1      23.990  32.791  16.373  1.00  0.00    -0.293 N 
HETATM   28  N6  UNL     1      25.115  32.410  16.936  1.00  0.00    -0.293 N 
ATOM     29  H5  UNL     1      23.914  33.233  15.457  1.00  0.00     0.187 HD
HETATM   30  C14 UNL     1      24.799  31.864  18.154  1.00  0.00     0.224 A 
ATOM     31  H6  UNL     1      26.050  32.503  16.540  1.00  0.00     0.187 HD
ENDBRANCH   9  25
ENDBRANCH   6   9
TORSDOF 7
ENDMDL
