MODEL 1
REMARK VINA RESULT: -7.636177935      0.000      0.000
REMARK  7 active torsions:
REMARK  status: ('A' for Active; 'I' for Inactive)
REMARK    1  A    between atoms: C5_6  and  N2_7 
REMARK    2  A    between atoms: N2_7  and  C6_8 
REMARK    3  A    between atoms: N2_7  and  N4_23 
REMARK    4  A    between atoms: C6_8  and  C7_9 
REMARK    5  A    between atoms: C10_12  and  O1_13 
REMARK    6  A    between atoms: O1_13  and  S1_14 
REMARK    7  A    between atoms: S1_14  and  N3_15 
ROOT
HETATM    1  N1  UNL     1      16.428  37.398  17.983  1.00  0.00    -0.191 NA
HETATM    2  C1  UNL     1      17.437  36.865  18.267  1.00  0.00     0.099 C 
HETATM    3  C2  UNL     1      18.680  36.234  18.604  1.00  0.00     0.044 A 
HETATM    4  C3  UNL     1      19.726  36.239  17.673  1.00  0.00     0.025 A 
HETATM    5  C4  UNL     1      20.920  35.612  18.021  1.00  0.00     0.033 A 
HETATM    6  C5  UNL     1      21.144  34.988  19.215  1.00  0.00     0.051 A 
HETATM    7  C15 UNL     1      20.099  34.995  20.119  1.00  0.00     0.033 A 
HETATM    8  C16 UNL     1      18.891  35.607  19.817  1.00  0.00     0.025 A 
ENDROOT
BRANCH   6   9
HETATM    9  N2  UNL     1      22.353  34.365  19.573  1.00  0.00    -0.280 N 
BRANCH   9  10
HETATM   10  C6  UNL     1      23.007  33.309  18.855  1.00  0.00     0.188 C 
BRANCH  10  11
HETATM   11  C7  UNL     1      22.343  31.995  18.965  1.00  0.00    -0.037 A 
HETATM   12  C8  UNL     1      22.462  31.131  17.910  1.00  0.00     0.012 A 
HETATM   13  C9  UNL     1      21.857  29.882  17.881  1.00  0.00     0.040 A 
HETATM   14  C10 UNL     1      21.097  29.471  18.959  1.00  0.00     0.108 A 
HETATM   15  C11 UNL     1      20.974  30.333  20.027  1.00  0.00     0.046 A 
HETATM   16 BR1  UNL     1      19.917  29.795  21.539  1.00  0.00    -0.048 Br
HETATM   17  C12 UNL     1      21.587  31.586  20.038  1.00  0.00     0.031 A 
BRANCH  14  18
HETATM   18  O1  UNL     1      20.487  28.240  18.954  1.00  0.00    -0.215 OA
BRANCH  18  19
HETATM   19  S1  UNL     1      21.291  26.761  18.792  1.00  0.00     0.360 S 
HETATM   20  O2  UNL     1      22.669  26.900  19.389  1.00  0.00    -0.176 OA
HETATM   21  O3  UNL     1      21.468  26.376  17.361  1.00  0.00    -0.176 OA
BRANCH  19  22
HETATM   22  N3  UNL     1      20.401  25.530  19.618  1.00  0.00    -0.305 N 
ATOM     23  H32 UNL     1      19.420  25.311  19.445  1.00  0.00     0.171 HD
ATOM     24  H31 UNL     1      21.009  25.070  20.295  1.00  0.00     0.171 HD
ENDBRANCH  19  22
ENDBRANCH  18  19
ENDBRANCH  14  18
ENDBRANCH  10  11
ENDBRANCH   9  10
BRANCH   9  25
HETATM   25  N4  UNL     1      23.008  34.822  20.745  1.00  0.00    -0.242 N 
HETATM   26  C13 UNL     1      23.201  36.099  21.109  1.00  0.00     0.224 A 
HETATM   27  N5  UNL     1      23.860  36.083  22.264  1.00  0.00    -0.293 N 
HETATM   28  N6  UNL     1      24.082  34.842  22.634  1.00  0.00    -0.293 N 
ATOM     29  H5  UNL     1      24.149  36.910  22.785  1.00  0.00     0.187 HD
HETATM   30  C14 UNL     1      23.544  34.024  21.672  1.00  0.00     0.224 A 
ATOM     31  H6  UNL     1      24.565  34.541  23.481  1.00  0.00     0.187 HD
ENDBRANCH   9  25
ENDBRANCH   6   9
TORSDOF 7
ENDMDL
