MODEL 2
REMARK VINA RESULT: -7.607925496      1.507      1.965
REMARK  7 active torsions:
REMARK  status: ('A' for Active; 'I' for Inactive)
REMARK    1  A    between atoms: C5_6  and  N2_7 
REMARK    2  A    between atoms: N2_7  and  C6_8 
REMARK    3  A    between atoms: N2_7  and  N4_23 
REMARK    4  A    between atoms: C6_8  and  C7_9 
REMARK    5  A    between atoms: C10_12  and  O1_13 
REMARK    6  A    between atoms: O1_13  and  S1_14 
REMARK    7  A    between atoms: S1_14  and  N3_15 
ROOT
HETATM    1  N1  UNL     1      16.533  37.380  17.905  1.00  0.00    -0.191 NA
HETATM    2  C1  UNL     1      17.504  36.828  18.274  1.00  0.00     0.099 C 
HETATM    3  C2  UNL     1      18.700  36.168  18.709  1.00  0.00     0.044 A 
HETATM    4  C3  UNL     1      19.618  35.712  17.753  1.00  0.00     0.025 A 
HETATM    5  C4  UNL     1      20.768  35.066  18.201  1.00  0.00     0.033 A 
HETATM    6  C5  UNL     1      21.066  34.846  19.515  1.00  0.00     0.051 A 
HETATM    7  C15 UNL     1      20.149  35.304  20.441  1.00  0.00     0.033 A 
HETATM    8  C16 UNL     1      18.989  35.952  20.043  1.00  0.00     0.025 A 
ENDROOT
BRANCH   6   9
HETATM    9  N2  UNL     1      22.234  34.205  19.969  1.00  0.00    -0.280 N 
BRANCH   9  10
HETATM   10  C6  UNL     1      22.292  33.076  20.852  1.00  0.00     0.188 C 
BRANCH  10  11
HETATM   11  C7  UNL     1      21.783  31.819  20.267  1.00  0.00    -0.037 A 
HETATM   12  C8  UNL     1      21.215  30.906  21.115  1.00  0.00     0.012 A 
HETATM   13  C9  UNL     1      20.732  29.676  20.693  1.00  0.00     0.040 A 
HETATM   14  C10 UNL     1      20.815  29.339  19.355  1.00  0.00     0.108 A 
HETATM   15  C11 UNL     1      21.381  30.252  18.493  1.00  0.00     0.046 A 
HETATM   16 BR1  UNL     1      21.519  29.810  16.629  1.00  0.00    -0.048 Br
HETATM   17  C12 UNL     1      21.865  31.483  18.937  1.00  0.00     0.031 A 
BRANCH  14  18
HETATM   18  O1  UNL     1      20.344  28.126  18.912  1.00  0.00    -0.215 OA
BRANCH  18  19
HETATM   19  S1  UNL     1      21.274  26.721  18.765  1.00  0.00     0.360 S 
HETATM   20  O2  UNL     1      22.629  26.979  19.375  1.00  0.00    -0.176 OA
HETATM   21  O3  UNL     1      21.497  26.346  17.337  1.00  0.00    -0.176 OA
BRANCH  19  22
HETATM   22  N3  UNL     1      20.484  25.422  19.590  1.00  0.00    -0.305 N 
ATOM     23  H32 UNL     1      20.271  24.516  19.171  1.00  0.00     0.171 HD
ATOM     24  H31 UNL     1      20.271  25.708  20.545  1.00  0.00     0.171 HD
ENDBRANCH  19  22
ENDBRANCH  18  19
ENDBRANCH  14  18
ENDBRANCH  10  11
ENDBRANCH   9  10
BRANCH   9  25
HETATM   25  N4  UNL     1      23.480  34.702  19.508  1.00  0.00    -0.242 N 
HETATM   26  C13 UNL     1      24.059  35.860  19.858  1.00  0.00     0.224 A 
HETATM   27  N5  UNL     1      25.208  35.942  19.193  1.00  0.00    -0.293 N 
HETATM   28  N6  UNL     1      25.366  34.875  18.442  1.00  0.00    -0.293 N 
ATOM     29  H5  UNL     1      25.868  36.716  19.256  1.00  0.00     0.187 HD
HETATM   30  C14 UNL     1      24.268  34.074  18.633  1.00  0.00     0.224 A 
ATOM     31  H6  UNL     1      26.158  34.678  17.831  1.00  0.00     0.187 HD
ENDBRANCH   9  25
ENDBRANCH   6   9
TORSDOF 7
ENDMDL
