MODEL 3
REMARK VINA RESULT: -9.393700365      3.078      6.022
REMARK  15 active torsions:
REMARK  status: ('A' for Active; 'I' for Inactive)
REMARK    1  A    between atoms: N5_13  and  C6_14 
REMARK    2  A    between atoms: C7_16  and  C8_17 
REMARK    3  A    between atoms: C8_17  and  O2_18 
REMARK    4  A    between atoms: O2_18  and  P1_19 
REMARK    5  A    between atoms: P1_19  and  O5_22 
REMARK    6  A    between atoms: O5_22  and  P2_23 
REMARK    7  A    between atoms: P2_23  and  O8_26 
REMARK    8  A    between atoms: O8_26  and  C9_27 
REMARK    9  A    between atoms: C9_27  and  C10_28 
REMARK   10  A    between atoms: C11_30  and  N6_31 
REMARK   11  A    between atoms: C15_35  and  C16_36 
REMARK   12  A    between atoms: C18_40  and  O12_41 
REMARK   13  A    between atoms: C19_43  and  O13_44 
REMARK   14  A    between atoms: C20_46  and  O14_47 
REMARK   15  A    between atoms: C21_49  and  O15_50 
ROOT
HETATM    1  P1  UNL     1      12.419  34.218  22.683  1.00  0.00     0.417 P 
HETATM    2  O3  UNL     1      12.661  35.581  23.335  1.00  0.00    -0.624 OA
HETATM    3  O4  UNL     1      12.245  34.487  21.039  1.00  0.00    -0.624 OA
ENDROOT
BRANCH   1   4
HETATM    4  O2  UNL     1      13.772  33.274  23.052  1.00  0.00    -0.287 OA
BRANCH   4   5
HETATM    5  C8  UNL     1      14.486  33.881  24.063  1.00  0.00     0.216 C 
BRANCH   5   6
HETATM    6  C7  UNL     1      15.614  33.021  24.563  1.00  0.00     0.180 C 
HETATM    7  O1  UNL     1      15.258  31.693  24.728  1.00  0.00    -0.353 OA
HETATM    8  C6  UNL     1      16.433  30.951  24.587  1.00  0.00     0.262 C 
HETATM    9  C21 UNL     1      17.049  31.597  23.364  1.00  0.00     0.198 C 
HETATM   10  C20 UNL     1      16.796  33.063  23.647  1.00  0.00     0.182 C 
BRANCH   8  11
HETATM   11  N5  UNL     1      16.166  29.561  24.407  1.00  0.00    -0.297 N 
HETATM   12  C3  UNL     1      15.095  29.031  23.823  1.00  0.00     0.142 A 
HETATM   13  N3  UNL     1      13.990  29.573  23.248  1.00  0.00    -0.336 N 
HETATM   14  C4  UNL     1      15.171  27.646  23.826  1.00  0.00     0.119 A 
HETATM   15  C2  UNL     1      13.022  28.812  22.711  1.00  0.00     0.183 A 
ATOM     16  H3  UNL     1      13.893  30.588  23.223  1.00  0.00     0.168 HD
HETATM   17  N2  UNL     1      13.123  27.455  22.728  1.00  0.00    -0.339 N 
HETATM   18  C1  UNL     1      14.188  26.853  23.281  1.00  0.00     0.148 A 
ATOM     19  H2  UNL     1      12.380  26.890  22.317  1.00  0.00     0.167 HD
HETATM   20  N1  UNL     1      14.246  25.439  23.273  1.00  0.00    -0.080 NA
HETATM   21  N4  UNL     1      16.333  27.354  24.438  1.00  0.00    -0.346 N 
HETATM   22  C5  UNL     1      16.933  28.524  24.788  1.00  0.00     0.188 A 
ATOM     23  H4  UNL     1      16.700  26.418  24.609  1.00  0.00     0.167 HD
ENDBRANCH   8  11
BRANCH   9  24
HETATM   24  O15 UNL     1      18.407  31.316  23.256  1.00  0.00    -0.388 OA
ATOM     25  H15 UNL     1      18.717  31.401  22.362  1.00  0.00     0.210 HD
ENDBRANCH   9  24
BRANCH  10  26
HETATM   26  O14 UNL     1      17.890  33.543  24.351  1.00  0.00    -0.390 OA
ATOM     27  H14 UNL     1      18.185  32.870  24.953  1.00  0.00     0.210 HD
ENDBRANCH  10  26
ENDBRANCH   5   6
ENDBRANCH   4   5
ENDBRANCH   1   4
BRANCH   1  28
HETATM   28  O5  UNL     1      11.051  33.469  23.344  1.00  0.00    -0.180 OA
BRANCH  28  29
HETATM   29  P2  UNL     1      10.087  34.587  24.150  1.00  0.00     0.417 P 
HETATM   30  O6  UNL     1       9.883  35.836  23.317  1.00  0.00    -0.624 OA
HETATM   31  O7  UNL     1       8.539  33.958  24.461  1.00  0.00    -0.624 OA
BRANCH  29  32
HETATM   32  O8  UNL     1      10.786  34.932  25.647  1.00  0.00    -0.287 OA
BRANCH  32  33
HETATM   33  C9  UNL     1      10.668  33.811  26.446  1.00  0.00     0.216 C 
BRANCH  33  34
HETATM   34  C10 UNL     1      11.969  33.031  26.520  1.00  0.00     0.180 C 
HETATM   35  O9  UNL     1      12.447  32.991  27.842  1.00  0.00    -0.353 OA
HETATM   36  C11 UNL     1      13.415  31.983  27.748  1.00  0.00     0.259 C 
HETATM   37  C18 UNL     1      12.637  30.857  27.158  1.00  0.00     0.198 C 
HETATM   38  C19 UNL     1      11.776  31.593  26.122  1.00  0.00     0.182 C 
BRANCH  36  39
HETATM   39  N6  UNL     1      14.042  31.686  29.000  1.00  0.00    -0.336 N 
HETATM   40  C12 UNL     1      13.979  30.496  29.627  1.00  0.00     0.093 A 
HETATM   41  C13 UNL     1      14.594  30.242  30.833  1.00  0.00     0.018 A 
HETATM   42  C14 UNL     1      15.305  31.249  31.427  1.00  0.00     0.021 A 
HETATM   43  C15 UNL     1      15.390  32.493  30.802  1.00  0.00     0.056 A 
HETATM   44  C17 UNL     1      14.745  32.652  29.605  1.00  0.00     0.111 A 
BRANCH  43  45
HETATM   45  C16 UNL     1      16.146  33.568  31.428  1.00  0.00     0.210 C 
HETATM   46  O10 UNL     1      16.695  33.436  32.531  1.00  0.00    -0.644 OA
HETATM   47  O11 UNL     1      16.250  34.778  30.766  1.00  0.00    -0.644 OA
ENDBRANCH  43  45
ENDBRANCH  36  39
BRANCH  37  48
HETATM   48  O12 UNL     1      13.409  29.925  26.493  1.00  0.00    -0.388 OA
ATOM     49  H12 UNL     1      12.909  29.235  26.072  1.00  0.00     0.210 HD
ENDBRANCH  37  48
BRANCH  38  50
HETATM   50  O13 UNL     1      12.282  31.349  24.833  1.00  0.00    -0.390 OA
ATOM     51  H13 UNL     1      11.784  31.818  24.173  1.00  0.00     0.210 HD
ENDBRANCH  38  50
ENDBRANCH  33  34
ENDBRANCH  32  33
ENDBRANCH  29  32
ENDBRANCH  28  29
ENDBRANCH   1  28
TORSDOF 15
ENDMDL
