MODEL 2
REMARK VINA RESULT: -9.400936126      3.603      7.228
REMARK  15 active torsions:
REMARK  status: ('A' for Active; 'I' for Inactive)
REMARK    1  A    between atoms: N5_13  and  C6_14 
REMARK    2  A    between atoms: C7_16  and  C8_17 
REMARK    3  A    between atoms: C8_17  and  O2_18 
REMARK    4  A    between atoms: O2_18  and  P1_19 
REMARK    5  A    between atoms: P1_19  and  O5_22 
REMARK    6  A    between atoms: O5_22  and  P2_23 
REMARK    7  A    between atoms: P2_23  and  O8_26 
REMARK    8  A    between atoms: O8_26  and  C9_27 
REMARK    9  A    between atoms: C9_27  and  C10_28 
REMARK   10  A    between atoms: C11_30  and  N6_31 
REMARK   11  A    between atoms: C15_35  and  C16_36 
REMARK   12  A    between atoms: C18_40  and  O12_41 
REMARK   13  A    between atoms: C19_43  and  O13_44 
REMARK   14  A    between atoms: C20_46  and  O14_47 
REMARK   15  A    between atoms: C21_49  and  O15_50 
ROOT
HETATM    1  P1  UNL     1      10.018  28.333  25.934  1.00  0.00     0.417 P 
HETATM    2  O3  UNL     1       9.547  28.245  27.388  1.00  0.00    -0.624 OA
HETATM    3  O4  UNL     1       8.644  28.410  24.980  1.00  0.00    -0.624 OA
ENDROOT
BRANCH   1   4
HETATM    4  O2  UNL     1      10.964  29.730  25.831  1.00  0.00    -0.287 OA
BRANCH   4   5
HETATM    5  C8  UNL     1      10.270  30.788  26.378  1.00  0.00     0.216 C 
BRANCH   5   6
HETATM    6  C7  UNL     1      11.182  31.815  26.992  1.00  0.00     0.180 C 
HETATM    7  O1  UNL     1      11.707  31.422  28.212  1.00  0.00    -0.353 OA
HETATM    8  C6  UNL     1      12.917  32.104  28.357  1.00  0.00     0.262 C 
HETATM    9  C21 UNL     1      13.530  31.919  26.985  1.00  0.00     0.198 C 
HETATM   10  C20 UNL     1      12.329  32.151  26.092  1.00  0.00     0.182 C 
BRANCH   8  11
HETATM   11  N5  UNL     1      13.715  31.553  29.402  1.00  0.00    -0.297 N 
HETATM   12  C3  UNL     1      14.687  32.174  30.065  1.00  0.00     0.142 A 
HETATM   13  N3  UNL     1      15.208  33.427  29.988  1.00  0.00    -0.336 N 
HETATM   14  C4  UNL     1      15.248  31.333  31.014  1.00  0.00     0.119 A 
HETATM   15  C2  UNL     1      16.210  33.831  30.784  1.00  0.00     0.183 A 
ATOM     16  H3  UNL     1      14.825  34.080  29.304  1.00  0.00     0.168 HD
HETATM   17  N2  UNL     1      16.742  32.983  31.706  1.00  0.00    -0.339 N 
HETATM   18  C1  UNL     1      16.276  31.731  31.837  1.00  0.00     0.148 A 
ATOM     19  H2  UNL     1      17.503  33.303  32.305  1.00  0.00     0.167 HD
HETATM   20  N1  UNL     1      16.863  30.888  32.812  1.00  0.00    -0.080 NA
HETATM   21  N4  UNL     1      14.578  30.172  30.902  1.00  0.00    -0.346 N 
HETATM   22  C5  UNL     1      13.648  30.313  29.919  1.00  0.00     0.188 A 
ATOM     23  H4  UNL     1      14.741  29.331  31.456  1.00  0.00     0.167 HD
ENDBRANCH   8  11
BRANCH   9  24
HETATM   24  O15 UNL     1      14.544  32.839  26.740  1.00  0.00    -0.388 OA
ATOM     25  H15 UNL     1      15.000  32.657  25.927  1.00  0.00     0.210 HD
ENDBRANCH   9  24
BRANCH  10  26
HETATM   26  O14 UNL     1      12.286  33.505  25.800  1.00  0.00    -0.390 OA
ATOM     27  H14 UNL     1      13.053  33.732  25.288  1.00  0.00     0.210 HD
ENDBRANCH  10  26
ENDBRANCH   5   6
ENDBRANCH   4   5
ENDBRANCH   1   4
BRANCH   1  28
HETATM   28  O5  UNL     1      10.987  27.003  25.532  1.00  0.00    -0.180 OA
BRANCH  28  29
HETATM   29  P2  UNL     1      10.970  26.731  23.872  1.00  0.00     0.417 P 
HETATM   30  O6  UNL     1       9.662  26.107  23.431  1.00  0.00    -0.624 OA
HETATM   31  O7  UNL     1      11.126  28.185  23.006  1.00  0.00    -0.624 OA
BRANCH  29  32
HETATM   32  O8  UNL     1      12.298  25.772  23.464  1.00  0.00    -0.287 OA
BRANCH  32  33
HETATM   33  C9  UNL     1      12.979  26.394  22.435  1.00  0.00     0.216 C 
BRANCH  33  34
HETATM   34  C10 UNL     1      14.408  26.731  22.826  1.00  0.00     0.180 C 
HETATM   35  O9  UNL     1      14.626  28.119  22.756  1.00  0.00    -0.353 OA
HETATM   36  C11 UNL     1      15.835  28.236  23.454  1.00  0.00     0.259 C 
HETATM   37  C18 UNL     1      15.520  27.552  24.741  1.00  0.00     0.198 C 
HETATM   38  C19 UNL     1      14.696  26.353  24.253  1.00  0.00     0.182 C 
BRANCH  36  39
HETATM   39  N6  UNL     1      16.277  29.591  23.589  1.00  0.00    -0.336 N 
HETATM   40  C12 UNL     1      17.540  29.961  23.871  1.00  0.00     0.093 A 
HETATM   41  C13 UNL     1      17.934  31.276  23.995  1.00  0.00     0.018 A 
HETATM   42  C14 UNL     1      16.996  32.256  23.824  1.00  0.00     0.021 A 
HETATM   43  C15 UNL     1      15.678  31.905  23.530  1.00  0.00     0.056 A 
HETATM   44  C17 UNL     1      15.381  30.573  23.426  1.00  0.00     0.111 A 
BRANCH  43  45
HETATM   45  C16 UNL     1      14.676  32.943  23.346  1.00  0.00     0.210 C 
HETATM   46  O10 UNL     1      14.622  33.948  24.070  1.00  0.00    -0.644 OA
HETATM   47  O11 UNL     1      13.751  32.799  22.327  1.00  0.00    -0.644 OA
ENDBRANCH  43  45
ENDBRANCH  36  39
BRANCH  37  48
HETATM   48  O12 UNL     1      16.629  27.071  25.409  1.00  0.00    -0.388 OA
ATOM     49  H12 UNL     1      16.571  27.138  26.356  1.00  0.00     0.210 HD
ENDBRANCH  37  48
BRANCH  38  50
HETATM   50  O13 UNL     1      15.478  25.187  24.323  1.00  0.00    -0.390 OA
ATOM     51  H13 UNL     1      16.252  25.322  24.858  1.00  0.00     0.210 HD
ENDBRANCH  38  50
ENDBRANCH  33  34
ENDBRANCH  32  33
ENDBRANCH  29  32
ENDBRANCH  28  29
ENDBRANCH   1  28
TORSDOF 15
ENDMDL
