MODEL 1
REMARK VINA RESULT: -9.668821519      0.000      0.000
REMARK  15 active torsions:
REMARK  status: ('A' for Active; 'I' for Inactive)
REMARK    1  A    between atoms: N5_13  and  C6_14 
REMARK    2  A    between atoms: C7_16  and  C8_17 
REMARK    3  A    between atoms: C8_17  and  O2_18 
REMARK    4  A    between atoms: O2_18  and  P1_19 
REMARK    5  A    between atoms: P1_19  and  O5_22 
REMARK    6  A    between atoms: O5_22  and  P2_23 
REMARK    7  A    between atoms: P2_23  and  O8_26 
REMARK    8  A    between atoms: O8_26  and  C9_27 
REMARK    9  A    between atoms: C9_27  and  C10_28 
REMARK   10  A    between atoms: C11_30  and  N6_31 
REMARK   11  A    between atoms: C15_35  and  C16_36 
REMARK   12  A    between atoms: C18_40  and  O12_41 
REMARK   13  A    between atoms: C19_43  and  O13_44 
REMARK   14  A    between atoms: C20_46  and  O14_47 
REMARK   15  A    between atoms: C21_49  and  O15_50 
ROOT
HETATM    1  P1  UNL     1      10.203  33.452  26.540  1.00  0.00     0.417 P 
HETATM    2  O3  UNL     1       9.070  34.342  27.057  1.00  0.00    -0.624 OA
HETATM    3  O4  UNL     1      11.641  34.214  26.937  1.00  0.00    -0.624 OA
ENDROOT
BRANCH   1   4
HETATM    4  O2  UNL     1      10.019  31.960  27.314  1.00  0.00    -0.287 OA
BRANCH   4   5
HETATM    5  C8  UNL     1      11.033  31.115  26.915  1.00  0.00     0.216 C 
BRANCH   5   6
HETATM    6  C7  UNL     1      10.521  29.938  26.130  1.00  0.00     0.180 C 
HETATM    7  O1  UNL     1      10.866  29.982  24.790  1.00  0.00    -0.353 OA
HETATM    8  C6  UNL     1      10.892  28.657  24.347  1.00  0.00     0.262 C 
HETATM    9  C21 UNL     1      11.644  27.981  25.473  1.00  0.00     0.198 C 
HETATM   10  C20 UNL     1      11.017  28.640  26.684  1.00  0.00     0.182 C 
BRANCH   8  11
HETATM   11  N5  UNL     1      11.545  28.530  23.086  1.00  0.00    -0.297 N 
HETATM   12  C3  UNL     1      11.517  29.410  22.089  1.00  0.00     0.142 A 
HETATM   13  N3  UNL     1      10.916  30.619  21.937  1.00  0.00    -0.336 N 
HETATM   14  C4  UNL     1      12.266  28.956  21.013  1.00  0.00     0.119 A 
HETATM   15  C2  UNL     1      11.039  31.338  20.810  1.00  0.00     0.183 A 
ATOM     16  H3  UNL     1      10.356  30.993  22.703  1.00  0.00     0.168 HD
HETATM   17  N2  UNL     1      11.780  30.867  19.770  1.00  0.00    -0.339 N 
HETATM   18  C1  UNL     1      12.401  29.680  19.851  1.00  0.00     0.148 A 
ATOM     19  H2  UNL     1      11.865  31.424  18.919  1.00  0.00     0.167 HD
HETATM   20  N1  UNL     1      13.160  29.235  18.743  1.00  0.00    -0.080 NA
HETATM   21  N4  UNL     1      12.752  27.762  21.396  1.00  0.00    -0.346 N 
HETATM   22  C5  UNL     1      12.309  27.509  22.658  1.00  0.00     0.188 A 
ATOM     23  H4  UNL     1      13.348  27.151  20.837  1.00  0.00     0.167 HD
ENDBRANCH   8  11
BRANCH   9  24
HETATM   24  O15 UNL     1      11.451  26.604  25.474  1.00  0.00    -0.388 OA
ATOM     25  H15 UNL     1      10.601  26.365  25.825  1.00  0.00     0.210 HD
ENDBRANCH   9  24
BRANCH  10  26
HETATM   26  O14 UNL     1       9.928  27.868  27.058  1.00  0.00    -0.390 OA
ATOM     27  H14 UNL     1      10.188  26.954  27.061  1.00  0.00     0.210 HD
ENDBRANCH  10  26
ENDBRANCH   5   6
ENDBRANCH   4   5
ENDBRANCH   1   4
BRANCH   1  28
HETATM   28  O5  UNL     1      10.063  33.208  24.870  1.00  0.00    -0.180 OA
BRANCH  28  29
HETATM   29  P2  UNL     1      10.808  34.453  24.019  1.00  0.00     0.417 P 
HETATM   30  O6  UNL     1      10.368  34.467  22.570  1.00  0.00    -0.624 OA
HETATM   31  O7  UNL     1      10.398  35.972  24.662  1.00  0.00    -0.624 OA
BRANCH  29  32
HETATM   32  O8  UNL     1      12.482  34.292  24.171  1.00  0.00    -0.287 OA
BRANCH  32  33
HETATM   33  C9  UNL     1      12.829  33.013  23.780  1.00  0.00     0.216 C 
BRANCH  33  34
HETATM   34  C10 UNL     1      14.223  32.637  24.253  1.00  0.00     0.180 C 
HETATM   35  O9  UNL     1      14.287  31.265  24.558  1.00  0.00    -0.353 OA
HETATM   36  C11 UNL     1      15.672  31.072  24.635  1.00  0.00     0.259 C 
HETATM   37  C18 UNL     1      16.136  31.611  23.324  1.00  0.00     0.198 C 
HETATM   38  C19 UNL     1      15.251  32.856  23.178  1.00  0.00     0.182 C 
BRANCH  36  39
HETATM   39  N6  UNL     1      16.038  29.712  24.886  1.00  0.00    -0.336 N 
HETATM   40  C12 UNL     1      16.661  29.276  25.997  1.00  0.00     0.093 A 
HETATM   41  C13 UNL     1      17.001  27.957  26.208  1.00  0.00     0.018 A 
HETATM   42  C14 UNL     1      16.690  27.042  25.241  1.00  0.00     0.021 A 
HETATM   43  C15 UNL     1      16.044  27.461  24.078  1.00  0.00     0.056 A 
HETATM   44  C17 UNL     1      15.747  28.792  23.957  1.00  0.00     0.111 A 
BRANCH  43  45
HETATM   45  C16 UNL     1      15.710  26.492  23.046  1.00  0.00     0.210 C 
HETATM   46  O10 UNL     1      15.331  25.343  23.314  1.00  0.00    -0.644 OA
HETATM   47  O11 UNL     1      15.822  26.870  21.719  1.00  0.00    -0.644 OA
ENDBRANCH  43  45
ENDBRANCH  36  39
BRANCH  37  48
HETATM   48  O12 UNL     1      17.456  32.016  23.316  1.00  0.00    -0.388 OA
ATOM     49  H12 UNL     1      17.882  31.937  22.470  1.00  0.00     0.210 HD
ENDBRANCH  37  48
BRANCH  38  50
HETATM   50  O13 UNL     1      16.017  34.008  23.432  1.00  0.00    -0.390 OA
ATOM     51  H13 UNL     1      16.163  34.507  22.636  1.00  0.00     0.210 HD
ENDBRANCH  38  50
ENDBRANCH  33  34
ENDBRANCH  32  33
ENDBRANCH  29  32
ENDBRANCH  28  29
ENDBRANCH   1  28
TORSDOF 15
ENDMDL
