MODEL 2
REMARK VINA RESULT: -4.599870302      1.723      2.463
REMARK  6 active torsions:
REMARK  status: ('A' for Active; 'I' for Inactive)
REMARK    1  A    between atoms: C1_2  and  C2_4 
REMARK    2  A    between atoms: C2_4  and  C3_5 
REMARK    3  A    between atoms: C3_5  and  O3_6 
REMARK    4  A    between atoms: C3_5  and  C4_8 
REMARK    5  A    between atoms: C3_5  and  C6_12 
REMARK    6  A    between atoms: C4_8  and  C5_9 
ROOT
HETATM    1  C3  UNL     1       6.707  26.552  23.110  1.00  0.00     0.164 C 
ENDROOT
BRANCH   1   2
HETATM    2  C2  UNL     1       5.876  26.139  24.264  1.00  0.00     0.163 C 
BRANCH   2   3
HETATM    3  C1  UNL     1       5.194  27.212  25.005  1.00  0.00     0.176 C 
HETATM    4  O1  UNL     1       4.030  27.531  24.667  1.00  0.00    -0.648 OA
HETATM    5  O2  UNL     1       5.741  27.915  26.068  1.00  0.00    -0.648 OA
ENDBRANCH   2   3
ENDBRANCH   1   2
BRANCH   1   6
HETATM    6  O3  UNL     1       7.829  25.719  23.064  1.00  0.00    -0.378 OA
ATOM      7  H3  UNL     1       8.157  25.715  22.172  1.00  0.00     0.211 HD
ENDBRANCH   1   6
BRANCH   1   8
HETATM    8  C4  UNL     1       7.125  27.976  23.040  1.00  0.00     0.163 C 
BRANCH   8   9
HETATM    9  C5  UNL     1       8.584  28.209  23.023  1.00  0.00     0.176 C 
HETATM   10  O4  UNL     1       9.184  28.454  24.088  1.00  0.00    -0.648 OA
HETATM   11  O5  UNL     1       9.233  28.146  21.800  1.00  0.00    -0.648 OA
ENDBRANCH   8   9
ENDBRANCH   1   8
BRANCH   1  12
HETATM   12  C6  UNL     1       5.905  26.289  21.885  1.00  0.00     0.210 C 
HETATM   13  O6  UNL     1       6.369  26.656  20.787  1.00  0.00    -0.646 OA
HETATM   14  O7  UNL     1       4.683  25.661  21.934  1.00  0.00    -0.646 OA
ENDBRANCH   1  12
TORSDOF 6
ENDMDL
