MODEL 1
REMARK VINA RESULT: -4.757230075      0.000      0.000
REMARK  6 active torsions:
REMARK  status: ('A' for Active; 'I' for Inactive)
REMARK    1  A    between atoms: C1_2  and  C2_4 
REMARK    2  A    between atoms: C2_4  and  C3_5 
REMARK    3  A    between atoms: C3_5  and  O3_6 
REMARK    4  A    between atoms: C3_5  and  C4_8 
REMARK    5  A    between atoms: C3_5  and  C6_12 
REMARK    6  A    between atoms: C4_8  and  C5_9 
ROOT
HETATM    1  C3  UNL     1       6.538  26.473  23.354  1.00  0.00     0.164 C 
ENDROOT
BRANCH   1   2
HETATM    2  C2  UNL     1       5.324  26.069  22.611  1.00  0.00     0.163 C 
BRANCH   2   3
HETATM    3  C1  UNL     1       4.087  25.918  23.396  1.00  0.00     0.176 C 
HETATM    4  O1  UNL     1       3.531  24.795  23.430  1.00  0.00    -0.648 OA
HETATM    5  O2  UNL     1       3.474  26.932  24.115  1.00  0.00    -0.648 OA
ENDBRANCH   2   3
ENDBRANCH   1   2
BRANCH   1   6
HETATM    6  O3  UNL     1       6.139  26.983  24.594  1.00  0.00    -0.378 OA
ATOM      7  H3  UNL     1       5.254  27.315  24.505  1.00  0.00     0.211 HD
ENDBRANCH   1   6
BRANCH   1   8
HETATM    8  C4  UNL     1       7.468  27.421  22.687  1.00  0.00     0.163 C 
BRANCH   8   9
HETATM    9  C5  UNL     1       7.854  28.602  23.488  1.00  0.00     0.176 C 
HETATM   10  O4  UNL     1       7.051  29.544  23.626  1.00  0.00    -0.648 OA
HETATM   11  O5  UNL     1       9.116  28.608  24.061  1.00  0.00    -0.648 OA
ENDBRANCH   8   9
ENDBRANCH   1   8
BRANCH   1  12
HETATM   12  C6  UNL     1       7.318  25.232  23.611  1.00  0.00     0.210 C 
HETATM   13  O6  UNL     1       8.549  25.336  23.783  1.00  0.00    -0.646 OA
HETATM   14  O7  UNL     1       6.723  23.994  23.664  1.00  0.00    -0.646 OA
ENDBRANCH   1  12
TORSDOF 6
ENDMDL
