MODEL 4
REMARK VINA RESULT: -7.413032249      0.844      8.856
REMARK  5 active torsions:
REMARK  status: ('A' for Active; 'I' for Inactive)
REMARK    1  A    between atoms: C1_2  and  C2_6 
REMARK    2  A    between atoms: C6_12  and  C7_13 
REMARK    3  A    between atoms: C7_13  and  C8_14 
REMARK    4  A    between atoms: C12_20  and  C13_21 
REMARK    5  A    between atoms: C13_21  and  N6_23 
ROOT
HETATM    1  C7  UNL     1      40.702  -1.519  31.595  1.00  0.00     0.152 C 
ENDROOT
BRANCH   1   2
HETATM    2  C6  UNL     1      41.498  -1.658  30.346  1.00  0.00     0.089 A 
HETATM    3  N3  UNL     1      42.356  -0.763  29.865  1.00  0.00    -0.344 N 
HETATM    4  C5  UNL     1      42.923  -1.180  28.712  1.00  0.00     0.060 A 
ATOM      5  H3  UNL     1      42.560   0.130  30.312  1.00  0.00     0.167 HD
HETATM    6  C4  UNL     1      43.848  -0.640  27.839  1.00  0.00     0.033 A 
HETATM    7  C16 UNL     1      42.363  -2.423  28.477  1.00  0.00     0.061 A 
HETATM    8  C3  UNL     1      44.196  -1.399  26.715  1.00  0.00     0.017 A 
HETATM    9  C2  UNL     1      43.678  -2.624  26.436  1.00  0.00     0.007 A 
HETATM   10  C17 UNL     1      42.745  -3.120  27.356  1.00  0.00     0.046 A 
HETATM   11  N8  UNL     1      41.505  -2.694  29.475  1.00  0.00    -0.344 N 
ATOM     12  H8  UNL     1      40.948  -3.543  29.563  1.00  0.00     0.167 HD
BRANCH   9  13
HETATM   13  C1  UNL     1      44.042  -3.409  25.265  1.00  0.00     0.120 C 
HETATM   14  N1  UNL     1      44.303  -2.722  24.038  1.00  0.00    -0.082 NA
HETATM   15  N2  UNL     1      44.140  -4.675  25.274  1.00  0.00    -0.387 N 
ATOM     16  H22 UNL     1      44.395  -5.226  24.454  1.00  0.00     0.157 HD
ATOM     17  H21 UNL     1      43.954  -5.166  26.150  1.00  0.00     0.157 HD
ENDBRANCH   9  13
ENDBRANCH   1   2
BRANCH   1  18
HETATM   18  C8  UNL     1      41.519  -0.999  32.706  1.00  0.00     0.089 A 
HETATM   19  N4  UNL     1      42.222  -1.743  33.576  1.00  0.00    -0.344 N 
HETATM   20  C9  UNL     1      42.845  -0.936  34.454  1.00  0.00     0.060 A 
ATOM     21  H4  UNL     1      42.276  -2.761  33.572  1.00  0.00     0.167 HD
HETATM   22  C10 UNL     1      43.668  -1.254  35.511  1.00  0.00     0.033 A 
HETATM   23  C15 UNL     1      42.525   0.349  34.127  1.00  0.00     0.061 A 
HETATM   24  C11 UNL     1      44.166  -0.196  36.243  1.00  0.00     0.017 A 
HETATM   25  C12 UNL     1      43.866   1.117  35.945  1.00  0.00     0.007 A 
HETATM   26  C14 UNL     1      43.043   1.381  34.883  1.00  0.00     0.046 A 
HETATM   27  N7  UNL     1      41.709   0.280  33.050  1.00  0.00    -0.344 N 
ATOM     28  H7  UNL     1      41.300   1.083  32.572  1.00  0.00     0.167 HD
BRANCH  25  29
HETATM   29  C13 UNL     1      44.431   2.178  36.765  1.00  0.00     0.120 C 
HETATM   30  N5  UNL     1      43.797   2.549  38.005  1.00  0.00    -0.082 NA
BRANCH  29  31
HETATM   31  N6  UNL     1      45.487   2.815  36.435  1.00  0.00    -0.387 N 
ATOM     32  H62 UNL     1      45.664   2.942  35.439  1.00  0.00     0.157 HD
ATOM     33  H61 UNL     1      46.141   3.189  37.123  1.00  0.00     0.157 HD
ENDBRANCH  29  31
ENDBRANCH  25  29
ENDBRANCH   1  18
TORSDOF 5
ENDMDL
