MODEL 5
REMARK VINA RESULT: -7.321110373      3.602      8.914
REMARK  5 active torsions:
REMARK  status: ('A' for Active; 'I' for Inactive)
REMARK    1  A    between atoms: C1_2  and  C2_6 
REMARK    2  A    between atoms: C6_12  and  C7_13 
REMARK    3  A    between atoms: C7_13  and  C8_14 
REMARK    4  A    between atoms: C12_20  and  C13_21 
REMARK    5  A    between atoms: C13_21  and  N6_23 
ROOT
HETATM    1  C7  UNL     1      39.380  -3.017  31.556  1.00  0.00     0.152 C 
ENDROOT
BRANCH   1   2
HETATM    2  C6  UNL     1      40.411  -2.790  30.506  1.00  0.00     0.089 A 
HETATM    3  N3  UNL     1      41.245  -1.757  30.444  1.00  0.00    -0.344 N 
HETATM    4  C5  UNL     1      42.063  -1.835  29.371  1.00  0.00     0.060 A 
ATOM      5  H3  UNL     1      41.265  -0.997  31.124  1.00  0.00     0.167 HD
HETATM    6  C4  UNL     1      43.076  -1.041  28.868  1.00  0.00     0.033 A 
HETATM    7  C16 UNL     1      41.692  -3.006  28.735  1.00  0.00     0.061 A 
HETATM    8  C3  UNL     1      43.710  -1.469  27.695  1.00  0.00     0.017 A 
HETATM    9  C2  UNL     1      43.387  -2.609  27.030  1.00  0.00     0.007 A 
HETATM   10  C17 UNL     1      42.353  -3.373  27.587  1.00  0.00     0.046 A 
HETATM   11  N8  UNL     1      40.693  -3.568  29.436  1.00  0.00    -0.344 N 
ATOM     12  H8  UNL     1      40.223  -4.442  29.199  1.00  0.00     0.167 HD
BRANCH   9  13
HETATM   13  C1  UNL     1      44.049  -3.050  25.810  1.00  0.00     0.120 C 
HETATM   14  N1  UNL     1      44.479  -2.059  24.873  1.00  0.00    -0.082 NA
HETATM   15  N2  UNL     1      44.264  -4.271  25.533  1.00  0.00    -0.387 N 
ATOM     16  H22 UNL     1      44.728  -4.580  24.678  1.00  0.00     0.157 HD
ATOM     17  H21 UNL     1      43.957  -4.978  26.201  1.00  0.00     0.157 HD
ENDBRANCH   9  13
ENDBRANCH   1   2
BRANCH   1  18
HETATM   18  C8  UNL     1      38.887  -1.748  32.118  1.00  0.00     0.089 A 
HETATM   19  N4  UNL     1      37.710  -1.167  31.830  1.00  0.00    -0.344 N 
HETATM   20  C9  UNL     1      37.593  -0.022  32.525  1.00  0.00     0.060 A 
ATOM     21  H4  UNL     1      37.013  -1.538  31.184  1.00  0.00     0.167 HD
HETATM   22  C10 UNL     1      36.564   0.893  32.545  1.00  0.00     0.033 A 
HETATM   23  C15 UNL     1      38.726   0.122  33.271  1.00  0.00     0.061 A 
HETATM   24  C11 UNL     1      36.731   1.987  33.370  1.00  0.00     0.017 A 
HETATM   25  C12 UNL     1      37.861   2.169  34.139  1.00  0.00     0.007 A 
HETATM   26  C14 UNL     1      38.856   1.229  34.084  1.00  0.00     0.046 A 
HETATM   27  N7  UNL     1      39.503  -0.953  33.001  1.00  0.00    -0.344 N 
ATOM     28  H7  UNL     1      40.421  -1.130  33.409  1.00  0.00     0.167 HD
BRANCH  25  29
HETATM   29  C13 UNL     1      37.963   3.350  34.984  1.00  0.00     0.120 C 
HETATM   30  N5  UNL     1      36.894   4.317  35.005  1.00  0.00    -0.082 NA
BRANCH  29  31
HETATM   31  N6  UNL     1      38.974   3.580  35.727  1.00  0.00    -0.387 N 
ATOM     32  H62 UNL     1      39.794   2.987  35.598  1.00  0.00     0.157 HD
ATOM     33  H61 UNL     1      38.984   4.321  36.428  1.00  0.00     0.157 HD
ENDBRANCH  29  31
ENDBRANCH  25  29
ENDBRANCH   1  18
TORSDOF 5
ENDMDL
