MODEL 1
REMARK VINA RESULT: -7.594530564      0.000      0.000
REMARK  5 active torsions:
REMARK  status: ('A' for Active; 'I' for Inactive)
REMARK    1  A    between atoms: C1_2  and  C2_6 
REMARK    2  A    between atoms: C6_12  and  C7_13 
REMARK    3  A    between atoms: C7_13  and  C8_14 
REMARK    4  A    between atoms: C12_20  and  C13_21 
REMARK    5  A    between atoms: C13_21  and  N6_23 
ROOT
HETATM    1  C7  UNL     1      40.712  -1.453  31.601  1.00  0.00     0.152 C 
ENDROOT
BRANCH   1   2
HETATM    2  C6  UNL     1      41.484  -0.712  32.635  1.00  0.00     0.089 A 
HETATM    3  N3  UNL     1      41.026   0.292  33.378  1.00  0.00    -0.344 N 
HETATM    4  C5  UNL     1      41.967   0.758  34.228  1.00  0.00     0.060 A 
ATOM      5  H3  UNL     1      40.080   0.665  33.313  1.00  0.00     0.167 HD
HETATM    6  C4  UNL     1      41.999   1.757  35.181  1.00  0.00     0.033 A 
HETATM    7  C16 UNL     1      43.081  -0.025  33.978  1.00  0.00     0.061 A 
HETATM    8  C3  UNL     1      43.197   1.945  35.881  1.00  0.00     0.017 A 
HETATM    9  C2  UNL     1      44.320   1.206  35.677  1.00  0.00     0.007 A 
HETATM   10  C17 UNL     1      44.228   0.207  34.699  1.00  0.00     0.046 A 
HETATM   11  N8  UNL     1      42.768  -0.906  33.013  1.00  0.00    -0.344 N 
ATOM     12  H8  UNL     1      43.398  -1.609  32.627  1.00  0.00     0.167 HD
BRANCH   9  13
HETATM   13  C1  UNL     1      45.564   1.405  36.408  1.00  0.00     0.120 C 
HETATM   14  N1  UNL     1      45.524   2.140  37.633  1.00  0.00    -0.082 NA
HETATM   15  N2  UNL     1      46.686   0.959  36.013  1.00  0.00    -0.387 N 
ATOM     16  H22 UNL     1      47.557   1.098  36.524  1.00  0.00     0.157 HD
ATOM     17  H21 UNL     1      46.714   0.434  35.138  1.00  0.00     0.157 HD
ENDBRANCH   9  13
ENDBRANCH   1   2
BRANCH   1  18
HETATM   18  C8  UNL     1      41.486  -1.618  30.358  1.00  0.00     0.089 A 
HETATM   19  N4  UNL     1      42.331  -0.713  29.835  1.00  0.00    -0.344 N 
HETATM   20  C9  UNL     1      42.860  -1.200  28.698  1.00  0.00     0.060 A 
ATOM     21  H4  UNL     1      42.539   0.200  30.238  1.00  0.00     0.167 HD
HETATM   22  C10 UNL     1      43.765  -0.626  27.833  1.00  0.00     0.033 A 
HETATM   23  C15 UNL     1      42.335  -2.443  28.501  1.00  0.00     0.061 A 
HETATM   24  C11 UNL     1      44.127  -1.379  26.735  1.00  0.00     0.017 A 
HETATM   25  C12 UNL     1      43.619  -2.638  26.500  1.00  0.00     0.007 A 
HETATM   26  C14 UNL     1      42.721  -3.165  27.390  1.00  0.00     0.046 A 
HETATM   27  N7  UNL     1      41.494  -2.674  29.536  1.00  0.00    -0.344 N 
ATOM     28  H7  UNL     1      40.948  -3.525  29.670  1.00  0.00     0.167 HD
BRANCH  25  29
HETATM   29  C13 UNL     1      44.050  -3.369  25.317  1.00  0.00     0.120 C 
HETATM   30  N5  UNL     1      44.312  -2.664  24.088  1.00  0.00    -0.082 NA
BRANCH  29  31
HETATM   31  N6  UNL     1      44.213  -4.635  25.311  1.00  0.00    -0.387 N 
ATOM     32  H62 UNL     1      45.132  -4.989  25.575  1.00  0.00     0.157 HD
ATOM     33  H61 UNL     1      43.468  -5.284  25.056  1.00  0.00     0.157 HD
ENDBRANCH  29  31
ENDBRANCH  25  29
ENDBRANCH   1  18
TORSDOF 5
ENDMDL
