MODEL 6
REMARK VINA RESULT: -7.275692960      6.625      9.975
REMARK  5 active torsions:
REMARK  status: ('A' for Active; 'I' for Inactive)
REMARK    1  A    between atoms: C1_2  and  C2_6 
REMARK    2  A    between atoms: C6_12  and  C7_13 
REMARK    3  A    between atoms: C7_13  and  C8_14 
REMARK    4  A    between atoms: C12_20  and  C13_21 
REMARK    5  A    between atoms: C13_21  and  N6_23 
ROOT
HETATM    1  C7  UNL     1      46.128   0.252  34.920  1.00  0.00     0.152 C 
ENDROOT
BRANCH   1   2
HETATM    2  C6  UNL     1      47.342  -0.184  35.663  1.00  0.00     0.089 A 
HETATM    3  N3  UNL     1      47.368  -1.048  36.674  1.00  0.00    -0.344 N 
HETATM    4  C5  UNL     1      48.621  -1.239  37.139  1.00  0.00     0.060 A 
ATOM      5  H3  UNL     1      46.541  -1.509  37.052  1.00  0.00     0.167 HD
HETATM    6  C4  UNL     1      49.172  -2.010  38.145  1.00  0.00     0.033 A 
HETATM    7  C16 UNL     1      49.415  -0.427  36.348  1.00  0.00     0.061 A 
HETATM    8  C3  UNL     1      50.558  -1.938  38.329  1.00  0.00     0.017 A 
HETATM    9  C2  UNL     1      51.384  -1.158  37.583  1.00  0.00     0.007 A 
HETATM   10  C17 UNL     1      50.770  -0.399  36.578  1.00  0.00     0.046 A 
HETATM   11  N8  UNL     1      48.623   0.202  35.463  1.00  0.00    -0.344 N 
ATOM     12  H8  UNL     1      48.937   0.864  34.754  1.00  0.00     0.167 HD
BRANCH   9  13
HETATM   13  C1  UNL     1      52.825  -1.086  37.779  1.00  0.00     0.120 C 
HETATM   14  N1  UNL     1      53.491  -2.210  38.359  1.00  0.00    -0.082 NA
HETATM   15  N2  UNL     1      53.524  -0.074  37.462  1.00  0.00    -0.387 N 
ATOM     16  H22 UNL     1      54.534  -0.022  37.599  1.00  0.00     0.157 HD
ATOM     17  H21 UNL     1      53.049   0.729  37.048  1.00  0.00     0.157 HD
ENDBRANCH   9  13
ENDBRANCH   1   2
BRANCH   1  18
HETATM   18  C8  UNL     1      45.354   1.249  35.678  1.00  0.00     0.089 A 
HETATM   19  N4  UNL     1      45.859   2.127  36.562  1.00  0.00    -0.344 N 
HETATM   20  C9  UNL     1      44.864   2.881  37.062  1.00  0.00     0.060 A 
ATOM     21  H4  UNL     1      46.844   2.208  36.814  1.00  0.00     0.167 HD
HETATM   22  C10 UNL     1      44.912   3.899  37.988  1.00  0.00     0.033 A 
HETATM   23  C15 UNL     1      43.703   2.468  36.477  1.00  0.00     0.061 A 
HETATM   24  C11 UNL     1      43.710   4.497  38.308  1.00  0.00     0.017 A 
HETATM   25  C12 UNL     1      42.516   4.108  37.739  1.00  0.00     0.007 A 
HETATM   26  C14 UNL     1      42.521   3.090  36.823  1.00  0.00     0.046 A 
HETATM   27  N7  UNL     1      44.034   1.464  35.632  1.00  0.00    -0.344 N 
ATOM     28  H7  UNL     1      43.376   0.949  35.048  1.00  0.00     0.167 HD
BRANCH  25  29
HETATM   29  C13 UNL     1      41.289   4.788  38.129  1.00  0.00     0.120 C 
HETATM   30  N5  UNL     1      40.679   4.503  39.404  1.00  0.00    -0.082 NA
BRANCH  29  31
HETATM   31  N6  UNL     1      40.710   5.645  37.382  1.00  0.00    -0.387 N 
ATOM     32  H62 UNL     1      41.071   5.759  36.435  1.00  0.00     0.157 HD
ATOM     33  H61 UNL     1      39.918   6.205  37.699  1.00  0.00     0.157 HD
ENDBRANCH  29  31
ENDBRANCH  25  29
ENDBRANCH   1  18
TORSDOF 5
ENDMDL
