MODEL 2
REMARK VINA RESULT: -7.570536677      0.318      8.712
REMARK  5 active torsions:
REMARK  status: ('A' for Active; 'I' for Inactive)
REMARK    1  A    between atoms: C1_2  and  C2_6 
REMARK    2  A    between atoms: C6_12  and  C7_13 
REMARK    3  A    between atoms: C7_13  and  C8_14 
REMARK    4  A    between atoms: C12_20  and  C13_21 
REMARK    5  A    between atoms: C13_21  and  N6_23 
ROOT
HETATM    1  C7  UNL     1      40.707  -1.520  31.617  1.00  0.00     0.152 C 
ENDROOT
BRANCH   1   2
HETATM    2  C6  UNL     1      41.498  -1.649  30.363  1.00  0.00     0.089 A 
HETATM    3  N3  UNL     1      42.326  -0.734  29.867  1.00  0.00    -0.344 N 
HETATM    4  C5  UNL     1      42.897  -1.146  28.714  1.00  0.00     0.060 A 
ATOM      5  H3  UNL     1      42.507   0.169  30.304  1.00  0.00     0.167 HD
HETATM    6  C4  UNL     1      43.801  -0.588  27.830  1.00  0.00     0.033 A 
HETATM    7  C16 UNL     1      42.373  -2.408  28.496  1.00  0.00     0.061 A 
HETATM    8  C3  UNL     1      44.163  -1.348  26.710  1.00  0.00     0.017 A 
HETATM    9  C2  UNL     1      43.679  -2.591  26.448  1.00  0.00     0.007 A 
HETATM   10  C17 UNL     1      42.767  -3.105  27.379  1.00  0.00     0.046 A 
HETATM   11  N8  UNL     1      41.530  -2.693  29.503  1.00  0.00    -0.344 N 
ATOM     12  H8  UNL     1      40.999  -3.558  29.602  1.00  0.00     0.167 HD
BRANCH   9  13
HETATM   13  C1  UNL     1      44.058  -3.377  25.282  1.00  0.00     0.120 C 
HETATM   14  N1  UNL     1      44.297  -2.694  24.048  1.00  0.00    -0.082 NA
HETATM   15  N2  UNL     1      44.188  -4.640  25.302  1.00  0.00    -0.387 N 
ATOM     16  H22 UNL     1      44.453  -5.191  24.485  1.00  0.00     0.157 HD
ATOM     17  H21 UNL     1      44.018  -5.128  26.182  1.00  0.00     0.157 HD
ENDBRANCH   9  13
ENDBRANCH   1   2
BRANCH   1  18
HETATM   18  C8  UNL     1      41.414  -0.713  32.626  1.00  0.00     0.089 A 
HETATM   19  N4  UNL     1      40.856   0.224  33.411  1.00  0.00    -0.344 N 
HETATM   20  C9  UNL     1      41.796   0.757  34.210  1.00  0.00     0.060 A 
ATOM     21  H4  UNL     1      39.871   0.490  33.402  1.00  0.00     0.167 HD
HETATM   22  C10 UNL     1      41.684   1.741  35.167  1.00  0.00     0.033 A 
HETATM   23  C15 UNL     1      42.978   0.139  33.921  1.00  0.00     0.061 A 
HETATM   24  C11 UNL     1      42.841   2.083  35.837  1.00  0.00     0.017 A 
HETATM   25  C12 UNL     1      44.054   1.482  35.573  1.00  0.00     0.007 A 
HETATM   26  C14 UNL     1      44.114   0.509  34.612  1.00  0.00     0.046 A 
HETATM   27  N7  UNL     1      42.712  -0.759  32.944  1.00  0.00    -0.344 N 
ATOM     28  H7  UNL     1      43.400  -1.378  32.514  1.00  0.00     0.167 HD
BRANCH  25  29
HETATM   29  C13 UNL     1      45.230   1.899  36.322  1.00  0.00     0.120 C 
HETATM   30  N5  UNL     1      45.170   3.060  37.175  1.00  0.00    -0.082 NA
BRANCH  29  31
HETATM   31  N6  UNL     1      46.342   1.275  36.262  1.00  0.00    -0.387 N 
ATOM     32  H62 UNL     1      46.412   0.509  35.592  1.00  0.00     0.157 HD
ATOM     33  H61 UNL     1      47.140   1.515  36.851  1.00  0.00     0.157 HD
ENDBRANCH  29  31
ENDBRANCH  25  29
ENDBRANCH   1  18
TORSDOF 5
ENDMDL
