MODEL 7
REMARK VINA RESULT: -7.231593433      6.623      9.437
REMARK  5 active torsions:
REMARK  status: ('A' for Active; 'I' for Inactive)
REMARK    1  A    between atoms: C1_2  and  C2_6 
REMARK    2  A    between atoms: C6_12  and  C7_13 
REMARK    3  A    between atoms: C7_13  and  C8_14 
REMARK    4  A    between atoms: C12_20  and  C13_21 
REMARK    5  A    between atoms: C13_21  and  N6_23 
ROOT
HETATM    1  C7  UNL     1      46.099   0.208  34.936  1.00  0.00     0.152 C 
ENDROOT
BRANCH   1   2
HETATM    2  C6  UNL     1      45.330   1.229  35.697  1.00  0.00     0.089 A 
HETATM    3  N3  UNL     1      45.835   2.092  36.573  1.00  0.00    -0.344 N 
HETATM    4  C5  UNL     1      44.881   2.893  37.098  1.00  0.00     0.060 A 
ATOM      5  H3  UNL     1      46.823   2.143  36.820  1.00  0.00     0.167 HD
HETATM    6  C4  UNL     1      44.883   3.921  38.020  1.00  0.00     0.033 A 
HETATM    7  C16 UNL     1      43.708   2.480  36.491  1.00  0.00     0.061 A 
HETATM    8  C3  UNL     1      43.655   4.527  38.315  1.00  0.00     0.017 A 
HETATM    9  C2  UNL     1      42.473   4.162  37.750  1.00  0.00     0.007 A 
HETATM   10  C17 UNL     1      42.534   3.114  36.822  1.00  0.00     0.046 A 
HETATM   11  N8  UNL     1      44.000   1.475  35.649  1.00  0.00    -0.344 N 
ATOM     12  H8  UNL     1      43.327   0.976  35.067  1.00  0.00     0.167 HD
BRANCH   9  13
HETATM   13  C1  UNL     1      41.199   4.794  38.060  1.00  0.00     0.120 C 
HETATM   14  N1  UNL     1      40.498   4.374  39.233  1.00  0.00    -0.082 NA
HETATM   15  N2  UNL     1      40.674   5.701  37.342  1.00  0.00    -0.387 N 
ATOM     16  H22 UNL     1      39.782   6.144  37.559  1.00  0.00     0.157 HD
ATOM     17  H21 UNL     1      41.175   6.002  36.505  1.00  0.00     0.157 HD
ENDBRANCH   9  13
ENDBRANCH   1   2
BRANCH   1  18
HETATM   18  C8  UNL     1      47.315  -0.207  35.658  1.00  0.00     0.089 A 
HETATM   19  N4  UNL     1      47.361  -1.079  36.679  1.00  0.00    -0.344 N 
HETATM   20  C9  UNL     1      48.634  -1.218  37.091  1.00  0.00     0.060 A 
ATOM     21  H4  UNL     1      46.556  -1.562  37.078  1.00  0.00     0.167 HD
HETATM   22  C10 UNL     1      49.151  -2.000  38.100  1.00  0.00     0.033 A 
HETATM   23  C15 UNL     1      49.408  -0.412  36.309  1.00  0.00     0.061 A 
HETATM   24  C11 UNL     1      50.516  -1.933  38.291  1.00  0.00     0.017 A 
HETATM   25  C12 UNL     1      51.333  -1.131  37.522  1.00  0.00     0.007 A 
HETATM   26  C14 UNL     1      50.770  -0.372  36.531  1.00  0.00     0.046 A 
HETATM   27  N7  UNL     1      48.571   0.197  35.437  1.00  0.00    -0.344 N 
ATOM     28  H7  UNL     1      48.856   0.864  34.720  1.00  0.00     0.167 HD
BRANCH  25  29
HETATM   29  C13 UNL     1      52.764  -1.115  37.786  1.00  0.00     0.120 C 
HETATM   30  N5  UNL     1      53.400  -2.258  38.392  1.00  0.00    -0.082 NA
BRANCH  29  31
HETATM   31  N6  UNL     1      53.505  -0.116  37.503  1.00  0.00    -0.387 N 
ATOM     32  H62 UNL     1      54.204  -0.245  36.770  1.00  0.00     0.157 HD
ATOM     33  H61 UNL     1      53.421   0.784  37.977  1.00  0.00     0.157 HD
ENDBRANCH  29  31
ENDBRANCH  25  29
ENDBRANCH   1  18
TORSDOF 5
ENDMDL
