MODEL 3
REMARK VINA RESULT: -7.539192599      0.841      1.610
REMARK  5 active torsions:
REMARK  status: ('A' for Active; 'I' for Inactive)
REMARK    1  A    between atoms: C1_2  and  C2_6 
REMARK    2  A    between atoms: C6_12  and  C7_13 
REMARK    3  A    between atoms: C7_13  and  C8_14 
REMARK    4  A    between atoms: C12_20  and  C13_21 
REMARK    5  A    between atoms: C13_21  and  N6_23 
ROOT
HETATM    1  C7  UNL     1      40.993  -1.413  31.667  1.00  0.00     0.152 C 
ENDROOT
BRANCH   1   2
HETATM    2  C6  UNL     1      41.807  -0.643  32.646  1.00  0.00     0.089 A 
HETATM    3  N3  UNL     1      43.049  -0.930  33.023  1.00  0.00    -0.344 N 
HETATM    4  C5  UNL     1      43.518  -0.042  33.927  1.00  0.00     0.060 A 
ATOM      5  H3  UNL     1      43.583  -1.725  32.673  1.00  0.00     0.167 HD
HETATM    6  C4  UNL     1      44.709   0.104  34.611  1.00  0.00     0.033 A 
HETATM    7  C16 UNL     1      42.477   0.851  34.111  1.00  0.00     0.061 A 
HETATM    8  C3  UNL     1      44.821   1.187  35.492  1.00  0.00     0.017 A 
HETATM    9  C2  UNL     1      43.832   2.093  35.710  1.00  0.00     0.007 A 
HETATM   10  C17 UNL     1      42.647   1.894  34.989  1.00  0.00     0.046 A 
HETATM   11  N8  UNL     1      41.453   0.470  33.328  1.00  0.00    -0.344 N 
ATOM     12  H8  UNL     1      40.552   0.945  33.260  1.00  0.00     0.167 HD
BRANCH   9  13
HETATM   13  C1  UNL     1      43.952   3.217  36.628  1.00  0.00     0.120 C 
HETATM   14  N1  UNL     1      44.948   3.156  37.652  1.00  0.00    -0.082 NA
HETATM   15  N2  UNL     1      43.217   4.251  36.569  1.00  0.00    -0.387 N 
ATOM     16  H22 UNL     1      43.301   5.038  37.211  1.00  0.00     0.157 HD
ATOM     17  H21 UNL     1      42.506   4.294  35.838  1.00  0.00     0.157 HD
ENDBRANCH   9  13
ENDBRANCH   1   2
BRANCH   1  18
HETATM   18  C8  UNL     1      41.702  -1.587  30.387  1.00  0.00     0.089 A 
HETATM   19  N4  UNL     1      42.496  -0.676  29.801  1.00  0.00    -0.344 N 
HETATM   20  C9  UNL     1      42.973  -1.174  28.647  1.00  0.00     0.060 A 
ATOM     21  H4  UNL     1      42.706   0.250  30.174  1.00  0.00     0.167 HD
HETATM   22  C10 UNL     1      43.817  -0.599  27.722  1.00  0.00     0.033 A 
HETATM   23  C15 UNL     1      42.465  -2.431  28.502  1.00  0.00     0.061 A 
HETATM   24  C11 UNL     1      44.136  -1.366  26.620  1.00  0.00     0.017 A 
HETATM   25  C12 UNL     1      43.643  -2.641  26.438  1.00  0.00     0.007 A 
HETATM   26  C14 UNL     1      42.806  -3.167  27.386  1.00  0.00     0.046 A 
HETATM   27  N7  UNL     1      41.687  -2.659  29.586  1.00  0.00    -0.344 N 
ATOM     28  H7  UNL     1      41.168  -3.518  29.765  1.00  0.00     0.167 HD
BRANCH  25  29
HETATM   29  C13 UNL     1      44.025  -3.386  25.247  1.00  0.00     0.120 C 
HETATM   30  N5  UNL     1      44.305  -2.689  24.017  1.00  0.00    -0.082 NA
BRANCH  29  31
HETATM   31  N6  UNL     1      44.127  -4.658  25.234  1.00  0.00    -0.387 N 
ATOM     32  H62 UNL     1      43.608  -5.175  25.944  1.00  0.00     0.157 HD
ATOM     33  H61 UNL     1      44.698  -5.157  24.552  1.00  0.00     0.157 HD
ENDBRANCH  29  31
ENDBRANCH  25  29
ENDBRANCH   1  18
TORSDOF 5
ENDMDL
