MODEL 13
REMARK VINA RESULT: -6.803895500      1.400      1.810
REMARK  5 active torsions:
REMARK  status: ('A' for Active; 'I' for Inactive)
REMARK    1  A    between atoms: C1_2  and  C2_6 
REMARK    2  A    between atoms: C6_12  and  C7_13 
REMARK    3  A    between atoms: C7_13  and  C8_14 
REMARK    4  A    between atoms: C12_20  and  C13_21 
REMARK    5  A    between atoms: C13_21  and  N6_23 
ROOT
HETATM    1  C7  UNL     1      40.702  -1.334  31.510  1.00  0.00     0.152 C 
ENDROOT
BRANCH   1   2
HETATM    2  C6  UNL     1      41.558  -1.377  32.727  1.00  0.00     0.089 A 
HETATM    3  N3  UNL     1      41.639  -2.388  33.587  1.00  0.00    -0.344 N 
HETATM    4  C5  UNL     1      42.505  -2.126  34.590  1.00  0.00     0.060 A 
ATOM      5  H3  UNL     1      41.110  -3.256  33.500  1.00  0.00     0.167 HD
HETATM    6  C4  UNL     1      42.935  -2.824  35.703  1.00  0.00     0.033 A 
HETATM    7  C16 UNL     1      42.984  -0.858  34.316  1.00  0.00     0.061 A 
HETATM    8  C3  UNL     1      43.871  -2.199  36.535  1.00  0.00     0.017 A 
HETATM    9  C2  UNL     1      44.375  -0.957  36.313  1.00  0.00     0.007 A 
HETATM   10  C17 UNL     1      43.903  -0.298  35.171  1.00  0.00     0.046 A 
HETATM   11  N8  UNL     1      42.400  -0.423  33.186  1.00  0.00    -0.344 N 
ATOM     12  H8  UNL     1      42.565   0.482  32.746  1.00  0.00     0.167 HD
BRANCH   9  13
HETATM   13  C1  UNL     1      45.348  -0.310  37.183  1.00  0.00     0.120 C 
HETATM   14  N1  UNL     1      46.200  -1.135  37.982  1.00  0.00    -0.082 NA
HETATM   15  N2  UNL     1      45.481   0.950  37.270  1.00  0.00    -0.387 N 
ATOM     16  H22 UNL     1      46.162   1.403  37.878  1.00  0.00     0.157 HD
ATOM     17  H21 UNL     1      44.873   1.538  36.699  1.00  0.00     0.157 HD
ENDBRANCH   9  13
ENDBRANCH   1   2
BRANCH   1  18
HETATM   18  C8  UNL     1      41.491  -1.535  30.282  1.00  0.00     0.089 A 
HETATM   19  N4  UNL     1      42.375  -0.665  29.767  1.00  0.00    -0.344 N 
HETATM   20  C9  UNL     1      42.906  -1.178  28.643  1.00  0.00     0.060 A 
ATOM     21  H4  UNL     1      42.609   0.244  30.167  1.00  0.00     0.167 HD
HETATM   22  C10 UNL     1      43.845  -0.644  27.789  1.00  0.00     0.033 A 
HETATM   23  C15 UNL     1      42.340  -2.404  28.445  1.00  0.00     0.061 A 
HETATM   24  C11 UNL     1      44.199  -1.417  26.702  1.00  0.00     0.017 A 
HETATM   25  C12 UNL     1      43.649  -2.660  26.468  1.00  0.00     0.007 A 
HETATM   26  C14 UNL     1      42.719  -3.148  27.346  1.00  0.00     0.046 A 
HETATM   27  N7  UNL     1      41.474  -2.597  29.468  1.00  0.00    -0.344 N 
ATOM     28  H7  UNL     1      40.896  -3.427  29.598  1.00  0.00     0.167 HD
BRANCH  25  29
HETATM   29  C13 UNL     1      44.074  -3.415  25.298  1.00  0.00     0.120 C 
HETATM   30  N5  UNL     1      44.324  -2.735  24.051  1.00  0.00    -0.082 NA
BRANCH  29  31
HETATM   31  N6  UNL     1      44.241  -4.679  25.317  1.00  0.00    -0.387 N 
ATOM     32  H62 UNL     1      44.638  -5.086  26.165  1.00  0.00     0.157 HD
ATOM     33  H61 UNL     1      43.996  -5.279  24.529  1.00  0.00     0.157 HD
ENDBRANCH  29  31
ENDBRANCH  25  29
ENDBRANCH   1  18
TORSDOF 5
ENDMDL
