MODEL 3
REMARK VINA RESULT: -5.676618204      4.213      4.979
REMARK  10 active torsions:
REMARK  status: ('A' for Active; 'I' for Inactive)
REMARK    1  A    between atoms: N1_1  and  C1_5 
REMARK    2  A    between atoms: C1_5  and  C2_6 
REMARK    3  A    between atoms: C1_5  and  C10_23 
REMARK    4  A    between atoms: C2_6  and  C3_7 
REMARK    5  A    between atoms: C3_7  and  C4_8 
REMARK       I    between atoms: C4_8  and  N2_10 
REMARK    6  A    between atoms: N2_10  and  C5_12 
REMARK    7  A    between atoms: C5_12  and  C6_13 
REMARK    8  A    between atoms: C5_12  and  C7_15 
REMARK       I    between atoms: C7_15  and  N3_17 
REMARK    9  A    between atoms: N3_17  and  C8_19 
REMARK   10  A    between atoms: C8_19  and  C9_20 
ROOT
HETATM    1  C4  UNL     1      -5.811  10.978  76.766  1.00  0.00     0.218 C 
HETATM    2  O1  UNL     1      -6.300  12.090  76.498  1.00  0.00    -0.274 OA
HETATM    3  N2  UNL     1      -6.711   9.955  77.177  1.00  0.00    -0.347 N 
ATOM      4  H2  UNL     1      -6.345   9.030  77.405  1.00  0.00     0.163 HD
ENDROOT
BRANCH   3   5
HETATM    5  C5  UNL     1      -8.151  10.201  77.282  1.00  0.00     0.186 C 
BRANCH   5   6
HETATM    6  C6  UNL     1      -8.834   9.193  76.381  1.00  0.00     0.120 C 
HETATM    7  S1  UNL     1      -8.774   9.828  74.688  1.00  0.00    -0.095 SA
ENDBRANCH   5   6
BRANCH   5   8
HETATM    8  C7  UNL     1      -8.618  10.002  78.656  1.00  0.00     0.241 C 
HETATM    9  O2  UNL     1      -8.482  10.840  79.587  1.00  0.00    -0.271 OA
HETATM   10  N3  UNL     1      -9.275   8.776  78.975  1.00  0.00    -0.349 N 
ATOM     11  H3  UNL     1      -9.395   8.084  78.235  1.00  0.00     0.163 HD
BRANCH  10  12
HETATM   12  C8  UNL     1      -9.776   8.468  80.284  1.00  0.00     0.235 C 
BRANCH  12  13
HETATM   13  C9  UNL     1      -8.681   8.020  81.182  1.00  0.00     0.191 C 
HETATM   14  O3  UNL     1      -7.909   7.123  80.770  1.00  0.00    -0.647 OA
HETATM   15  O4  UNL     1      -8.470   8.540  82.443  1.00  0.00    -0.647 OA
ENDBRANCH  12  13
ENDBRANCH  10  12
ENDBRANCH   5   8
ENDBRANCH   3   5
BRANCH   1  16
HETATM   16  C3  UNL     1      -4.356  10.750  76.654  1.00  0.00     0.105 C 
BRANCH  16  17
HETATM   17  C2  UNL     1      -3.927   9.761  75.639  1.00  0.00     0.053 C 
BRANCH  17  18
HETATM   18  C1  UNL     1      -3.652   8.408  76.235  1.00  0.00     0.283 C 
BRANCH  18  19
HETATM   19  N1  UNL     1      -2.268   8.090  75.914  1.00  0.00    -0.065 N 
ATOM     20  H13 UNL     1      -2.031   7.111  76.078  1.00  0.00     0.275 HD
ATOM     21  H12 UNL     1      -2.072   8.102  74.913  1.00  0.00     0.275 HD
ATOM     22  H11 UNL     1      -1.692   8.741  76.447  1.00  0.00     0.275 HD
ENDBRANCH  18  19
BRANCH  18  23
HETATM   23  C10 UNL     1      -4.575   7.370  75.705  1.00  0.00     0.204 C 
HETATM   24  O5  UNL     1      -4.181   6.598  74.805  1.00  0.00    -0.646 OA
HETATM   25  O6  UNL     1      -5.859   7.248  76.192  1.00  0.00    -0.646 OA
ENDBRANCH  18  23
ENDBRANCH  17  18
ENDBRANCH  16  17
ENDBRANCH   1  16
TORSDOF 10
ENDMDL
