MODEL 4
REMARK VINA RESULT: -5.671249795      3.723      5.023
REMARK  10 active torsions:
REMARK  status: ('A' for Active; 'I' for Inactive)
REMARK    1  A    between atoms: N1_1  and  C1_5 
REMARK    2  A    between atoms: C1_5  and  C2_6 
REMARK    3  A    between atoms: C1_5  and  C10_23 
REMARK    4  A    between atoms: C2_6  and  C3_7 
REMARK    5  A    between atoms: C3_7  and  C4_8 
REMARK       I    between atoms: C4_8  and  N2_10 
REMARK    6  A    between atoms: N2_10  and  C5_12 
REMARK    7  A    between atoms: C5_12  and  C6_13 
REMARK    8  A    between atoms: C5_12  and  C7_15 
REMARK       I    between atoms: C7_15  and  N3_17 
REMARK    9  A    between atoms: N3_17  and  C8_19 
REMARK   10  A    between atoms: C8_19  and  C9_20 
ROOT
HETATM    1  C4  UNL     1      -9.250  10.618  71.517  1.00  0.00     0.218 C 
HETATM    2  O1  UNL     1      -8.493   9.780  70.994  1.00  0.00    -0.274 OA
HETATM    3  N2  UNL     1      -9.892  10.243  72.730  1.00  0.00    -0.347 N 
ATOM      4  H2  UNL     1     -10.520  10.905  73.188  1.00  0.00     0.163 HD
ENDROOT
BRANCH   3   5
HETATM    5  C5  UNL     1      -9.674   8.928  73.336  1.00  0.00     0.186 C 
BRANCH   5   6
HETATM    6  C6  UNL     1      -9.419   9.162  74.811  1.00  0.00     0.120 C 
HETATM    7  S1  UNL     1      -7.691   8.749  75.150  1.00  0.00    -0.095 SA
ENDBRANCH   5   6
BRANCH   5   8
HETATM    8  C7  UNL     1     -10.859   8.079  73.189  1.00  0.00     0.241 C 
HETATM    9  O2  UNL     1     -11.787   8.282  72.362  1.00  0.00    -0.271 OA
HETATM   10  N3  UNL     1     -10.981   6.938  74.037  1.00  0.00    -0.349 N 
ATOM     11  H3  UNL     1     -10.240   6.756  74.714  1.00  0.00     0.163 HD
BRANCH  10  12
HETATM   12  C8  UNL     1     -12.095   6.033  73.985  1.00  0.00     0.235 C 
BRANCH  12  13
HETATM   13  C9  UNL     1     -12.981   6.211  75.163  1.00  0.00     0.191 C 
HETATM   14  O3  UNL     1     -13.651   7.267  75.245  1.00  0.00    -0.647 OA
HETATM   15  O4  UNL     1     -13.105   5.275  76.170  1.00  0.00    -0.647 OA
ENDBRANCH  12  13
ENDBRANCH  10  12
ENDBRANCH   5   8
ENDBRANCH   3   5
BRANCH   1  16
HETATM   16  C3  UNL     1      -9.457  11.939  70.890  1.00  0.00     0.105 C 
BRANCH  16  17
HETATM   17  C2  UNL     1      -8.346  12.908  71.029  1.00  0.00     0.053 C 
BRANCH  17  18
HETATM   18  C1  UNL     1      -7.561  13.067  69.756  1.00  0.00     0.283 C 
BRANCH  18  19
HETATM   19  N1  UNL     1      -8.187  12.193  68.774  1.00  0.00    -0.065 N 
ATOM     20  H13 UNL     1      -8.529  11.319  69.172  1.00  0.00     0.275 HD
ATOM     21  H12 UNL     1      -9.086  12.541  68.439  1.00  0.00     0.275 HD
ATOM     22  H11 UNL     1      -7.503  12.059  68.030  1.00  0.00     0.275 HD
ENDBRANCH  18  19
BRANCH  18  23
HETATM   23  C10 UNL     1      -6.127  12.719  69.942  1.00  0.00     0.204 C 
HETATM   24  O5  UNL     1      -5.558  13.010  71.015  1.00  0.00    -0.646 OA
HETATM   25  O6  UNL     1      -5.419  12.080  68.947  1.00  0.00    -0.646 OA
ENDBRANCH  18  23
ENDBRANCH  17  18
ENDBRANCH  16  17
ENDBRANCH   1  16
TORSDOF 10
ENDMDL
