MODEL 1
REMARK VINA RESULT: -6.027003568      0.000      0.000
REMARK  10 active torsions:
REMARK  status: ('A' for Active; 'I' for Inactive)
REMARK    1  A    between atoms: N1_1  and  C1_5 
REMARK    2  A    between atoms: C1_5  and  C2_6 
REMARK    3  A    between atoms: C1_5  and  C10_23 
REMARK    4  A    between atoms: C2_6  and  C3_7 
REMARK    5  A    between atoms: C3_7  and  C4_8 
REMARK       I    between atoms: C4_8  and  N2_10 
REMARK    6  A    between atoms: N2_10  and  C5_12 
REMARK    7  A    between atoms: C5_12  and  C6_13 
REMARK    8  A    between atoms: C5_12  and  C7_15 
REMARK       I    between atoms: C7_15  and  N3_17 
REMARK    9  A    between atoms: N3_17  and  C8_19 
REMARK   10  A    between atoms: C8_19  and  C9_20 
ROOT
HETATM    1  C4  UNL     1      -8.027   8.920  75.001  1.00  0.00     0.218 C 
HETATM    2  O1  UNL     1      -8.216  10.145  74.896  1.00  0.00    -0.274 OA
HETATM    3  N2  UNL     1      -8.847   8.067  74.209  1.00  0.00    -0.347 N 
ATOM      4  H2  UNL     1      -8.720   7.056  74.269  1.00  0.00     0.163 HD
ENDROOT
BRANCH   3   5
HETATM    5  C5  UNL     1      -9.868   8.608  73.309  1.00  0.00     0.186 C 
BRANCH   5   6
HETATM    6  C6  UNL     1      -9.286   8.567  71.911  1.00  0.00     0.120 C 
HETATM    7  S1  UNL     1      -9.161  10.268  71.309  1.00  0.00    -0.095 SA
ENDBRANCH   5   6
BRANCH   5   8
HETATM    8  C7  UNL     1     -11.083   7.790  73.342  1.00  0.00     0.241 C 
HETATM    9  O2  UNL     1     -12.104   7.995  72.633  1.00  0.00    -0.271 OA
HETATM   10  N3  UNL     1     -11.124   6.680  74.238  1.00  0.00    -0.349 N 
ATOM     11  H3  UNL     1     -10.308   6.498  74.822  1.00  0.00     0.163 HD
BRANCH  10  12
HETATM   12  C8  UNL     1     -12.258   5.808  74.359  1.00  0.00     0.235 C 
BRANCH  12  13
HETATM   13  C9  UNL     1     -13.045   6.122  75.579  1.00  0.00     0.191 C 
HETATM   14  O3  UNL     1     -12.487   6.782  76.488  1.00  0.00    -0.647 OA
HETATM   15  O4  UNL     1     -14.354   5.727  75.763  1.00  0.00    -0.647 OA
ENDBRANCH  12  13
ENDBRANCH  10  12
ENDBRANCH   5   8
ENDBRANCH   3   5
BRANCH   1  16
HETATM   16  C3  UNL     1      -6.993   8.393  75.914  1.00  0.00     0.105 C 
BRANCH  16  17
HETATM   17  C2  UNL     1      -5.777   9.223  76.069  1.00  0.00     0.053 C 
BRANCH  17  18
HETATM   18  C1  UNL     1      -4.581   8.415  76.492  1.00  0.00     0.283 C 
BRANCH  18  19
HETATM   19  N1  UNL     1      -3.737   9.307  77.274  1.00  0.00    -0.065 N 
ATOM     20  H13 UNL     1      -3.707   9.068  78.265  1.00  0.00     0.275 HD
ATOM     21  H12 UNL     1      -2.741   9.189  77.086  1.00  0.00     0.275 HD
ATOM     22  H11 UNL     1      -4.073  10.252  77.095  1.00  0.00     0.275 HD
ENDBRANCH  18  19
BRANCH  18  23
HETATM   23  C10 UNL     1      -3.840   7.868  75.324  1.00  0.00     0.204 C 
HETATM   24  O5  UNL     1      -2.969   8.567  74.765  1.00  0.00    -0.646 OA
HETATM   25  O6  UNL     1      -4.103   6.600  74.850  1.00  0.00    -0.646 OA
ENDBRANCH  18  23
ENDBRANCH  17  18
ENDBRANCH  16  17
ENDBRANCH   1  16
TORSDOF 10
ENDMDL
