MODEL 2
REMARK VINA RESULT: -5.829331660      4.111      7.566
REMARK  10 active torsions:
REMARK  status: ('A' for Active; 'I' for Inactive)
REMARK    1  A    between atoms: N1_1  and  C1_5 
REMARK    2  A    between atoms: C1_5  and  C2_6 
REMARK    3  A    between atoms: C1_5  and  C10_23 
REMARK    4  A    between atoms: C2_6  and  C3_7 
REMARK    5  A    between atoms: C3_7  and  C4_8 
REMARK       I    between atoms: C4_8  and  N2_10 
REMARK    6  A    between atoms: N2_10  and  C5_12 
REMARK    7  A    between atoms: C5_12  and  C6_13 
REMARK    8  A    between atoms: C5_12  and  C7_15 
REMARK       I    between atoms: C7_15  and  N3_17 
REMARK    9  A    between atoms: N3_17  and  C8_19 
REMARK   10  A    between atoms: C8_19  and  C9_20 
ROOT
HETATM    1  C4  UNL     1      -9.765   8.603  72.095  1.00  0.00     0.218 C 
HETATM    2  O1  UNL     1      -8.622   8.376  71.661  1.00  0.00    -0.274 OA
HETATM    3  N2  UNL     1     -10.553   9.551  71.382  1.00  0.00    -0.347 N 
ATOM      4  H2  UNL     1     -11.496   9.763  71.709  1.00  0.00     0.163 HD
ENDROOT
BRANCH   3   5
HETATM    5  C5  UNL     1     -10.039  10.230  70.191  1.00  0.00     0.186 C 
BRANCH   5   6
HETATM    6  C6  UNL     1     -11.243  10.683  69.392  1.00  0.00     0.120 C 
HETATM    7  S1  UNL     1     -12.717  10.420  70.406  1.00  0.00    -0.095 SA
ENDBRANCH   5   6
BRANCH   5   8
HETATM    8  C7  UNL     1      -9.243  11.403  70.557  1.00  0.00     0.241 C 
HETATM    9  O2  UNL     1      -9.709  12.562  70.725  1.00  0.00    -0.271 OA
HETATM   10  N3  UNL     1      -7.838  11.235  70.740  1.00  0.00    -0.349 N 
ATOM     11  H3  UNL     1      -7.440  10.305  70.607  1.00  0.00     0.163 HD
BRANCH  10  12
HETATM   12  C8  UNL     1      -6.956  12.309  71.099  1.00  0.00     0.235 C 
BRANCH  12  13
HETATM   13  C9  UNL     1      -6.182  12.780  69.922  1.00  0.00     0.191 C 
HETATM   14  O3  UNL     1      -6.032  14.015  69.770  1.00  0.00    -0.647 OA
HETATM   15  O4  UNL     1      -5.621  11.931  68.991  1.00  0.00    -0.647 OA
ENDBRANCH  12  13
ENDBRANCH  10  12
ENDBRANCH   5   8
ENDBRANCH   3   5
BRANCH   1  16
HETATM   16  C3  UNL     1     -10.265   7.909  73.298  1.00  0.00     0.105 C 
BRANCH  16  17
HETATM   17  C2  UNL     1     -11.693   7.517  73.280  1.00  0.00     0.053 C 
BRANCH  17  18
HETATM   18  C1  UNL     1     -12.280   7.423  74.661  1.00  0.00     0.283 C 
BRANCH  18  19
HETATM   19  N1  UNL     1     -11.235   7.845  75.583  1.00  0.00    -0.065 N 
ATOM     20  H13 UNL     1     -10.445   8.294  75.119  1.00  0.00     0.275 HD
ATOM     21  H12 UNL     1     -11.506   8.637  76.166  1.00  0.00     0.275 HD
ATOM     22  H11 UNL     1     -10.973   7.018  76.119  1.00  0.00     0.275 HD
ENDBRANCH  18  19
BRANCH  18  23
HETATM   23  C10 UNL     1     -12.744   6.046  74.975  1.00  0.00     0.204 C 
HETATM   24  O5  UNL     1     -12.050   5.068  74.623  1.00  0.00    -0.646 OA
HETATM   25  O6  UNL     1     -13.929   5.834  75.647  1.00  0.00    -0.646 OA
ENDBRANCH  18  23
ENDBRANCH  17  18
ENDBRANCH  16  17
ENDBRANCH   1  16
TORSDOF 10
ENDMDL
