MODEL 3
REMARK VINA RESULT: -9.562879688      1.317      1.670
REMARK  6 active torsions:
REMARK  status: ('A' for Active; 'I' for Inactive)
REMARK    1  A    between atoms: N1_2  and  C3_4 
REMARK    2  A    between atoms: C3_4  and  C4_5 
REMARK    3  A    between atoms: C4_5  and  C5_6 
REMARK    4  A    between atoms: C5_6  and  N2_7 
REMARK    5  A    between atoms: C7_9  and  C8_10 
REMARK    6  A    between atoms: C11_17  and  C12_18 
ROOT
HETATM    1  C8  UNL     1     -17.903 -35.774   2.633  1.00  0.00     0.131 C 
HETATM    2  C9  UNL     1     -18.893 -36.347   3.719  1.00  0.00     0.234 C 
HETATM    3  O1  UNL     1     -19.705 -35.722   4.389  1.00  0.00    -0.272 OA
HETATM    4  N3  UNL     1     -18.562 -37.756   3.678  1.00  0.00    -0.296 N 
ATOM      5  H3  UNL     1     -19.132 -38.520   4.042  1.00  0.00     0.171 HD
HETATM    6  C10 UNL     1     -17.244 -37.886   3.012  1.00  0.00     0.234 C 
HETATM    7  O2  UNL     1     -16.915 -38.950   2.480  1.00  0.00    -0.272 OA
HETATM    8  C11 UNL     1     -16.746 -36.575   3.241  1.00  0.00     0.131 C 
ENDROOT
BRANCH   1   9
HETATM    9  C7  UNL     1     -18.546 -36.342   1.417  1.00  0.00    -0.016 A 
HETATM   10  C6  UNL     1     -19.645 -37.159   1.261  1.00  0.00     0.100 A 
HETATM   11  N2  UNL     1     -20.043 -37.289  -0.006  1.00  0.00    -0.355 N 
HETATM   12  C25 UNL     1     -19.165 -36.536  -0.706  1.00  0.00     0.045 A 
HETATM   13  C20 UNL     1     -18.252 -35.947   0.114  1.00  0.00    -0.001 A 
HETATM   14  C24 UNL     1     -19.048 -36.303  -2.086  1.00  0.00     0.030 A 
HETATM   15  C21 UNL     1     -17.233 -35.139  -0.381  1.00  0.00     0.014 A 
HETATM   16  C22 UNL     1     -17.140 -34.930  -1.714  1.00  0.00     0.001 A 
HETATM   17  C23 UNL     1     -18.043 -35.505  -2.597  1.00  0.00     0.002 A 
BRANCH  11  18
HETATM   18  C5  UNL     1     -21.166 -37.996  -0.583  1.00  0.00     0.130 C 
BRANCH  18  19
HETATM   19  C4  UNL     1     -20.934 -39.401  -0.949  1.00  0.00     0.050 C 
BRANCH  19  20
HETATM   20  C3  UNL     1     -21.924 -40.264  -0.183  1.00  0.00     0.273 C 
BRANCH  20  21
HETATM   21  N1  UNL     1     -21.907 -40.054   1.258  1.00  0.00     0.080 N 
HETATM   22  C1  UNL     1     -20.766 -40.746   1.864  1.00  0.00     0.309 C 
HETATM   23  C2  UNL     1     -23.103 -40.615   1.913  1.00  0.00     0.309 C 
ENDBRANCH  20  21
ENDBRANCH  19  20
ENDBRANCH  18  19
ENDBRANCH  11  18
ENDBRANCH   1   9
BRANCH   8  24
HETATM   24  C12 UNL     1     -15.456 -36.055   2.949  1.00  0.00    -0.016 A 
HETATM   25  C13 UNL     1     -14.929 -36.092   1.664  1.00  0.00     0.097 A 
HETATM   26  N4  UNL     1     -13.749 -35.477   1.659  1.00  0.00    -0.365 N 
HETATM   27  C14 UNL     1     -13.491 -35.039   2.906  1.00  0.00     0.042 A 
ATOM     28  H4  UNL     1     -13.142 -35.358   0.848  1.00  0.00     0.165 HD
HETATM   29  C15 UNL     1     -12.398 -34.352   3.371  1.00  0.00     0.030 A 
HETATM   30  C19 UNL     1     -14.563 -35.395   3.744  1.00  0.00    -0.001 A 
HETATM   31  C16 UNL     1     -12.344 -33.989   4.732  1.00  0.00     0.002 A 
HETATM   32  C17 UNL     1     -13.405 -34.344   5.546  1.00  0.00     0.001 A 
HETATM   33  C18 UNL     1     -14.497 -35.031   5.080  1.00  0.00     0.014 A 
ENDBRANCH   8  24
TORSDOF 6
ENDMDL
