MODEL 1
REMARK VINA RESULT: -10.345044127      0.000      0.000
REMARK  6 active torsions:
REMARK  status: ('A' for Active; 'I' for Inactive)
REMARK    1  A    between atoms: N1_2  and  C3_4 
REMARK    2  A    between atoms: C3_4  and  C4_5 
REMARK    3  A    between atoms: C4_5  and  C5_6 
REMARK    4  A    between atoms: C5_6  and  N2_7 
REMARK    5  A    between atoms: C7_9  and  C8_10 
REMARK    6  A    between atoms: C11_17  and  C12_18 
ROOT
HETATM    1  C8  UNL     1     -18.865 -35.744   1.073  1.00  0.00     0.131 C 
HETATM    2  C9  UNL     1     -20.060 -35.780   2.101  1.00  0.00     0.234 C 
HETATM    3  O1  UNL     1     -20.931 -34.934   2.261  1.00  0.00    -0.272 OA
HETATM    4  N3  UNL     1     -19.820 -37.048   2.758  1.00  0.00    -0.296 N 
ATOM      5  H3  UNL     1     -20.493 -37.574   3.316  1.00  0.00     0.171 HD
HETATM    6  C10 UNL     1     -18.420 -37.441   2.471  1.00  0.00     0.234 C 
HETATM    7  O2  UNL     1     -18.077 -38.625   2.543  1.00  0.00    -0.272 OA
HETATM    8  C11 UNL     1     -17.883 -36.161   2.173  1.00  0.00     0.131 C 
ENDROOT
BRANCH   1   9
HETATM    9  C7  UNL     1     -19.329 -36.813   0.148  1.00  0.00    -0.016 A 
HETATM   10  C6  UNL     1     -20.350 -37.733   0.252  1.00  0.00     0.100 A 
HETATM   11  N2  UNL     1     -20.594 -38.399  -0.877  1.00  0.00    -0.355 N 
HETATM   12  C25 UNL     1     -19.691 -37.901  -1.754  1.00  0.00     0.045 A 
HETATM   13  C20 UNL     1     -18.916 -36.943  -1.176  1.00  0.00    -0.001 A 
HETATM   14  C24 UNL     1     -19.434 -38.228  -3.095  1.00  0.00     0.030 A 
HETATM   15  C21 UNL     1     -17.901 -36.299  -1.876  1.00  0.00     0.014 A 
HETATM   16  C22 UNL     1     -17.671 -36.630  -3.167  1.00  0.00     0.001 A 
HETATM   17  C23 UNL     1     -18.430 -37.600  -3.807  1.00  0.00     0.002 A 
BRANCH  11  18
HETATM   18  C5  UNL     1     -21.597 -39.390  -1.202  1.00  0.00     0.130 C 
BRANCH  18  19
HETATM   19  C4  UNL     1     -21.582 -40.621  -0.399  1.00  0.00     0.050 C 
BRANCH  19  20
HETATM   20  C3  UNL     1     -22.669 -40.515   0.659  1.00  0.00     0.273 C 
BRANCH  20  21
HETATM   21  N1  UNL     1     -22.171 -40.241   1.999  1.00  0.00     0.080 N 
HETATM   22  C1  UNL     1     -20.851 -40.847   2.191  1.00  0.00     0.309 C 
HETATM   23  C2  UNL     1     -23.031 -40.830   3.041  1.00  0.00     0.309 C 
ENDBRANCH  20  21
ENDBRANCH  19  20
ENDBRANCH  18  19
ENDBRANCH  11  18
ENDBRANCH   1   9
BRANCH   8  24
HETATM   24  C12 UNL     1     -16.531 -35.806   1.916  1.00  0.00    -0.016 A 
HETATM   25  C13 UNL     1     -16.122 -35.345   0.671  1.00  0.00     0.097 A 
HETATM   26  N4  UNL     1     -14.833 -35.019   0.728  1.00  0.00    -0.365 N 
HETATM   27  C14 UNL     1     -14.389 -35.254   1.977  1.00  0.00     0.042 A 
ATOM     28  H4  UNL     1     -14.275 -34.654  -0.044  1.00  0.00     0.165 HD
HETATM   29  C15 UNL     1     -13.133 -35.065   2.498  1.00  0.00     0.030 A 
HETATM   30  C19 UNL     1     -15.451 -35.755   2.751  1.00  0.00    -0.001 A 
HETATM   31  C16 UNL     1     -12.896 -35.381   3.851  1.00  0.00     0.002 A 
HETATM   32  C17 UNL     1     -13.949 -35.872   4.602  1.00  0.00     0.001 A 
HETATM   33  C18 UNL     1     -15.205 -36.061   4.080  1.00  0.00     0.014 A 
ENDBRANCH   8  24
TORSDOF 6
ENDMDL
