MODEL 2
REMARK VINA RESULT: -9.661940005      2.590      4.428
REMARK  6 active torsions:
REMARK  status: ('A' for Active; 'I' for Inactive)
REMARK    1  A    between atoms: N1_2  and  C3_4 
REMARK    2  A    between atoms: C3_4  and  C4_5 
REMARK    3  A    between atoms: C4_5  and  C5_6 
REMARK    4  A    between atoms: C5_6  and  N2_7 
REMARK    5  A    between atoms: C7_9  and  C8_10 
REMARK    6  A    between atoms: C11_17  and  C12_18 
ROOT
HETATM    1  C8  UNL     1     -19.994 -36.407   0.815  1.00  0.00     0.131 C 
HETATM    2  C9  UNL     1     -19.882 -35.658   2.198  1.00  0.00     0.234 C 
HETATM    3  O1  UNL     1     -20.531 -34.691   2.577  1.00  0.00    -0.272 OA
HETATM    4  N3  UNL     1     -18.835 -36.424   2.842  1.00  0.00    -0.296 N 
ATOM      5  H3  UNL     1     -18.622 -36.434   3.840  1.00  0.00     0.171 HD
HETATM    6  C10 UNL     1     -18.130 -37.190   1.787  1.00  0.00     0.234 C 
HETATM    7  O2  UNL     1     -17.495 -38.210   2.075  1.00  0.00    -0.272 OA
HETATM    8  C11 UNL     1     -18.470 -36.391   0.663  1.00  0.00     0.131 C 
ENDROOT
BRANCH   1   9
HETATM    9  C7  UNL     1     -20.608 -37.675   1.292  1.00  0.00    -0.016 A 
HETATM   10  C6  UNL     1     -21.069 -38.058   2.534  1.00  0.00     0.100 A 
HETATM   11  N2  UNL     1     -21.747 -39.207   2.527  1.00  0.00    -0.355 N 
HETATM   12  C25 UNL     1     -21.722 -39.595   1.231  1.00  0.00     0.045 A 
HETATM   13  C20 UNL     1     -21.050 -38.699   0.457  1.00  0.00    -0.001 A 
HETATM   14  C24 UNL     1     -22.238 -40.740   0.603  1.00  0.00     0.030 A 
HETATM   15  C21 UNL     1     -20.874 -38.895  -0.909  1.00  0.00     0.014 A 
HETATM   16  C22 UNL     1     -21.380 -40.005  -1.491  1.00  0.00     0.001 A 
HETATM   17  C23 UNL     1     -22.073 -40.953  -0.752  1.00  0.00     0.002 A 
BRANCH  11  18
HETATM   18  C5  UNL     1     -22.432 -39.915   3.586  1.00  0.00     0.130 C 
BRANCH  18  19
HETATM   19  C4  UNL     1     -21.661 -40.961   4.275  1.00  0.00     0.050 C 
BRANCH  19  20
HETATM   20  C3  UNL     1     -20.994 -40.340   5.491  1.00  0.00     0.273 C 
BRANCH  20  21
HETATM   21  N1  UNL     1     -19.538 -40.347   5.440  1.00  0.00     0.080 N 
HETATM   22  C1  UNL     1     -19.016 -38.978   5.490  1.00  0.00     0.309 C 
HETATM   23  C2  UNL     1     -19.032 -40.917   4.178  1.00  0.00     0.309 C 
ENDBRANCH  20  21
ENDBRANCH  19  20
ENDBRANCH  18  19
ENDBRANCH  11  18
ENDBRANCH   1   9
BRANCH   8  24
HETATM   24  C12 UNL     1     -18.013 -36.510  -0.677  1.00  0.00    -0.016 A 
HETATM   25  C13 UNL     1     -18.241 -37.657  -1.427  1.00  0.00     0.097 A 
HETATM   26  N4  UNL     1     -17.776 -37.473  -2.660  1.00  0.00    -0.365 N 
HETATM   27  C14 UNL     1     -17.251 -36.236  -2.736  1.00  0.00     0.042 A 
ATOM     28  H4  UNL     1     -17.811 -38.154  -3.418  1.00  0.00     0.165 HD
HETATM   29  C15 UNL     1     -16.661 -35.613  -3.808  1.00  0.00     0.030 A 
HETATM   30  C19 UNL     1     -17.389 -35.604  -1.488  1.00  0.00    -0.001 A 
HETATM   31  C16 UNL     1     -16.179 -34.297  -3.657  1.00  0.00     0.002 A 
HETATM   32  C17 UNL     1     -16.323 -33.686  -2.424  1.00  0.00     0.001 A 
HETATM   33  C18 UNL     1     -16.912 -34.310  -1.353  1.00  0.00     0.014 A 
ENDBRANCH   8  24
TORSDOF 6
ENDMDL
