MODEL 3
REMARK VINA RESULT: -8.895195983      0.984      1.273
REMARK  5 active torsions:
REMARK  status: ('A' for Active; 'I' for Inactive)
REMARK    1  A    between atoms: N3_9  and  C6_10 
REMARK    2  A    between atoms: C6_10  and  C7_11 
REMARK    3  A    between atoms: C7_11  and  C8_12 
REMARK    4  A    between atoms: C8_12  and  C9_13 
REMARK    5  A    between atoms: C9_13  and  C10_14 
ROOT
HETATM    1  C1  UNL     1      19.358  90.115  37.550  1.00  0.00     0.049 C 
HETATM    2  C2  UNL     1      19.308  89.459  38.893  1.00  0.00    -0.054 A 
HETATM    3  C3  UNL     1      20.446  89.304  39.661  1.00  0.00     0.039 A 
HETATM    4  C4  UNL     1      20.434  88.705  40.902  1.00  0.00     0.062 A 
HETATM    5  N1  UNL     1      21.367  88.422  41.824  1.00  0.00    -0.328 N 
ATOM      6  H1  UNL     1      22.357  88.648  41.732  1.00  0.00     0.168 HD
HETATM    7  C5  UNL     1      20.827  87.804  42.877  1.00  0.00     0.195 A 
HETATM    8  N2  UNL     1      21.485  87.346  44.047  1.00  0.00    -0.063 NA
HETATM    9  N3  UNL     1      19.489  87.702  42.587  1.00  0.00    -0.319 N 
HETATM   10  C11 UNL     1      19.218  88.239  41.395  1.00  0.00     0.064 A 
HETATM   11  C12 UNL     1      18.088  88.402  40.608  1.00  0.00     0.039 A 
HETATM   12  C13 UNL     1      18.091  88.999  39.368  1.00  0.00    -0.054 A 
HETATM   13  C14 UNL     1      16.862  89.162  38.546  1.00  0.00     0.049 C 
ENDROOT
BRANCH   9  14
HETATM   14  C6  UNL     1      18.577  87.060  43.486  1.00  0.00     0.132 C 
BRANCH  14  15
HETATM   15  C7  UNL     1      17.843  87.903  44.441  1.00  0.00     0.021 C 
BRANCH  15  16
HETATM   16  C8  UNL     1      18.291  88.097  45.819  1.00  0.00     0.012 C 
BRANCH  16  17
HETATM   17  C9  UNL     1      17.405  87.695  46.937  1.00  0.00     0.113 C 
BRANCH  17  18
HETATM   18  C10 UNL     1      16.595  86.473  46.679  1.00  0.00     0.172 C 
HETATM   19  O1  UNL     1      15.387  86.456  46.373  1.00  0.00    -0.648 OA
HETATM   20  O2  UNL     1      17.265  85.258  46.797  1.00  0.00    -0.648 OA
ENDBRANCH  17  18
ENDBRANCH  16  17
ENDBRANCH  15  16
ENDBRANCH  14  15
ENDBRANCH   9  14
TORSDOF 5
ENDMDL
