MODEL 5
REMARK VINA RESULT: -8.548557339      2.283      2.469
REMARK  5 active torsions:
REMARK  status: ('A' for Active; 'I' for Inactive)
REMARK    1  A    between atoms: N3_9  and  C6_10 
REMARK    2  A    between atoms: C6_10  and  C7_11 
REMARK    3  A    between atoms: C7_11  and  C8_12 
REMARK    4  A    between atoms: C8_12  and  C9_13 
REMARK    5  A    between atoms: C9_13  and  C10_14 
ROOT
HETATM    1  C1  UNL     1      19.583  90.004  37.768  1.00  0.00     0.049 C 
HETATM    2  C2  UNL     1      19.481  89.359  39.114  1.00  0.00    -0.054 A 
HETATM    3  C3  UNL     1      20.592  89.191  39.917  1.00  0.00     0.039 A 
HETATM    4  C4  UNL     1      20.533  88.603  41.161  1.00  0.00     0.062 A 
HETATM    5  N1  UNL     1      21.433  88.311  42.112  1.00  0.00    -0.328 N 
ATOM      6  H1  UNL     1      22.429  88.520  42.049  1.00  0.00     0.168 HD
HETATM    7  C5  UNL     1      20.851  87.710  43.153  1.00  0.00     0.195 A 
HETATM    8  N2  UNL     1      21.466  87.250  44.346  1.00  0.00    -0.063 NA
HETATM    9  N3  UNL     1      19.521  87.628  42.824  1.00  0.00    -0.319 N 
HETATM   10  C11 UNL     1      19.295  88.160  41.621  1.00  0.00     0.064 A 
HETATM   11  C12 UNL     1      18.192  88.336  40.798  1.00  0.00     0.039 A 
HETATM   12  C13 UNL     1      18.242  88.923  39.554  1.00  0.00    -0.054 A 
HETATM   13  C14 UNL     1      17.042  89.101  38.694  1.00  0.00     0.049 C 
ENDROOT
BRANCH   9  14
HETATM   14  C6  UNL     1      18.571  87.008  43.699  1.00  0.00     0.132 C 
BRANCH  14  15
HETATM   15  C7  UNL     1      17.824  87.870  44.626  1.00  0.00     0.021 C 
BRANCH  15  16
HETATM   16  C8  UNL     1      17.685  87.555  46.047  1.00  0.00     0.012 C 
BRANCH  16  17
HETATM   17  C9  UNL     1      18.198  88.509  47.059  1.00  0.00     0.113 C 
BRANCH  17  18
HETATM   18  C10 UNL     1      19.025  87.890  48.131  1.00  0.00     0.172 C 
HETATM   19  O1  UNL     1      19.275  86.674  48.243  1.00  0.00    -0.648 OA
HETATM   20  O2  UNL     1      19.554  88.765  49.079  1.00  0.00    -0.648 OA
ENDBRANCH  17  18
ENDBRANCH  16  17
ENDBRANCH  15  16
ENDBRANCH  14  15
ENDBRANCH   9  14
TORSDOF 5
ENDMDL
