MODEL 2
REMARK VINA RESULT: -9.012413409      1.336      1.586
REMARK  5 active torsions:
REMARK  status: ('A' for Active; 'I' for Inactive)
REMARK    1  A    between atoms: N3_9  and  C6_10 
REMARK    2  A    between atoms: C6_10  and  C7_11 
REMARK    3  A    between atoms: C7_11  and  C8_12 
REMARK    4  A    between atoms: C8_12  and  C9_13 
REMARK    5  A    between atoms: C9_13  and  C10_14 
ROOT
HETATM    1  C1  UNL     1      19.618  90.534  37.060  1.00  0.00     0.049 C 
HETATM    2  C2  UNL     1      19.495  89.823  38.370  1.00  0.00    -0.054 A 
HETATM    3  C3  UNL     1      20.589  89.640  39.194  1.00  0.00     0.039 A 
HETATM    4  C4  UNL     1      20.511  88.991  40.406  1.00  0.00     0.062 A 
HETATM    5  N1  UNL     1      21.392  88.672  41.366  1.00  0.00    -0.328 N 
ATOM      6  H1  UNL     1      22.385  88.905  41.340  1.00  0.00     0.168 HD
HETATM    7  C5  UNL     1      20.798  88.010  42.361  1.00  0.00     0.195 A 
HETATM    8  N2  UNL     1      21.391  87.505  43.547  1.00  0.00    -0.063 NA
HETATM    9  N3  UNL     1      19.478  87.916  41.993  1.00  0.00    -0.319 N 
HETATM   10  C11 UNL     1      19.272  88.501  40.811  1.00  0.00     0.064 A 
HETATM   11  C12 UNL     1      18.187  88.693  39.968  1.00  0.00     0.039 A 
HETATM   12  C13 UNL     1      18.256  89.340  38.756  1.00  0.00    -0.054 A 
HETATM   13  C14 UNL     1      17.074  89.534  37.874  1.00  0.00     0.049 C 
ENDROOT
BRANCH   9  14
HETATM   14  C6  UNL     1      18.521  87.234  42.812  1.00  0.00     0.132 C 
BRANCH  14  15
HETATM   15  C7  UNL     1      17.884  87.990  43.900  1.00  0.00     0.021 C 
BRANCH  15  16
HETATM   16  C8  UNL     1      18.360  87.925  45.280  1.00  0.00     0.012 C 
BRANCH  16  17
HETATM   17  C9  UNL     1      17.767  86.935  46.211  1.00  0.00     0.113 C 
BRANCH  17  18
HETATM   18  C10 UNL     1      16.338  87.178  46.549  1.00  0.00     0.172 C 
HETATM   19  O1  UNL     1      15.387  86.426  46.261  1.00  0.00    -0.648 OA
HETATM   20  O2  UNL     1      16.065  88.354  47.246  1.00  0.00    -0.648 OA
ENDBRANCH  17  18
ENDBRANCH  16  17
ENDBRANCH  15  16
ENDBRANCH  14  15
ENDBRANCH   9  14
TORSDOF 5
ENDMDL
