MODEL 1
REMARK VINA RESULT: -9.070222974      0.000      0.000
REMARK  5 active torsions:
REMARK  status: ('A' for Active; 'I' for Inactive)
REMARK    1  A    between atoms: N3_9  and  C6_10 
REMARK    2  A    between atoms: C6_10  and  C7_11 
REMARK    3  A    between atoms: C7_11  and  C8_12 
REMARK    4  A    between atoms: C8_12  and  C9_13 
REMARK    5  A    between atoms: C9_13  and  C10_14 
ROOT
HETATM    1  C1  UNL     1      19.499  90.054  37.707  1.00  0.00     0.049 C 
HETATM    2  C2  UNL     1      19.412  89.391  39.046  1.00  0.00    -0.054 A 
HETATM    3  C3  UNL     1      20.528  89.232  39.843  1.00  0.00     0.039 A 
HETATM    4  C4  UNL     1      20.483  88.627  41.080  1.00  0.00     0.062 A 
HETATM    5  N1  UNL     1      21.390  88.338  42.025  1.00  0.00    -0.328 N 
ATOM      6  H1  UNL     1      22.383  88.565  41.961  1.00  0.00     0.168 HD
HETATM    7  C5  UNL     1      20.822  87.716  43.060  1.00  0.00     0.195 A 
HETATM    8  N2  UNL     1      21.448  87.252  44.246  1.00  0.00    -0.063 NA
HETATM    9  N3  UNL     1      19.492  87.617  42.734  1.00  0.00    -0.319 N 
HETATM   10  C11 UNL     1      19.254  88.159  41.538  1.00  0.00     0.064 A 
HETATM   11  C12 UNL     1      18.145  88.327  40.721  1.00  0.00     0.039 A 
HETATM   12  C13 UNL     1      18.182  88.930  39.484  1.00  0.00    -0.054 A 
HETATM   13  C14 UNL     1      16.976  89.098  38.630  1.00  0.00     0.049 C 
ENDROOT
BRANCH   9  14
HETATM   14  C6  UNL     1      18.556  86.971  43.605  1.00  0.00     0.132 C 
BRANCH  14  15
HETATM   15  C7  UNL     1      17.840  87.801  44.584  1.00  0.00     0.021 C 
BRANCH  15  16
HETATM   16  C8  UNL     1      16.599  87.365  45.222  1.00  0.00     0.012 C 
BRANCH  16  17
HETATM   17  C9  UNL     1      16.596  86.131  46.044  1.00  0.00     0.113 C 
BRANCH  17  18
HETATM   18  C10 UNL     1      15.983  84.946  45.382  1.00  0.00     0.172 C 
HETATM   19  O1  UNL     1      16.569  84.164  44.610  1.00  0.00    -0.648 OA
HETATM   20  O2  UNL     1      14.638  84.715  45.666  1.00  0.00    -0.648 OA
ENDBRANCH  17  18
ENDBRANCH  16  17
ENDBRANCH  15  16
ENDBRANCH  14  15
ENDBRANCH   9  14
TORSDOF 5
ENDMDL
