MODEL 18
REMARK VINA RESULT: -7.790787437      2.972      4.324
REMARK  5 active torsions:
REMARK  status: ('A' for Active; 'I' for Inactive)
REMARK    1  A    between atoms: N3_9  and  C6_10 
REMARK    2  A    between atoms: C6_10  and  C7_11 
REMARK    3  A    between atoms: C7_11  and  C8_12 
REMARK    4  A    between atoms: C8_12  and  C9_13 
REMARK    5  A    between atoms: C9_13  and  C10_14 
ROOT
HETATM    1  C1  UNL     1      17.752  88.722  39.810  1.00  0.00     0.049 C 
HETATM    2  C2  UNL     1      18.278  88.343  41.158  1.00  0.00    -0.054 A 
HETATM    3  C3  UNL     1      17.490  87.678  42.077  1.00  0.00     0.039 A 
HETATM    4  C4  UNL     1      17.943  87.314  43.326  1.00  0.00     0.062 A 
HETATM    5  N1  UNL     1      17.400  86.694  44.385  1.00  0.00    -0.328 N 
ATOM      6  H1  UNL     1      16.443  86.344  44.421  1.00  0.00     0.168 HD
HETATM    7  C5  UNL     1      18.280  86.596  45.384  1.00  0.00     0.195 A 
HETATM    8  N2  UNL     1      18.083  86.010  46.661  1.00  0.00    -0.063 NA
HETATM    9  N3  UNL     1      19.426  87.188  44.914  1.00  0.00    -0.319 N 
HETATM   10  C11 UNL     1      19.254  87.635  43.668  1.00  0.00     0.064 A 
HETATM   11  C12 UNL     1      20.028  88.305  42.732  1.00  0.00     0.039 A 
HETATM   12  C13 UNL     1      19.584  88.672  41.483  1.00  0.00    -0.054 A 
HETATM   13  C14 UNL     1      20.438  89.387  40.498  1.00  0.00     0.049 C 
ENDROOT
BRANCH   9  14
HETATM   14  C6  UNL     1      20.598  87.299  45.731  1.00  0.00     0.132 C 
BRANCH  14  15
HETATM   15  C7  UNL     1      21.821  86.622  45.276  1.00  0.00     0.021 C 
BRANCH  15  16
HETATM   16  C8  UNL     1      22.655  85.828  46.175  1.00  0.00     0.012 C 
BRANCH  16  17
HETATM   17  C9  UNL     1      22.281  84.424  46.469  1.00  0.00     0.113 C 
BRANCH  17  18
HETATM   18  C10 UNL     1      21.590  83.719  45.354  1.00  0.00     0.172 C 
HETATM   19  O1  UNL     1      20.359  83.553  45.254  1.00  0.00    -0.648 OA
HETATM   20  O2  UNL     1      22.411  83.212  44.348  1.00  0.00    -0.648 OA
ENDBRANCH  17  18
ENDBRANCH  16  17
ENDBRANCH  15  16
ENDBRANCH  14  15
ENDBRANCH   9  14
TORSDOF 5
ENDMDL
