MODEL 4
REMARK VINA RESULT: -8.836622957      1.886      2.129
REMARK  5 active torsions:
REMARK  status: ('A' for Active; 'I' for Inactive)
REMARK    1  A    between atoms: N3_9  and  C6_10 
REMARK    2  A    between atoms: C6_10  and  C7_11 
REMARK    3  A    between atoms: C7_11  and  C8_12 
REMARK    4  A    between atoms: C8_12  and  C9_13 
REMARK    5  A    between atoms: C9_13  and  C10_14 
ROOT
HETATM    1  C1  UNL     1      19.510  90.170  37.720  1.00  0.00     0.049 C 
HETATM    2  C2  UNL     1      19.420  89.476  39.042  1.00  0.00    -0.054 A 
HETATM    3  C3  UNL     1      20.531  89.314  39.846  1.00  0.00     0.039 A 
HETATM    4  C4  UNL     1      20.483  88.681  41.069  1.00  0.00     0.062 A 
HETATM    5  N1  UNL     1      21.386  88.383  42.015  1.00  0.00    -0.328 N 
ATOM      6  H1  UNL     1      22.376  88.624  41.966  1.00  0.00     0.168 HD
HETATM    7  C5  UNL     1      20.817  87.730  43.031  1.00  0.00     0.195 A 
HETATM    8  N2  UNL     1      21.439  87.248  44.212  1.00  0.00    -0.063 NA
HETATM    9  N3  UNL     1      19.492  87.620  42.691  1.00  0.00    -0.319 N 
HETATM   10  C11 UNL     1      19.257  88.186  41.505  1.00  0.00     0.064 A 
HETATM   11  C12 UNL     1      18.153  88.357  40.682  1.00  0.00     0.039 A 
HETATM   12  C13 UNL     1      18.193  88.988  39.459  1.00  0.00    -0.054 A 
HETATM   13  C14 UNL     1      16.992  89.159  38.598  1.00  0.00     0.049 C 
ENDROOT
BRANCH   9  14
HETATM   14  C6  UNL     1      18.557  86.942  43.538  1.00  0.00     0.132 C 
BRANCH  14  15
HETATM   15  C7  UNL     1      17.519  87.746  44.199  1.00  0.00     0.021 C 
BRANCH  15  16
HETATM   16  C8  UNL     1      16.642  87.195  45.231  1.00  0.00     0.012 C 
BRANCH  16  17
HETATM   17  C9  UNL     1      17.168  86.991  46.603  1.00  0.00     0.113 C 
BRANCH  17  18
HETATM   18  C10 UNL     1      18.215  87.966  47.017  1.00  0.00     0.172 C 
HETATM   19  O1  UNL     1      18.025  89.173  47.260  1.00  0.00    -0.648 OA
HETATM   20  O2  UNL     1      19.509  87.461  47.135  1.00  0.00    -0.648 OA
ENDBRANCH  17  18
ENDBRANCH  16  17
ENDBRANCH  15  16
ENDBRANCH  14  15
ENDBRANCH   9  14
TORSDOF 5
ENDMDL
