MODEL 19
REMARK VINA RESULT: -7.768137818      3.913      7.213
REMARK  5 active torsions:
REMARK  status: ('A' for Active; 'I' for Inactive)
REMARK    1  A    between atoms: N3_9  and  C6_10 
REMARK    2  A    between atoms: C6_10  and  C7_11 
REMARK    3  A    between atoms: C7_11  and  C8_12 
REMARK    4  A    between atoms: C8_12  and  C9_13 
REMARK    5  A    between atoms: C9_13  and  C10_14 
ROOT
HETATM    1  C1  UNL     1      19.672  85.613  45.979  1.00  0.00     0.049 C 
HETATM    2  C2  UNL     1      19.665  86.453  44.741  1.00  0.00    -0.054 A 
HETATM    3  C3  UNL     1      18.529  86.583  43.966  1.00  0.00     0.039 A 
HETATM    4  C4  UNL     1      18.489  87.348  42.822  1.00  0.00     0.062 A 
HETATM    5  N1  UNL     1      17.551  87.627  41.903  1.00  0.00    -0.328 N 
ATOM      6  H1  UNL     1      16.595  87.271  41.927  1.00  0.00     0.168 HD
HETATM    7  C5  UNL     1      18.035  88.432  40.955  1.00  0.00     0.195 A 
HETATM    8  N2  UNL     1      17.355  88.945  39.820  1.00  0.00    -0.063 NA
HETATM    9  N3  UNL     1      19.341  88.661  41.309  1.00  0.00    -0.319 N 
HETATM   10  C11 UNL     1      19.648  88.017  42.437  1.00  0.00     0.064 A 
HETATM   11  C12 UNL     1      20.779  87.871  43.227  1.00  0.00     0.039 A 
HETATM   12  C13 UNL     1      20.828  87.109  44.372  1.00  0.00    -0.054 A 
HETATM   13  C14 UNL     1      22.054  86.974  45.202  1.00  0.00     0.049 C 
ENDROOT
BRANCH   9  14
HETATM   14  C6  UNL     1      20.203  89.471  40.501  1.00  0.00     0.132 C 
BRANCH  14  15
HETATM   15  C7  UNL     1      20.441  89.051  39.113  1.00  0.00     0.021 C 
BRANCH  15  16
HETATM   16  C8  UNL     1      21.068  89.929  38.126  1.00  0.00     0.012 C 
BRANCH  16  17
HETATM   17  C9  UNL     1      20.426  90.117  36.804  1.00  0.00     0.113 C 
BRANCH  17  18
HETATM   18  C10 UNL     1      19.297  91.087  36.795  1.00  0.00     0.172 C 
HETATM   19  O1  UNL     1      19.369  92.281  36.443  1.00  0.00    -0.648 OA
HETATM   20  O2  UNL     1      18.064  90.596  37.222  1.00  0.00    -0.648 OA
ENDBRANCH  17  18
ENDBRANCH  16  17
ENDBRANCH  15  16
ENDBRANCH  14  15
ENDBRANCH   9  14
TORSDOF 5
ENDMDL
