MODEL 5
REMARK VINA RESULT: -4.031121079      1.046      1.474
REMARK  2 active torsions:
REMARK  status: ('A' for Active; 'I' for Inactive)
REMARK    1  A    between atoms: N1_1  and  C1_5 
REMARK    2  A    between atoms: C1_5  and  C2_6 
ROOT
HETATM    1  C1  UNL     1      21.411  32.947   7.773  1.00  0.00     0.210 A 
HETATM    2  C3  UNL     1      20.317  33.901   8.126  1.00  0.00     0.050 A 
HETATM    3  C4  UNL     1      19.336  32.769   8.366  1.00  0.00     0.006 A 
HETATM    4  C5  UNL     1      20.456  31.807   8.035  1.00  0.00     0.050 A 
ENDROOT
BRANCH   1   5
HETATM    5  N1  UNL     1      21.722  33.004   6.359  1.00  0.00    -0.060 N 
ATOM      6  H13 UNL     1      22.076  33.925   6.100  1.00  0.00     0.275 HD
ATOM      7  H12 UNL     1      22.546  32.443   6.143  1.00  0.00     0.275 HD
ATOM      8  H11 UNL     1      20.934  32.736   5.768  1.00  0.00     0.275 HD
ENDBRANCH   1   5
BRANCH   1   9
HETATM    9  C2  UNL     1      22.609  32.985   8.625  1.00  0.00     0.210 C 
HETATM   10  O1  UNL     1      23.118  34.097   8.923  1.00  0.00    -0.646 OA
HETATM   11  O2  UNL     1      23.241  31.863   9.141  1.00  0.00    -0.646 OA
ENDBRANCH   1   9
TORSDOF 2
ENDMDL
