MODEL 1
REMARK VINA RESULT: -5.855354068      0.000      0.000
REMARK  2 active torsions:
REMARK  status: ('A' for Active; 'I' for Inactive)
REMARK    1  A    between atoms: N1_1  and  C1_5 
REMARK    2  A    between atoms: C1_5  and  C2_6 
ROOT
HETATM    1  C1  UNL     1      21.517  32.709   7.855  1.00  0.00     0.210 A 
HETATM    2  C3  UNL     1      21.559  33.421   6.542  1.00  0.00     0.050 A 
HETATM    3  C4  UNL     1      20.280  34.176   6.852  1.00  0.00     0.006 A 
HETATM    4  C5  UNL     1      20.258  33.472   8.191  1.00  0.00     0.050 A 
ENDROOT
BRANCH   1   5
HETATM    5  N1  UNL     1      21.200  31.305   7.680  1.00  0.00    -0.060 N 
ATOM      6  H13 UNL     1      22.018  30.722   7.860  1.00  0.00     0.275 HD
ATOM      7  H12 UNL     1      20.591  30.973   8.428  1.00  0.00     0.275 HD
ATOM      8  H11 UNL     1      20.799  31.099   6.765  1.00  0.00     0.275 HD
ENDBRANCH   1   5
BRANCH   1   9
HETATM    9  C2  UNL     1      22.659  32.931   8.754  1.00  0.00     0.210 C 
HETATM   10  O1  UNL     1      23.068  34.105   8.951  1.00  0.00    -0.646 OA
HETATM   11  O2  UNL     1      23.339  31.923   9.421  1.00  0.00    -0.646 OA
ENDBRANCH   1   9
TORSDOF 2
ENDMDL
