MODEL 6
REMARK VINA RESULT: -3.871169494      1.627      2.110
REMARK  2 active torsions:
REMARK  status: ('A' for Active; 'I' for Inactive)
REMARK    1  A    between atoms: N1_1  and  C1_5 
REMARK    2  A    between atoms: C1_5  and  C2_6 
ROOT
HETATM    1  C1  UNL     1      21.678  33.342   8.108  1.00  0.00     0.210 A 
HETATM    2  C3  UNL     1      20.214  33.619   8.215  1.00  0.00     0.050 A 
HETATM    3  C4  UNL     1      20.137  34.051   6.762  1.00  0.00     0.006 A 
HETATM    4  C5  UNL     1      21.614  33.742   6.654  1.00  0.00     0.050 A 
ENDROOT
BRANCH   1   5
HETATM    5  N1  UNL     1      22.452  34.320   8.847  1.00  0.00    -0.060 N 
ATOM      6  H13 UNL     1      22.360  34.174   9.852  1.00  0.00     0.275 HD
ATOM      7  H12 UNL     1      23.452  34.148   8.744  1.00  0.00     0.275 HD
ATOM      8  H11 UNL     1      22.220  35.282   8.596  1.00  0.00     0.275 HD
ENDBRANCH   1   5
BRANCH   1   9
HETATM    9  C2  UNL     1      22.101  31.959   8.373  1.00  0.00     0.210 C 
HETATM   10  O1  UNL     1      23.047  31.747   9.175  1.00  0.00    -0.646 OA
HETATM   11  O2  UNL     1      21.525  30.838   7.794  1.00  0.00    -0.646 OA
ENDBRANCH   1   9
TORSDOF 2
ENDMDL
