MODEL 18
REMARK VINA RESULT: -1.145109129      8.118      8.745
REMARK  2 active torsions:
REMARK  status: ('A' for Active; 'I' for Inactive)
REMARK    1  A    between atoms: N1_1  and  C1_5 
REMARK    2  A    between atoms: C1_5  and  C2_6 
ROOT
HETATM    1  C1  UNL     1      16.066  35.874  13.695  1.00  0.00     0.210 A 
HETATM    2  C3  UNL     1      16.526  37.226  13.256  1.00  0.00     0.050 A 
HETATM    3  C4  UNL     1      17.982  36.802  13.297  1.00  0.00     0.006 A 
HETATM    4  C5  UNL     1      17.508  35.427  13.715  1.00  0.00     0.050 A 
ENDROOT
BRANCH   1   5
HETATM    5  N1  UNL     1      15.550  35.910  15.049  1.00  0.00    -0.060 N 
ATOM      6  H13 UNL     1      16.311  35.945  15.728  1.00  0.00     0.275 HD
ATOM      7  H12 UNL     1      15.108  36.807  15.248  1.00  0.00     0.275 HD
ATOM      8  H11 UNL     1      14.915  35.138  15.253  1.00  0.00     0.275 HD
ENDBRANCH   1   5
BRANCH   1   9
HETATM    9  C2  UNL     1      15.185  35.151  12.766  1.00  0.00     0.210 C 
HETATM   10  O1  UNL     1      15.544  35.001  11.568  1.00  0.00    -0.646 OA
HETATM   11  O2  UNL     1      13.958  34.606  13.112  1.00  0.00    -0.646 OA
ENDBRANCH   1   9
TORSDOF 2
ENDMDL
