MODEL 4
REMARK VINA RESULT: -4.336170300      0.995      1.147
REMARK  2 active torsions:
REMARK  status: ('A' for Active; 'I' for Inactive)
REMARK    1  A    between atoms: N1_1  and  C1_5 
REMARK    2  A    between atoms: C1_5  and  C2_6 
ROOT
HETATM    1  C1  UNL     1      21.301  33.377   7.617  1.00  0.00     0.210 A 
HETATM    2  C3  UNL     1      21.503  33.006   6.185  1.00  0.00     0.050 A 
HETATM    3  C4  UNL     1      21.151  34.406   5.718  1.00  0.00     0.006 A 
HETATM    4  C5  UNL     1      20.974  34.782   7.173  1.00  0.00     0.050 A 
ENDROOT
BRANCH   1   5
HETATM    5  N1  UNL     1      20.110  32.751   8.159  1.00  0.00    -0.060 N 
ATOM      6  H13 UNL     1      20.353  31.945   8.735  1.00  0.00     0.275 HD
ATOM      7  H12 UNL     1      19.679  33.341   8.870  1.00  0.00     0.275 HD
ATOM      8  H11 UNL     1      19.434  32.495   7.439  1.00  0.00     0.275 HD
ENDBRANCH   1   5
BRANCH   1   9
HETATM    9  C2  UNL     1      22.470  33.241   8.498  1.00  0.00     0.210 C 
HETATM   10  O1  UNL     1      22.913  34.256   9.095  1.00  0.00    -0.646 OA
HETATM   11  O2  UNL     1      23.143  32.050   8.730  1.00  0.00    -0.646 OA
ENDBRANCH   1   9
TORSDOF 2
ENDMDL
