MODEL 2
REMARK VINA RESULT: -5.718871516      0.102      1.121
REMARK  2 active torsions:
REMARK  status: ('A' for Active; 'I' for Inactive)
REMARK    1  A    between atoms: N1_1  and  C1_5 
REMARK    2  A    between atoms: C1_5  and  C2_6 
ROOT
HETATM    1  C1  UNL     1      21.494  32.698   7.836  1.00  0.00     0.210 A 
HETATM    2  C3  UNL     1      21.533  33.400   6.518  1.00  0.00     0.050 A 
HETATM    3  C4  UNL     1      20.268  34.176   6.834  1.00  0.00     0.006 A 
HETATM    4  C5  UNL     1      20.250  33.482   8.179  1.00  0.00     0.050 A 
ENDROOT
BRANCH   1   5
HETATM    5  N1  UNL     1      21.155  31.298   7.676  1.00  0.00    -0.060 N 
ATOM      6  H13 UNL     1      21.001  31.071   6.693  1.00  0.00     0.275 HD
ATOM      7  H12 UNL     1      21.964  30.704   7.859  1.00  0.00     0.275 HD
ATOM      8  H11 UNL     1      20.358  31.014   8.246  1.00  0.00     0.275 HD
ENDBRANCH   1   5
BRANCH   1   9
HETATM    9  C2  UNL     1      22.648  32.911   8.722  1.00  0.00     0.210 C 
HETATM   10  O1  UNL     1      23.235  31.914   9.218  1.00  0.00    -0.646 OA
HETATM   11  O2  UNL     1      23.155  34.155   9.065  1.00  0.00    -0.646 OA
ENDBRANCH   1   9
TORSDOF 2
ENDMDL
