MODEL 4
REMARK VINA RESULT: -3.856858041      0.925      1.035
REMARK  2 active torsions:
REMARK  status: ('A' for Active; 'I' for Inactive)
REMARK    1  A    between atoms: N1_1  and  C1_5 
REMARK    2  A    between atoms: C1_5  and  C2_6 
ROOT
HETATM    1  C1  UNL     1      21.196  32.690   7.698  1.00  0.00     0.210 A 
HETATM    2  C3  UNL     1      19.916  32.227   8.320  1.00  0.00     0.053 A 
HETATM    3  C4  UNL     1      20.100  33.671   8.085  1.00  0.00     0.053 A 
ENDROOT
BRANCH   1   4
HETATM    4  N1  UNL     1      21.396  32.583   6.281  1.00  0.00    -0.060 N 
ATOM      5  H13 UNL     1      22.379  32.732   6.056  1.00  0.00     0.275 HD
ATOM      6  H12 UNL     1      21.288  31.613   5.986  1.00  0.00     0.275 HD
ATOM      7  H11 UNL     1      20.810  33.189   5.706  1.00  0.00     0.275 HD
ENDBRANCH   1   4
BRANCH   1   8
HETATM    8  C2  UNL     1      22.428  32.677   8.521  1.00  0.00     0.210 C 
HETATM    9  O1  UNL     1      22.857  31.566   8.936  1.00  0.00    -0.646 OA
HETATM   10  O2  UNL     1      23.121  33.834   8.849  1.00  0.00    -0.646 OA
ENDBRANCH   1   8
TORSDOF 2
ENDMDL
