MODEL 3
REMARK VINA RESULT: -3.885743757      0.934      1.621
REMARK  2 active torsions:
REMARK  status: ('A' for Active; 'I' for Inactive)
REMARK    1  A    between atoms: N1_1  and  C1_5 
REMARK    2  A    between atoms: C1_5  and  C2_6 
ROOT
HETATM    1  C1  UNL     1      21.265  32.633   7.731  1.00  0.00     0.210 A 
HETATM    2  C3  UNL     1      20.026  32.006   8.289  1.00  0.00     0.053 A 
HETATM    3  C4  UNL     1      20.075  33.476   8.167  1.00  0.00     0.053 A 
ENDROOT
BRANCH   1   4
HETATM    4  N1  UNL     1      21.495  32.655   6.316  1.00  0.00    -0.060 N 
ATOM      5  H13 UNL     1      22.297  33.247   6.102  1.00  0.00     0.275 HD
ATOM      6  H12 UNL     1      21.850  31.750   6.006  1.00  0.00     0.275 HD
ATOM      7  H11 UNL     1      20.696  32.930   5.743  1.00  0.00     0.275 HD
ENDBRANCH   1   4
BRANCH   1   8
HETATM    8  C2  UNL     1      22.480  32.673   8.577  1.00  0.00     0.210 C 
HETATM    9  O1  UNL     1      23.079  33.774   8.711  1.00  0.00    -0.646 OA
HETATM   10  O2  UNL     1      22.980  31.550   9.222  1.00  0.00    -0.646 OA
ENDBRANCH   1   8
TORSDOF 2
ENDMDL
