MODEL 2
REMARK VINA RESULT: -4.658321525      0.115      1.220
REMARK  2 active torsions:
REMARK  status: ('A' for Active; 'I' for Inactive)
REMARK    1  A    between atoms: N1_1  and  C1_5 
REMARK    2  A    between atoms: C1_5  and  C2_6 
ROOT
HETATM    1  C1  UNL     1      21.384  32.397   7.994  1.00  0.00     0.210 A 
HETATM    2  C3  UNL     1      20.171  33.242   8.223  1.00  0.00     0.053 A 
HETATM    3  C4  UNL     1      20.920  33.415   6.963  1.00  0.00     0.053 A 
ENDROOT
BRANCH   1   4
HETATM    4  N1  UNL     1      21.252  31.037   7.556  1.00  0.00    -0.060 N 
ATOM      5  H13 UNL     1      20.306  30.871   7.214  1.00  0.00     0.275 HD
ATOM      6  H12 UNL     1      21.783  30.893   6.698  1.00  0.00     0.275 HD
ATOM      7  H11 UNL     1      21.503  30.326   8.244  1.00  0.00     0.275 HD
ENDBRANCH   1   4
BRANCH   1   8
HETATM    8  C2  UNL     1      22.616  32.706   8.757  1.00  0.00     0.210 C 
HETATM    9  O1  UNL     1      22.994  33.907   8.820  1.00  0.00    -0.646 OA
HETATM   10  O2  UNL     1      23.363  31.729   9.400  1.00  0.00    -0.646 OA
ENDBRANCH   1   8
TORSDOF 2
ENDMDL
