MODEL 14
REMARK VINA RESULT: -1.943310423      8.219      8.932
REMARK  2 active torsions:
REMARK  status: ('A' for Active; 'I' for Inactive)
REMARK    1  A    between atoms: N1_1  and  C1_5 
REMARK    2  A    between atoms: C1_5  and  C2_6 
ROOT
HETATM    1  C1  UNL     1      15.424  35.558  14.011  1.00  0.00     0.210 A 
HETATM    2  C3  UNL     1      14.142  34.786  13.986  1.00  0.00     0.053 A 
HETATM    3  C4  UNL     1      15.323  34.167  14.617  1.00  0.00     0.053 A 
ENDROOT
BRANCH   1   4
HETATM    4  N1  UNL     1      15.631  36.593  14.983  1.00  0.00    -0.060 N 
ATOM      5  H13 UNL     1      16.593  36.566  15.322  1.00  0.00     0.275 HD
ATOM      6  H12 UNL     1      15.625  37.506  14.527  1.00  0.00     0.275 HD
ATOM      7  H11 UNL     1      14.984  36.593  15.772  1.00  0.00     0.275 HD
ENDBRANCH   1   4
BRANCH   1   8
HETATM    8  C2  UNL     1      16.187  35.704  12.749  1.00  0.00     0.210 C 
HETATM    9  O1  UNL     1      17.309  36.276  12.793  1.00  0.00    -0.646 OA
HETATM   10  O2  UNL     1      15.714  35.238  11.531  1.00  0.00    -0.646 OA
ENDBRANCH   1   8
TORSDOF 2
ENDMDL
