MODEL 6
REMARK VINA RESULT: -3.516139370      1.189      1.709
REMARK  2 active torsions:
REMARK  status: ('A' for Active; 'I' for Inactive)
REMARK    1  A    between atoms: N1_1  and  C1_5 
REMARK    2  A    between atoms: C1_5  and  C2_6 
ROOT
HETATM    1  C1  UNL     1      20.841  33.221   7.919  1.00  0.00     0.210 A 
HETATM    2  C3  UNL     1      20.703  34.685   7.644  1.00  0.00     0.053 A 
HETATM    3  C4  UNL     1      20.762  33.758   6.498  1.00  0.00     0.053 A 
ENDROOT
BRANCH   1   4
HETATM    4  N1  UNL     1      19.699  32.441   8.301  1.00  0.00    -0.060 N 
ATOM      5  H13 UNL     1      18.939  32.587   7.638  1.00  0.00     0.275 HD
ATOM      6  H12 UNL     1      19.886  31.450   8.147  1.00  0.00     0.275 HD
ATOM      7  H11 UNL     1      19.364  32.588   9.254  1.00  0.00     0.275 HD
ENDBRANCH   1   4
BRANCH   1   8
HETATM    8  C2  UNL     1      22.150  32.710   8.388  1.00  0.00     0.210 C 
HETATM    9  O1  UNL     1      23.037  33.547   8.710  1.00  0.00    -0.646 OA
HETATM   10  O2  UNL     1      22.435  31.355   8.484  1.00  0.00    -0.646 OA
ENDBRANCH   1   8
TORSDOF 2
ENDMDL
