MODEL 1
REMARK VINA RESULT: -4.705828726      0.000      0.000
REMARK  2 active torsions:
REMARK  status: ('A' for Active; 'I' for Inactive)
REMARK    1  A    between atoms: N1_1  and  C1_5 
REMARK    2  A    between atoms: C1_5  and  C2_6 
ROOT
HETATM    1  C1  UNL     1      21.342  32.371   7.967  1.00  0.00     0.210 A 
HETATM    2  C3  UNL     1      20.125  33.203   8.224  1.00  0.00     0.053 A 
HETATM    3  C4  UNL     1      20.848  33.391   6.953  1.00  0.00     0.053 A 
ENDROOT
BRANCH   1   4
HETATM    4  N1  UNL     1      21.214  31.013   7.523  1.00  0.00    -0.060 N 
ATOM      5  H13 UNL     1      21.493  30.938   6.545  1.00  0.00     0.275 HD
ATOM      6  H12 UNL     1      21.931  30.434   7.960  1.00  0.00     0.275 HD
ATOM      7  H11 UNL     1      20.295  30.590   7.657  1.00  0.00     0.275 HD
ENDBRANCH   1   4
BRANCH   1   8
HETATM    8  C2  UNL     1      22.584  32.686   8.710  1.00  0.00     0.210 C 
HETATM    9  O1  UNL     1      23.257  31.730   9.182  1.00  0.00    -0.646 OA
HETATM   10  O2  UNL     1      23.031  33.986   8.904  1.00  0.00    -0.646 OA
ENDBRANCH   1   8
TORSDOF 2
ENDMDL
