MODEL 16
REMARK VINA RESULT: -1.339227627      8.335      9.027
REMARK  2 active torsions:
REMARK  status: ('A' for Active; 'I' for Inactive)
REMARK    1  A    between atoms: N1_1  and  C1_5 
REMARK    2  A    between atoms: C1_5  and  C2_6 
ROOT
HETATM    1  C1  UNL     1      15.287  35.564  14.073  1.00  0.00     0.210 A 
HETATM    2  C3  UNL     1      14.072  34.690  14.079  1.00  0.00     0.053 A 
HETATM    3  C4  UNL     1      15.263  34.243  14.826  1.00  0.00     0.053 A 
ENDROOT
BRANCH   1   4
HETATM    4  N1  UNL     1      15.363  36.712  14.929  1.00  0.00    -0.060 N 
ATOM      5  H13 UNL     1      15.637  36.428  15.869  1.00  0.00     0.275 HD
ATOM      6  H12 UNL     1      16.165  37.287  14.672  1.00  0.00     0.275 HD
ATOM      7  H11 UNL     1      14.521  37.287  14.971  1.00  0.00     0.275 HD
ENDBRANCH   1   4
BRANCH   1   8
HETATM    8  C2  UNL     1      16.101  35.634  12.836  1.00  0.00     0.210 C 
HETATM    9  O1  UNL     1      15.546  35.352  11.740  1.00  0.00    -0.646 OA
HETATM   10  O2  UNL     1      17.441  35.994  12.842  1.00  0.00    -0.646 OA
ENDBRANCH   1   8
TORSDOF 2
ENDMDL
