MODEL 15
REMARK VINA RESULT: -1.446673297      8.064      8.631
REMARK  2 active torsions:
REMARK  status: ('A' for Active; 'I' for Inactive)
REMARK    1  A    between atoms: N1_1  and  C1_5 
REMARK    2  A    between atoms: C1_5  and  C2_6 
ROOT
HETATM    1  C1  UNL     1      16.391  36.093  13.645  1.00  0.00     0.210 A 
HETATM    2  C3  UNL     1      17.880  36.065  13.502  1.00  0.00     0.053 A 
HETATM    3  C4  UNL     1      17.161  37.298  13.128  1.00  0.00     0.053 A 
ENDROOT
BRANCH   1   4
HETATM    4  N1  UNL     1      15.787  36.307  14.929  1.00  0.00    -0.060 N 
ATOM      5  H13 UNL     1      16.508  36.475  15.630  1.00  0.00     0.275 HD
ATOM      6  H12 UNL     1      15.307  37.206  14.943  1.00  0.00     0.275 HD
ATOM      7  H11 UNL     1      15.156  35.570  15.247  1.00  0.00     0.275 HD
ENDBRANCH   1   4
BRANCH   1   8
HETATM    8  C2  UNL     1      15.572  35.332  12.672  1.00  0.00     0.210 C 
HETATM    9  O1  UNL     1      14.558  34.716  13.099  1.00  0.00    -0.646 OA
HETATM   10  O2  UNL     1      15.879  35.272  11.320  1.00  0.00    -0.646 OA
ENDBRANCH   1   8
TORSDOF 2
ENDMDL
