MODEL 5
REMARK VINA RESULT: -8.224918186      1.765      2.493
REMARK  9 active torsions:
REMARK  status: ('A' for Active; 'I' for Inactive)
REMARK    1  A    between atoms: C1_2  and  C2_4 
REMARK    2  A    between atoms: C4_6  and  O3_7 
REMARK    3  A    between atoms: C5_9  and  O4_10 
REMARK    4  A    between atoms: C6_12  and  O5_13 
REMARK    5  A    between atoms: O5_13  and  C7_14 
REMARK    6  A    between atoms: C8_15  and  C9_16 
REMARK    7  A    between atoms: C10_20  and  O9_21 
REMARK    8  A    between atoms: C11_23  and  O10_24 
REMARK    9  A    between atoms: C12_26  and  O11_27 
ROOT
HETATM    1  C7  UNL     1     -18.462  -7.021  20.535  1.00  0.00     0.195 C 
HETATM    2  C8  UNL     1     -19.434  -6.305  19.679  1.00  0.00     0.257 C 
HETATM    3  O8  UNL     1     -20.305  -7.151  18.979  1.00  0.00    -0.340 OA
HETATM    4  C10 UNL     1     -20.936  -7.930  19.949  1.00  0.00     0.289 C 
HETATM    5  C11 UNL     1     -19.959  -9.027  20.309  1.00  0.00     0.204 C 
HETATM    6  C12 UNL     1     -18.563  -8.513  20.503  1.00  0.00     0.183 C 
ENDROOT
BRANCH   1   7
HETATM    7  O5  UNL     1     -18.592  -6.579  21.850  1.00  0.00    -0.347 OA
BRANCH   7   8
HETATM    8  C6  UNL     1     -17.716  -5.577  22.188  1.00  0.00     0.298 C 
HETATM    9  C5  UNL     1     -17.855  -5.193  23.642  1.00  0.00     0.206 C 
HETATM   10  C4  UNL     1     -17.474  -6.436  24.448  1.00  0.00     0.177 C 
HETATM   11  C3  UNL     1     -16.026  -6.653  24.216  1.00  0.00     0.051 C 
HETATM   12  C2  UNL     1     -15.549  -6.427  23.008  1.00  0.00     0.147 C 
HETATM   13  O12 UNL     1     -16.370  -6.000  21.989  1.00  0.00    -0.311 OA
BRANCH   9  14
HETATM   14  O4  UNL     1     -19.100  -4.727  23.977  1.00  0.00    -0.388 OA
ATOM     15  H4  UNL     1     -19.729  -4.858  23.277  1.00  0.00     0.210 HD
ENDBRANCH   9  14
BRANCH  10  16
HETATM   16  O3  UNL     1     -18.156  -7.504  23.850  1.00  0.00    -0.389 OA
ATOM     17  H3  UNL     1     -18.948  -7.152  23.462  1.00  0.00     0.210 HD
ENDBRANCH  10  16
BRANCH  12  18
HETATM   18  C1  UNL     1     -14.111  -6.648  22.799  1.00  0.00     0.233 C 
HETATM   19  O1  UNL     1     -13.536  -7.687  23.226  1.00  0.00    -0.642 OA
HETATM   20  O2  UNL     1     -13.321  -5.727  22.128  1.00  0.00    -0.642 OA
ENDBRANCH  12  18
ENDBRANCH   7   8
ENDBRANCH   1   7
BRANCH   2  21
HETATM   21  C9  UNL     1     -18.737  -5.460  18.647  1.00  0.00     0.206 C 
HETATM   22  O6  UNL     1     -19.257  -5.235  17.525  1.00  0.00    -0.646 OA
HETATM   23  O7  UNL     1     -17.493  -4.891  18.880  1.00  0.00    -0.646 OA
ENDBRANCH   2  21
BRANCH   6  24
HETATM   24  O11 UNL     1     -17.767  -9.025  19.471  1.00  0.00    -0.390 OA
ATOM     25  H11 UNL     1     -16.894  -8.653  19.519  1.00  0.00     0.210 HD
ENDBRANCH   6  24
BRANCH   5  26
HETATM   26  O10 UNL     1     -20.018  -9.976  19.281  1.00  0.00    -0.388 OA
ATOM     27  H10 UNL     1     -19.125 -10.250  19.109  1.00  0.00     0.210 HD
ENDBRANCH   5  26
BRANCH   4  28
HETATM   28  O9  UNL     1     -21.278  -7.170  21.071  1.00  0.00    -0.368 OA
ATOM     29  H9  UNL     1     -20.660  -7.303  21.780  1.00  0.00     0.212 HD
ENDBRANCH   4  28
TORSDOF 9
ENDMDL
