MODEL 4
REMARK VINA RESULT: -8.230726147      1.854      2.456
REMARK  9 active torsions:
REMARK  status: ('A' for Active; 'I' for Inactive)
REMARK    1  A    between atoms: C1_2  and  C2_4 
REMARK    2  A    between atoms: C4_6  and  O3_7 
REMARK    3  A    between atoms: C5_9  and  O4_10 
REMARK    4  A    between atoms: C6_12  and  O5_13 
REMARK    5  A    between atoms: O5_13  and  C7_14 
REMARK    6  A    between atoms: C8_15  and  C9_16 
REMARK    7  A    between atoms: C10_20  and  O9_21 
REMARK    8  A    between atoms: C11_23  and  O10_24 
REMARK    9  A    between atoms: C12_26  and  O11_27 
ROOT
HETATM    1  C7  UNL     1     -18.362  -7.197  20.659  1.00  0.00     0.195 C 
HETATM    2  C8  UNL     1     -19.391  -6.390  19.966  1.00  0.00     0.257 C 
HETATM    3  O8  UNL     1     -20.351  -7.153  19.289  1.00  0.00    -0.340 OA
HETATM    4  C10 UNL     1     -20.909  -7.998  20.249  1.00  0.00     0.289 C 
HETATM    5  C11 UNL     1     -19.936  -9.143  20.419  1.00  0.00     0.204 C 
HETATM    6  C12 UNL     1     -18.513  -8.679  20.515  1.00  0.00     0.183 C 
ENDROOT
BRANCH   1   7
HETATM    7  O5  UNL     1     -18.350  -6.866  22.012  1.00  0.00    -0.347 OA
BRANCH   7   8
HETATM    8  C6  UNL     1     -17.181  -6.279  22.429  1.00  0.00     0.298 C 
HETATM    9  C5  UNL     1     -17.451  -5.058  23.277  1.00  0.00     0.206 C 
HETATM   10  C4  UNL     1     -18.191  -5.559  24.519  1.00  0.00     0.177 C 
HETATM   11  C3  UNL     1     -17.218  -6.380  25.278  1.00  0.00     0.051 C 
HETATM   12  C2  UNL     1     -16.388  -7.147  24.599  1.00  0.00     0.147 C 
HETATM   13  O12 UNL     1     -16.421  -7.185  23.224  1.00  0.00    -0.311 OA
BRANCH   9  14
HETATM   14  O4  UNL     1     -18.150  -4.074  22.627  1.00  0.00    -0.388 OA
ATOM     15  H4  UNL     1     -17.609  -3.610  21.999  1.00  0.00     0.210 HD
ENDBRANCH   9  14
BRANCH  10  16
HETATM   16  O3  UNL     1     -19.188  -6.424  24.049  1.00  0.00    -0.389 OA
ATOM     17  H3  UNL     1     -19.005  -7.285  24.405  1.00  0.00     0.210 HD
ENDBRANCH  10  16
BRANCH  12  18
HETATM   18  C1  UNL     1     -15.430  -7.953  25.370  1.00  0.00     0.233 C 
HETATM   19  O1  UNL     1     -15.511  -8.047  26.626  1.00  0.00    -0.642 OA
HETATM   20  O2  UNL     1     -14.397  -8.644  24.756  1.00  0.00    -0.642 OA
ENDBRANCH  12  18
ENDBRANCH   7   8
ENDBRANCH   1   7
BRANCH   2  21
HETATM   21  C9  UNL     1     -18.771  -5.477  18.942  1.00  0.00     0.206 C 
HETATM   22  O6  UNL     1     -17.729  -4.820  19.196  1.00  0.00    -0.646 OA
HETATM   23  O7  UNL     1     -19.314  -5.314  17.675  1.00  0.00    -0.646 OA
ENDBRANCH   2  21
BRANCH   6  24
HETATM   24  O11 UNL     1     -17.836  -9.120  19.370  1.00  0.00    -0.390 OA
ATOM     25  H11 UNL     1     -17.955  -8.496  18.663  1.00  0.00     0.210 HD
ENDBRANCH   6  24
BRANCH   5  26
HETATM   26  O10 UNL     1     -20.124 -10.000  19.328  1.00  0.00    -0.388 OA
ATOM     27  H10 UNL     1     -20.245 -10.874  19.682  1.00  0.00     0.210 HD
ENDBRANCH   5  26
BRANCH   4  28
HETATM   28  O9  UNL     1     -21.116  -7.328  21.459  1.00  0.00    -0.368 OA
ATOM     29  H9  UNL     1     -22.008  -7.010  21.529  1.00  0.00     0.212 HD
ENDBRANCH   4  28
TORSDOF 9
ENDMDL
