MODEL 2
REMARK VINA RESULT: -8.328911296      2.180      6.253
REMARK  9 active torsions:
REMARK  status: ('A' for Active; 'I' for Inactive)
REMARK    1  A    between atoms: C1_2  and  C2_4 
REMARK    2  A    between atoms: C4_6  and  O3_7 
REMARK    3  A    between atoms: C5_9  and  O4_10 
REMARK    4  A    between atoms: C6_12  and  O5_13 
REMARK    5  A    between atoms: O5_13  and  C7_14 
REMARK    6  A    between atoms: C8_15  and  C9_16 
REMARK    7  A    between atoms: C10_20  and  O9_21 
REMARK    8  A    between atoms: C11_23  and  O10_24 
REMARK    9  A    between atoms: C12_26  and  O11_27 
ROOT
HETATM    1  C7  UNL     1     -17.017  -5.804  22.507  1.00  0.00     0.195 C 
HETATM    2  C8  UNL     1     -16.058  -6.605  23.301  1.00  0.00     0.257 C 
HETATM    3  O8  UNL     1     -15.963  -6.211  24.642  1.00  0.00    -0.340 OA
HETATM    4  C10 UNL     1     -17.259  -6.291  25.152  1.00  0.00     0.289 C 
HETATM    5  C11 UNL     1     -17.968  -5.033  24.703  1.00  0.00     0.204 C 
HETATM    6  C12 UNL     1     -17.712  -4.714  23.260  1.00  0.00     0.183 C 
ENDROOT
BRANCH   1   7
HETATM    7  O5  UNL     1     -17.969  -6.651  21.943  1.00  0.00    -0.347 OA
BRANCH   7   8
HETATM    8  C6  UNL     1     -17.793  -6.865  20.598  1.00  0.00     0.298 C 
HETATM    9  C5  UNL     1     -17.619  -8.334  20.292  1.00  0.00     0.206 C 
HETATM   10  C4  UNL     1     -18.928  -9.011  20.705  1.00  0.00     0.177 C 
HETATM   11  C3  UNL     1     -19.964  -8.516  19.769  1.00  0.00     0.051 C 
HETATM   12  C2  UNL     1     -19.916  -7.252  19.399  1.00  0.00     0.147 C 
HETATM   13  O12 UNL     1     -18.930  -6.413  19.867  1.00  0.00    -0.311 OA
BRANCH   9  14
HETATM   14  O4  UNL     1     -16.532  -8.904  20.903  1.00  0.00    -0.388 OA
ATOM     15  H4  UNL     1     -15.734  -8.419  20.731  1.00  0.00     0.210 HD
ENDBRANCH   9  14
BRANCH  10  16
HETATM   16  O3  UNL     1     -19.237  -8.505  21.975  1.00  0.00    -0.389 OA
ATOM     17  H3  UNL     1     -18.650  -8.920  22.595  1.00  0.00     0.210 HD
ENDBRANCH  10  16
BRANCH  12  18
HETATM   18  C1  UNL     1     -20.953  -6.781  18.470  1.00  0.00     0.233 C 
HETATM   19  O1  UNL     1     -20.946  -7.113  17.253  1.00  0.00    -0.642 OA
HETATM   20  O2  UNL     1     -21.983  -5.952  18.886  1.00  0.00    -0.642 OA
ENDBRANCH  12  18
ENDBRANCH   7   8
ENDBRANCH   1   7
BRANCH   2  21
HETATM   21  C9  UNL     1     -14.668  -6.515  22.730  1.00  0.00     0.206 C 
HETATM   22  O6  UNL     1     -14.144  -7.487  22.127  1.00  0.00    -0.646 OA
HETATM   23  O7  UNL     1     -13.900  -5.365  22.837  1.00  0.00    -0.646 OA
ENDBRANCH   2  21
BRANCH   6  24
HETATM   24  O11 UNL     1     -16.955  -3.537  23.205  1.00  0.00    -0.390 OA
ATOM     25  H11 UNL     1     -16.171  -3.631  23.734  1.00  0.00     0.210 HD
ENDBRANCH   6  24
BRANCH   5  26
HETATM   26  O10 UNL     1     -17.532  -4.001  25.542  1.00  0.00    -0.388 OA
ATOM     27  H10 UNL     1     -17.705  -4.280  26.434  1.00  0.00     0.210 HD
ENDBRANCH   5  26
BRANCH   4  28
HETATM   28  O9  UNL     1     -17.918  -7.435  24.691  1.00  0.00    -0.368 OA
ATOM     29  H9  UNL     1     -18.464  -7.816  25.368  1.00  0.00     0.212 HD
ENDBRANCH   4  28
TORSDOF 9
ENDMDL
