MODEL 4
REMARK VINA RESULT: -8.880561017      3.647      7.208
REMARK  5 active torsions:
REMARK  status: ('A' for Active; 'I' for Inactive)
REMARK    1  A    between atoms: C1_2  and  C2_6 
REMARK    2  A    between atoms: C5_9  and  C6_10 
REMARK    3  A    between atoms: N3_14  and  C9_15 
REMARK    4  A    between atoms: C9_15  and  C10_16 
REMARK    5  A    between atoms: C17_25  and  C18_26 
ROOT
HETATM    1  C6  UNL     1      -1.899   3.951  22.200  1.00  0.00     0.270 C 
HETATM    2  C7  UNL     1      -2.166   2.746  21.319  1.00  0.00     0.124 C 
HETATM    3  C8  UNL     1      -1.362   2.720  20.096  1.00  0.00     0.227 C 
HETATM    4  O1  UNL     1      -0.989   3.635  19.322  1.00  0.00    -0.273 OA
HETATM    5  N3  UNL     1      -1.012   1.342  19.874  1.00  0.00    -0.342 N 
HETATM    6  C17 UNL     1      -1.217   0.604  21.103  1.00  0.00     0.098 C 
HETATM    7  C21 UNL     1      -1.437   1.672  22.150  1.00  0.00     0.058 C 
HETATM    8  C22 UNL     1      -0.176   2.415  22.487  1.00  0.00     0.231 C 
HETATM    9  C23 UNL     1       0.475   2.022  23.766  1.00  0.00     0.038 C 
HETATM   10  C24 UNL     1      -0.083   2.966  24.777  1.00  0.00     0.032 C 
HETATM   11  C25 UNL     1      -0.398   4.198  23.962  1.00  0.00     0.274 C 
HETATM   12  N4  UNL     1      -0.533   3.815  22.589  1.00  0.00     0.103 N 
ENDROOT
BRANCH   1  13
HETATM   13  C5  UNL     1      -2.268   5.213  21.552  1.00  0.00    -0.024 A 
HETATM   14  C4  UNL     1      -3.574   5.636  21.509  1.00  0.00     0.010 A 
HETATM   15  C3  UNL     1      -3.931   6.834  20.888  1.00  0.00     0.015 A 
HETATM   16  C2  UNL     1      -2.985   7.644  20.291  1.00  0.00     0.004 A 
HETATM   17  C27 UNL     1      -1.676   7.230  20.329  1.00  0.00     0.015 A 
HETATM   18  C26 UNL     1      -1.328   6.025  20.955  1.00  0.00     0.010 A 
BRANCH  16  19
HETATM   19  C1  UNL     1      -3.422   8.904  19.653  1.00  0.00     0.120 C 
HETATM   20  N1  UNL     1      -2.434   9.883  19.366  1.00  0.00    -0.082 NA
HETATM   21  N2  UNL     1      -4.648   9.136  19.353  1.00  0.00    -0.387 N 
ATOM     22  H22 UNL     1      -4.950  10.006  18.913  1.00  0.00     0.157 HD
ATOM     23  H21 UNL     1      -5.357   8.433  19.559  1.00  0.00     0.157 HD
ENDBRANCH  16  19
ENDBRANCH   1  13
BRANCH   5  24
HETATM   24  C9  UNL     1      -0.531   0.781  18.635  1.00  0.00     0.165 C 
BRANCH  24  25
HETATM   25  C10 UNL     1       0.431  -0.358  18.860  1.00  0.00    -0.037 A 
HETATM   26  C11 UNL     1       0.078  -1.651  18.581  1.00  0.00     0.012 A 
HETATM   27  C12 UNL     1       0.973  -2.666  18.792  1.00  0.00     0.040 A 
HETATM   28  C13 UNL     1       2.222  -2.362  19.285  1.00  0.00     0.105 A 
HETATM   29  C14 UNL     1       2.583  -1.042  19.571  1.00  0.00     0.105 A 
HETATM   30  O3  UNL     1       3.296  -3.160  19.588  1.00  0.00    -0.323 OA
HETATM   31  C15 UNL     1       1.672  -0.037  19.353  1.00  0.00     0.048 A 
HETATM   32  O2  UNL     1       3.886  -1.020  20.052  1.00  0.00    -0.323 OA
HETATM   33  C16 UNL     1       4.291  -2.365  20.169  1.00  0.00     0.352 C 
ENDBRANCH  24  25
ENDBRANCH   5  24
BRANCH   6  34
HETATM   34  C18 UNL     1      -2.346  -0.364  21.006  1.00  0.00     0.009 A 
HETATM   35  C19 UNL     1      -3.047  -0.899  22.183  1.00  0.00     0.007 A 
HETATM   36  C20 UNL     1      -2.004  -1.771  21.522  1.00  0.00     0.007 A 
ENDBRANCH   6  34
TORSDOF 5
ENDMDL
