MODEL 2
REMARK VINA RESULT: -9.190730473      3.549      7.356
REMARK  5 active torsions:
REMARK  status: ('A' for Active; 'I' for Inactive)
REMARK    1  A    between atoms: C1_2  and  C2_6 
REMARK    2  A    between atoms: C5_9  and  C6_10 
REMARK    3  A    between atoms: N3_14  and  C9_15 
REMARK    4  A    between atoms: C9_15  and  C10_16 
REMARK    5  A    between atoms: C17_25  and  C18_26 
ROOT
HETATM    1  C6  UNL     1      -2.016   4.084  22.258  1.00  0.00     0.270 C 
HETATM    2  C7  UNL     1      -2.218   2.871  21.371  1.00  0.00     0.124 C 
HETATM    3  C8  UNL     1      -1.368   2.865  20.179  1.00  0.00     0.227 C 
HETATM    4  O1  UNL     1      -0.991   3.788  19.417  1.00  0.00    -0.273 OA
HETATM    5  N3  UNL     1      -0.974   1.496  19.974  1.00  0.00    -0.342 N 
HETATM    6  C17 UNL     1      -1.205   0.755  21.197  1.00  0.00     0.098 C 
HETATM    7  C21 UNL     1      -1.492   1.818  22.232  1.00  0.00     0.058 C 
HETATM    8  C22 UNL     1      -0.265   2.596  22.614  1.00  0.00     0.231 C 
HETATM    9  C23 UNL     1       0.348   2.223  23.917  1.00  0.00     0.038 C 
HETATM   10  C24 UNL     1      -0.272   3.153  24.904  1.00  0.00     0.032 C 
HETATM   11  C25 UNL     1      -0.589   4.375  24.074  1.00  0.00     0.274 C 
HETATM   12  N4  UNL     1      -0.662   3.986  22.698  1.00  0.00     0.103 N 
ENDROOT
BRANCH   1  13
HETATM   13  C5  UNL     1      -2.394   5.335  21.592  1.00  0.00    -0.024 A 
HETATM   14  C4  UNL     1      -3.706   5.739  21.529  1.00  0.00     0.010 A 
HETATM   15  C3  UNL     1      -4.071   6.926  20.892  1.00  0.00     0.015 A 
HETATM   16  C2  UNL     1      -3.129   7.744  20.299  1.00  0.00     0.004 A 
HETATM   17  C27 UNL     1      -1.815   7.348  20.358  1.00  0.00     0.015 A 
HETATM   18  C26 UNL     1      -1.458   6.155  21.000  1.00  0.00     0.010 A 
BRANCH  16  19
HETATM   19  C1  UNL     1      -3.574   8.991  19.643  1.00  0.00     0.120 C 
HETATM   20  N1  UNL     1      -2.599   9.987  19.372  1.00  0.00    -0.082 NA
HETATM   21  N2  UNL     1      -4.798   9.199  19.315  1.00  0.00    -0.387 N 
ATOM     22  H22 UNL     1      -5.106  10.059  18.863  1.00  0.00     0.157 HD
ATOM     23  H21 UNL     1      -5.498   8.484  19.509  1.00  0.00     0.157 HD
ENDBRANCH  16  19
ENDBRANCH   1  13
BRANCH   5  24
HETATM   24  C9  UNL     1      -0.432   0.945  18.756  1.00  0.00     0.165 C 
BRANCH  24  25
HETATM   25  C10 UNL     1       0.742   0.036  19.012  1.00  0.00    -0.037 A 
HETATM   26  C11 UNL     1       1.821   0.457  19.742  1.00  0.00     0.012 A 
HETATM   27  C12 UNL     1       2.873  -0.392  19.962  1.00  0.00     0.040 A 
HETATM   28  C13 UNL     1       2.824  -1.664  19.439  1.00  0.00     0.105 A 
HETATM   29  C14 UNL     1       1.724  -2.095  18.693  1.00  0.00     0.105 A 
HETATM   30  O3  UNL     1       3.717  -2.704  19.499  1.00  0.00    -0.323 OA
HETATM   31  C15 UNL     1       0.677  -1.230  18.482  1.00  0.00     0.048 A 
HETATM   32  O2  UNL     1       1.933  -3.408  18.289  1.00  0.00    -0.323 OA
HETATM   33  C16 UNL     1       3.237  -3.749  18.700  1.00  0.00     0.352 C 
ENDBRANCH  24  25
ENDBRANCH   5  24
BRANCH   6  34
HETATM   34  C18 UNL     1      -2.303  -0.243  21.060  1.00  0.00     0.009 A 
HETATM   35  C19 UNL     1      -2.817  -1.029  22.192  1.00  0.00     0.007 A 
HETATM   36  C20 UNL     1      -1.846  -1.699  21.246  1.00  0.00     0.007 A 
ENDBRANCH   6  34
TORSDOF 5
ENDMDL
