MODEL 5
REMARK VINA RESULT: -8.867292836      2.665      7.064
REMARK  5 active torsions:
REMARK  status: ('A' for Active; 'I' for Inactive)
REMARK    1  A    between atoms: C1_2  and  C2_6 
REMARK    2  A    between atoms: C5_9  and  C6_10 
REMARK    3  A    between atoms: N3_14  and  C9_15 
REMARK    4  A    between atoms: C9_15  and  C10_16 
REMARK    5  A    between atoms: C17_25  and  C18_26 
ROOT
HETATM    1  C6  UNL     1      -2.267   2.842  25.877  1.00  0.00     0.270 C 
HETATM    2  C7  UNL     1      -2.683   3.289  24.488  1.00  0.00     0.124 C 
HETATM    3  C8  UNL     1      -1.656   4.059  23.785  1.00  0.00     0.227 C 
HETATM    4  O1  UNL     1      -0.830   4.913  24.187  1.00  0.00    -0.273 OA
HETATM    5  N3  UNL     1      -1.725   3.654  22.405  1.00  0.00    -0.342 N 
HETATM    6  C17 UNL     1      -2.452   2.404  22.321  1.00  0.00     0.098 C 
HETATM    7  C21 UNL     1      -2.566   1.939  23.754  1.00  0.00     0.058 C 
HETATM    8  C22 UNL     1      -1.257   1.454  24.307  1.00  0.00     0.231 C 
HETATM    9  C23 UNL     1      -1.103  -0.024  24.381  1.00  0.00     0.038 C 
HETATM   10  C24 UNL     1      -1.557  -0.381  25.756  1.00  0.00     0.032 C 
HETATM   11  C25 UNL     1      -1.248   0.862  26.556  1.00  0.00     0.274 C 
HETATM   12  N4  UNL     1      -1.157   1.973  25.656  1.00  0.00     0.103 N 
ENDROOT
BRANCH   1  13
HETATM   13  C5  UNL     1      -2.038   3.971  26.785  1.00  0.00    -0.024 A 
HETATM   14  C4  UNL     1      -0.912   4.036  27.569  1.00  0.00     0.010 A 
HETATM   15  C3  UNL     1      -0.693   5.105  28.439  1.00  0.00     0.015 A 
HETATM   16  C2  UNL     1      -1.598   6.142  28.546  1.00  0.00     0.004 A 
HETATM   17  C27 UNL     1      -2.726   6.086  27.766  1.00  0.00     0.015 A 
HETATM   18  C26 UNL     1      -2.938   5.008  26.896  1.00  0.00     0.010 A 
BRANCH  16  19
HETATM   19  C1  UNL     1      -1.310   7.250  29.481  1.00  0.00     0.120 C 
HETATM   20  N1  UNL     1      -2.395   7.810  30.206  1.00  0.00    -0.082 NA
HETATM   21  N2  UNL     1      -0.126   7.714  29.657  1.00  0.00    -0.387 N 
ATOM     22  H22 UNL     1       0.074   8.479  30.302  1.00  0.00     0.157 HD
ATOM     23  H21 UNL     1       0.654   7.312  29.137  1.00  0.00     0.157 HD
ENDBRANCH  16  19
ENDBRANCH   1  13
BRANCH   5  24
HETATM   24  C9  UNL     1      -1.162   4.368  21.285  1.00  0.00     0.165 C 
BRANCH  24  25
HETATM   25  C10 UNL     1      -1.936   5.619  20.958  1.00  0.00    -0.037 A 
HETATM   26  C11 UNL     1      -3.282   5.704  21.192  1.00  0.00     0.012 A 
HETATM   27  C12 UNL     1      -3.959   6.855  20.887  1.00  0.00     0.040 A 
HETATM   28  C13 UNL     1      -3.265   7.913  20.345  1.00  0.00     0.105 A 
HETATM   29  C14 UNL     1      -1.892   7.828  20.104  1.00  0.00     0.105 A 
HETATM   30  O3  UNL     1      -3.679   9.160  19.949  1.00  0.00    -0.323 OA
HETATM   31  C15 UNL     1      -1.228   6.665  20.417  1.00  0.00     0.048 A 
HETATM   32  O2  UNL     1      -1.449   9.026  19.558  1.00  0.00    -0.323 OA
HETATM   33  C16 UNL     1      -2.596   9.820  19.356  1.00  0.00     0.352 C 
ENDBRANCH  24  25
ENDBRANCH   5  24
BRANCH   6  34
HETATM   34  C18 UNL     1      -3.772   2.557  21.646  1.00  0.00     0.009 A 
HETATM   35  C19 UNL     1      -4.868   1.588  21.800  1.00  0.00     0.007 A 
HETATM   36  C20 UNL     1      -4.030   1.518  20.543  1.00  0.00     0.007 A 
ENDBRANCH   6  34
TORSDOF 5
ENDMDL
