MODEL 8
REMARK VINA RESULT: -8.785873029      0.609      1.070
REMARK  5 active torsions:
REMARK  status: ('A' for Active; 'I' for Inactive)
REMARK    1  A    between atoms: C1_2  and  C2_6 
REMARK    2  A    between atoms: C5_9  and  C6_10 
REMARK    3  A    between atoms: N3_14  and  C9_15 
REMARK    4  A    between atoms: C9_15  and  C10_16 
REMARK    5  A    between atoms: C17_25  and  C18_26 
ROOT
HETATM    1  C6  UNL     1      -1.150   4.201  21.491  1.00  0.00     0.270 C 
HETATM    2  C7  UNL     1      -1.014   4.160  23.001  1.00  0.00     0.124 C 
HETATM    3  C8  UNL     1      -2.296   4.149  23.707  1.00  0.00     0.227 C 
HETATM    4  O1  UNL     1      -3.383   4.732  23.476  1.00  0.00    -0.273 OA
HETATM    5  N3  UNL     1      -2.125   3.272  24.836  1.00  0.00    -0.342 N 
HETATM    6  C17 UNL     1      -0.952   2.451  24.616  1.00  0.00     0.098 C 
HETATM    7  C21 UNL     1      -0.596   2.686  23.166  1.00  0.00     0.058 C 
HETATM    8  C22 UNL     1      -1.564   2.032  22.223  1.00  0.00     0.231 C 
HETATM    9  C23 UNL     1      -1.093   0.767  21.598  1.00  0.00     0.038 C 
HETATM   10  C24 UNL     1      -0.474   1.192  20.310  1.00  0.00     0.032 C 
HETATM   11  C25 UNL     1      -1.234   2.450  19.960  1.00  0.00     0.274 C 
HETATM   12  N4  UNL     1      -1.811   2.982  21.157  1.00  0.00     0.103 N 
ENDROOT
BRANCH   1  13
HETATM   13  C5  UNL     1      -1.784   5.436  21.018  1.00  0.00    -0.024 A 
HETATM   14  C4  UNL     1      -1.032   6.507  20.600  1.00  0.00     0.010 A 
HETATM   15  C3  UNL     1      -1.632   7.686  20.153  1.00  0.00     0.015 A 
HETATM   16  C2  UNL     1      -3.005   7.824  20.114  1.00  0.00     0.004 A 
HETATM   17  C27 UNL     1      -3.765   6.758  20.529  1.00  0.00     0.015 A 
HETATM   18  C26 UNL     1      -3.154   5.579  20.975  1.00  0.00     0.010 A 
BRANCH  16  19
HETATM   19  C1  UNL     1      -3.583   9.095  19.627  1.00  0.00     0.120 C 
HETATM   20  N1  UNL     1      -2.709  10.201  19.453  1.00  0.00    -0.082 NA
HETATM   21  N2  UNL     1      -4.831   9.228  19.361  1.00  0.00    -0.387 N 
ATOM     22  H22 UNL     1      -5.230  10.105  19.025  1.00  0.00     0.157 HD
ATOM     23  H21 UNL     1      -5.459   8.434  19.485  1.00  0.00     0.157 HD
ENDBRANCH  16  19
ENDBRANCH   1  13
BRANCH   5  24
HETATM   24  C9  UNL     1      -2.979   3.211  25.997  1.00  0.00     0.165 C 
BRANCH  24  25
HETATM   25  C10 UNL     1      -2.325   3.804  27.219  1.00  0.00    -0.037 A 
HETATM   26  C11 UNL     1      -2.138   3.063  28.354  1.00  0.00     0.012 A 
HETATM   27  C12 UNL     1      -1.538   3.626  29.449  1.00  0.00     0.040 A 
HETATM   28  C13 UNL     1      -1.133   4.940  29.385  1.00  0.00     0.105 A 
HETATM   29  C14 UNL     1      -1.324   5.698  28.227  1.00  0.00     0.105 A 
HETATM   30  O3  UNL     1      -0.519   5.746  30.311  1.00  0.00    -0.323 OA
HETATM   31  C15 UNL     1      -1.927   5.116  27.137  1.00  0.00     0.048 A 
HETATM   32  O2  UNL     1      -0.827   6.979  28.433  1.00  0.00    -0.323 OA
HETATM   33  C16 UNL     1      -0.426   7.039  29.783  1.00  0.00     0.352 C 
ENDBRANCH  24  25
ENDBRANCH   5  24
BRANCH   6  34
HETATM   34  C18 UNL     1       0.158   2.780  25.554  1.00  0.00     0.009 A 
HETATM   35  C19 UNL     1       1.498   2.182  25.452  1.00  0.00     0.007 A 
HETATM   36  C20 UNL     1       0.549   1.621  26.486  1.00  0.00     0.007 A 
ENDBRANCH   6  34
TORSDOF 5
ENDMDL
