MODEL 1
REMARK VINA RESULT: -9.222698987      0.000      0.000
REMARK  5 active torsions:
REMARK  status: ('A' for Active; 'I' for Inactive)
REMARK    1  A    between atoms: C1_2  and  C2_6 
REMARK    2  A    between atoms: C5_9  and  C6_10 
REMARK    3  A    between atoms: N3_14  and  C9_15 
REMARK    4  A    between atoms: C9_15  and  C10_16 
REMARK    5  A    between atoms: C17_25  and  C18_26 
ROOT
HETATM    1  C6  UNL     1      -1.081   4.121  21.385  1.00  0.00     0.270 C 
HETATM    2  C7  UNL     1      -0.913   4.079  22.892  1.00  0.00     0.124 C 
HETATM    3  C8  UNL     1      -2.180   4.068  23.626  1.00  0.00     0.227 C 
HETATM    4  O1  UNL     1      -3.271   4.652  23.418  1.00  0.00    -0.273 OA
HETATM    5  N3  UNL     1      -1.984   3.190  24.749  1.00  0.00    -0.342 N 
HETATM    6  C17 UNL     1      -0.817   2.369  24.505  1.00  0.00     0.098 C 
HETATM    7  C21 UNL     1      -0.492   2.605  23.047  1.00  0.00     0.058 C 
HETATM    8  C22 UNL     1      -1.481   1.952  22.124  1.00  0.00     0.231 C 
HETATM    9  C23 UNL     1      -1.024   0.687  21.489  1.00  0.00     0.038 C 
HETATM   10  C24 UNL     1      -0.432   1.112  20.188  1.00  0.00     0.032 C 
HETATM   11  C25 UNL     1      -1.199   2.371  19.855  1.00  0.00     0.274 C 
HETATM   12  N4  UNL     1      -1.750   2.902  21.065  1.00  0.00     0.103 N 
ENDROOT
BRANCH   1  13
HETATM   13  C5  UNL     1      -1.725   5.356  20.926  1.00  0.00    -0.024 A 
HETATM   14  C4  UNL     1      -0.984   6.468  20.607  1.00  0.00     0.010 A 
HETATM   15  C3  UNL     1      -1.594   7.648  20.175  1.00  0.00     0.015 A 
HETATM   16  C2  UNL     1      -2.965   7.745  20.051  1.00  0.00     0.004 A 
HETATM   17  C27 UNL     1      -3.714   6.638  20.367  1.00  0.00     0.015 A 
HETATM   18  C26 UNL     1      -3.093   5.459  20.800  1.00  0.00     0.010 A 
BRANCH  16  19
HETATM   19  C1  UNL     1      -3.553   9.019  19.584  1.00  0.00     0.120 C 
HETATM   20  N1  UNL     1      -2.685  10.129  19.409  1.00  0.00    -0.082 NA
HETATM   21  N2  UNL     1      -4.805   9.151  19.335  1.00  0.00    -0.387 N 
ATOM     22  H22 UNL     1      -5.211  10.030  19.014  1.00  0.00     0.157 HD
ATOM     23  H21 UNL     1      -5.429   8.354  19.461  1.00  0.00     0.157 HD
ENDBRANCH  16  19
ENDBRANCH   1  13
BRANCH   5  24
HETATM   24  C9  UNL     1      -2.814   3.129  25.928  1.00  0.00     0.165 C 
BRANCH  24  25
HETATM   25  C10 UNL     1      -2.603   4.313  26.837  1.00  0.00    -0.037 A 
HETATM   26  C11 UNL     1      -3.421   5.409  26.777  1.00  0.00     0.012 A 
HETATM   27  C12 UNL     1      -3.208   6.469  27.617  1.00  0.00     0.040 A 
HETATM   28  C13 UNL     1      -2.164   6.411  28.513  1.00  0.00     0.105 A 
HETATM   29  C14 UNL     1      -1.329   5.293  28.575  1.00  0.00     0.105 A 
HETATM   30  O3  UNL     1      -1.726   7.309  29.454  1.00  0.00    -0.323 OA
HETATM   31  C15 UNL     1      -1.557   4.238  27.725  1.00  0.00     0.048 A 
HETATM   32  O2  UNL     1      -0.368   5.497  29.558  1.00  0.00    -0.323 OA
HETATM   33  C16 UNL     1      -0.550   6.812  30.029  1.00  0.00     0.352 C 
ENDBRANCH  24  25
ENDBRANCH   5  24
BRANCH   6  34
HETATM   34  C18 UNL     1       0.313   2.697  25.419  1.00  0.00     0.009 A 
HETATM   35  C19 UNL     1       1.558   1.916  25.466  1.00  0.00     0.007 A 
HETATM   36  C20 UNL     1       0.524   1.667  26.540  1.00  0.00     0.007 A 
ENDBRANCH   6  34
TORSDOF 5
ENDMDL
