MODEL 6
REMARK VINA RESULT: -8.838662139      0.839      1.306
REMARK  5 active torsions:
REMARK  status: ('A' for Active; 'I' for Inactive)
REMARK    1  A    between atoms: C1_2  and  C2_6 
REMARK    2  A    between atoms: C5_9  and  C6_10 
REMARK    3  A    between atoms: N3_14  and  C9_15 
REMARK    4  A    between atoms: C9_15  and  C10_16 
REMARK    5  A    between atoms: C17_25  and  C18_26 
ROOT
HETATM    1  C6  UNL     1      -1.034   4.067  21.138  1.00  0.00     0.270 C 
HETATM    2  C7  UNL     1      -0.885   3.948  22.643  1.00  0.00     0.124 C 
HETATM    3  C8  UNL     1      -2.161   3.882  23.358  1.00  0.00     0.227 C 
HETATM    4  O1  UNL     1      -3.257   4.462  23.166  1.00  0.00    -0.273 OA
HETATM    5  N3  UNL     1      -1.969   2.949  24.437  1.00  0.00    -0.342 N 
HETATM    6  C17 UNL     1      -0.787   2.157  24.166  1.00  0.00     0.098 C 
HETATM    7  C21 UNL     1      -0.446   2.473  22.727  1.00  0.00     0.058 C 
HETATM    8  C22 UNL     1      -1.414   1.857  21.758  1.00  0.00     0.231 C 
HETATM    9  C23 UNL     1      -0.931   0.633  21.064  1.00  0.00     0.038 C 
HETATM   10  C24 UNL     1      -0.328   1.133  19.795  1.00  0.00     0.032 C 
HETATM   11  C25 UNL     1      -1.107   2.397  19.518  1.00  0.00     0.274 C 
HETATM   12  N4  UNL     1      -1.682   2.857  20.746  1.00  0.00     0.103 N 
ENDROOT
BRANCH   1  13
HETATM   13  C5  UNL     1      -1.688   5.315  20.736  1.00  0.00    -0.024 A 
HETATM   14  C4  UNL     1      -0.965   6.467  20.540  1.00  0.00     0.010 A 
HETATM   15  C3  UNL     1      -1.584   7.659  20.162  1.00  0.00     0.015 A 
HETATM   16  C2  UNL     1      -2.949   7.731  19.969  1.00  0.00     0.004 A 
HETATM   17  C27 UNL     1      -3.681   6.585  20.161  1.00  0.00     0.015 A 
HETATM   18  C26 UNL     1      -3.050   5.392  20.541  1.00  0.00     0.010 A 
BRANCH  16  19
HETATM   19  C1  UNL     1      -3.548   9.020  19.564  1.00  0.00     0.120 C 
HETATM   20  N1  UNL     1      -2.683  10.133  19.395  1.00  0.00    -0.082 NA
HETATM   21  N2  UNL     1      -4.808   9.163  19.364  1.00  0.00    -0.387 N 
ATOM     22  H22 UNL     1      -5.222  10.053  19.085  1.00  0.00     0.157 HD
ATOM     23  H21 UNL     1      -5.430   8.364  19.485  1.00  0.00     0.157 HD
ENDBRANCH  16  19
ENDBRANCH   1  13
BRANCH   5  24
HETATM   24  C9  UNL     1      -2.813   2.816  25.600  1.00  0.00     0.165 C 
BRANCH  24  25
HETATM   25  C10 UNL     1      -2.679   3.986  26.540  1.00  0.00    -0.037 A 
HETATM   26  C11 UNL     1      -1.459   4.542  26.814  1.00  0.00     0.012 A 
HETATM   27  C12 UNL     1      -1.368   5.607  27.670  1.00  0.00     0.040 A 
HETATM   28  C13 UNL     1      -2.517   6.102  28.244  1.00  0.00     0.105 A 
HETATM   29  C14 UNL     1      -3.764   5.536  27.965  1.00  0.00     0.105 A 
HETATM   30  O3  UNL     1      -2.719   7.138  29.121  1.00  0.00    -0.323 OA
HETATM   31  C15 UNL     1      -3.836   4.467  27.103  1.00  0.00     0.048 A 
HETATM   32  O2  UNL     1      -4.744   6.222  28.670  1.00  0.00    -0.323 OA
HETATM   33  C16 UNL     1      -4.071   7.155  29.485  1.00  0.00     0.352 C 
ENDBRANCH  24  25
ENDBRANCH   5  24
BRANCH   6  34
HETATM   34  C18 UNL     1       0.326   2.452  25.112  1.00  0.00     0.009 A 
HETATM   35  C19 UNL     1       1.512   1.592  25.247  1.00  0.00     0.007 A 
HETATM   36  C20 UNL     1       0.421   1.464  26.286  1.00  0.00     0.007 A 
ENDBRANCH   6  34
TORSDOF 5
ENDMDL
