MODEL 13
REMARK VINA RESULT: -7.995841848      3.399      6.662
REMARK  5 active torsions:
REMARK  status: ('A' for Active; 'I' for Inactive)
REMARK    1  A    between atoms: C2_2  and  C3_3 
REMARK    2  A    between atoms: N1_8  and  C7_9 
REMARK    3  A    between atoms: C7_9  and  C8_10 
REMARK    4  A    between atoms: C15_19  and  C16_20 
REMARK    5  A    between atoms: C19_23  and  C20_24 
ROOT
HETATM    1  C3  UNL     1      -1.712   1.573  23.663  1.00  0.00     0.094 C 
HETATM    2  C4  UNL     1      -1.113   1.921  22.346  1.00  0.00     0.062 C 
HETATM    3  C5  UNL     1      -1.145   3.434  22.333  1.00  0.00     0.124 C 
HETATM    4  C6  UNL     1      -2.307   3.758  23.148  1.00  0.00     0.227 C 
HETATM    5  O1  UNL     1      -3.111   4.724  23.097  1.00  0.00    -0.273 OA
HETATM    6  N1  UNL     1      -2.444   2.732  24.125  1.00  0.00    -0.342 N 
HETATM    7  C15 UNL     1      -1.250   3.740  20.873  1.00  0.00     0.270 C 
HETATM    8  N4  UNL     1      -1.804   2.618  20.193  1.00  0.00     0.103 N 
HETATM    9  C23 UNL     1      -1.005   2.244  19.043  1.00  0.00     0.311 C 
HETATM   10  C24 UNL     1      -1.926   1.529  21.156  1.00  0.00     0.159 C 
HETATM   11  C25 UNL     1      -1.316   0.247  20.578  1.00  0.00     0.049 C 
HETATM   12  C26 UNL     1      -3.360   1.218  21.489  1.00  0.00     0.049 C 
ENDROOT
BRANCH   7  13
HETATM   13  C16 UNL     1      -1.845   5.029  20.526  1.00  0.00    -0.024 A 
HETATM   14  C17 UNL     1      -1.106   6.188  20.577  1.00  0.00     0.010 A 
HETATM   15  C18 UNL     1      -1.638   7.431  20.252  1.00  0.00     0.015 A 
HETATM   16  C19 UNL     1      -2.953   7.551  19.855  1.00  0.00     0.004 A 
HETATM   17  C21 UNL     1      -3.703   6.395  19.801  1.00  0.00     0.015 A 
HETATM   18  C22 UNL     1      -3.171   5.169  20.125  1.00  0.00     0.010 A 
BRANCH  16  19
HETATM   19  C20 UNL     1      -3.532   8.856  19.507  1.00  0.00     0.120 C 
HETATM   20  N2  UNL     1      -2.640   9.966  19.438  1.00  0.00    -0.082 NA
HETATM   21  N3  UNL     1      -4.766   9.048  19.267  1.00  0.00    -0.387 N 
ATOM     22  H32 UNL     1      -5.405   8.254  19.316  1.00  0.00     0.157 HD
ATOM     23  H31 UNL     1      -5.167   9.954  19.025  1.00  0.00     0.157 HD
ENDBRANCH  16  19
ENDBRANCH   7  13
BRANCH   1  24
HETATM   24  C2  UNL     1      -0.708   1.057  24.658  1.00  0.00     0.021 C 
HETATM   25  C1  UNL     1       0.564   0.613  23.949  1.00  0.00     0.007 C 
ENDBRANCH   1  24
BRANCH   6  26
HETATM   26  C7  UNL     1      -3.164   2.744  25.372  1.00  0.00     0.165 C 
BRANCH  26  27
HETATM   27  C8  UNL     1      -2.784   3.802  26.306  1.00  0.00    -0.037 A 
HETATM   28  C9  UNL     1      -1.509   3.914  26.818  1.00  0.00     0.012 A 
HETATM   29  C10 UNL     1      -1.227   4.939  27.697  1.00  0.00     0.040 A 
HETATM   30  C11 UNL     1      -2.183   5.868  28.088  1.00  0.00     0.105 A 
HETATM   31  C12 UNL     1      -3.458   5.752  27.572  1.00  0.00     0.105 A 
HETATM   32  O3  UNL     1      -2.166   6.978  28.943  1.00  0.00    -0.323 OA
HETATM   33  C13 UNL     1      -3.742   4.718  26.686  1.00  0.00     0.048 A 
HETATM   34  O2  UNL     1      -4.193   6.796  28.125  1.00  0.00    -0.323 OA
HETATM   35  C14 UNL     1      -3.535   7.103  29.359  1.00  0.00     0.352 C 
ENDBRANCH  26  27
ENDBRANCH   6  26
TORSDOF 5
ENDMDL
