MODEL 3
REMARK VINA RESULT: -8.475031322      2.996      7.047
REMARK  5 active torsions:
REMARK  status: ('A' for Active; 'I' for Inactive)
REMARK    1  A    between atoms: C2_2  and  C3_3 
REMARK    2  A    between atoms: N1_8  and  C7_9 
REMARK    3  A    between atoms: C7_9  and  C8_10 
REMARK    4  A    between atoms: C15_19  and  C16_20 
REMARK    5  A    between atoms: C19_23  and  C20_24 
ROOT
HETATM    1  C3  UNL     1      -2.382   2.349  21.563  1.00  0.00     0.094 C 
HETATM    2  C4  UNL     1      -2.061   2.014  22.977  1.00  0.00     0.062 C 
HETATM    3  C5  UNL     1      -3.205   2.631  23.754  1.00  0.00     0.124 C 
HETATM    4  C6  UNL     1      -3.593   3.773  22.940  1.00  0.00     0.227 C 
HETATM    5  O1  UNL     1      -4.078   4.890  23.257  1.00  0.00    -0.273 OA
HETATM    6  N1  UNL     1      -3.329   3.441  21.581  1.00  0.00    -0.342 N 
HETATM    7  C15 UNL     1      -2.571   2.937  25.072  1.00  0.00     0.270 C 
HETATM    8  N4  UNL     1      -1.162   3.055  24.903  1.00  0.00     0.103 N 
HETATM    9  C23 UNL     1      -0.439   2.247  25.866  1.00  0.00     0.311 C 
HETATM   10  C24 UNL     1      -0.845   2.685  23.528  1.00  0.00     0.159 C 
HETATM   11  C25 UNL     1       0.298   1.664  23.508  1.00  0.00     0.049 C 
HETATM   12  C26 UNL     1      -0.391   3.863  22.709  1.00  0.00     0.049 C 
ENDROOT
BRANCH   7  13
HETATM   13  C16 UNL     1      -3.191   4.004  25.853  1.00  0.00    -0.024 A 
HETATM   14  C17 UNL     1      -2.505   5.159  26.147  1.00  0.00     0.010 A 
HETATM   15  C18 UNL     1      -3.065   6.197  26.885  1.00  0.00     0.015 A 
HETATM   16  C19 UNL     1      -4.357   6.106  27.358  1.00  0.00     0.004 A 
HETATM   17  C21 UNL     1      -5.054   4.952  27.069  1.00  0.00     0.015 A 
HETATM   18  C22 UNL     1      -4.494   3.929  26.340  1.00  0.00     0.010 A 
BRANCH  16  19
HETATM   19  C20 UNL     1      -4.964   7.192  28.138  1.00  0.00     0.120 C 
HETATM   20  N2  UNL     1      -4.546   7.333  29.494  1.00  0.00    -0.082 NA
HETATM   21  N3  UNL     1      -5.829   8.004  27.678  1.00  0.00    -0.387 N 
ATOM     22  H32 UNL     1      -6.129   7.903  26.708  1.00  0.00     0.157 HD
ATOM     23  H31 UNL     1      -6.251   8.758  28.220  1.00  0.00     0.157 HD
ENDBRANCH  16  19
ENDBRANCH   7  13
BRANCH   1  24
HETATM   24  C2  UNL     1      -2.843   1.163  20.759  1.00  0.00     0.021 C 
HETATM   25  C1  UNL     1      -1.834   0.833  19.669  1.00  0.00     0.007 C 
ENDBRANCH   1  24
BRANCH   6  26
HETATM   26  C7  UNL     1      -3.852   4.031  20.375  1.00  0.00     0.165 C 
BRANCH  26  27
HETATM   27  C8  UNL     1      -3.246   5.302  19.985  1.00  0.00    -0.037 A 
HETATM   28  C9  UNL     1      -1.928   5.405  19.595  1.00  0.00     0.012 A 
HETATM   29  C10 UNL     1      -1.427   6.641  19.243  1.00  0.00     0.040 A 
HETATM   30  C11 UNL     1      -2.204   7.792  19.267  1.00  0.00     0.105 A 
HETATM   31  C12 UNL     1      -3.523   7.684  19.658  1.00  0.00     0.105 A 
HETATM   32  O3  UNL     1      -1.954   9.139  18.967  1.00  0.00    -0.323 OA
HETATM   33  C13 UNL     1      -4.028   6.437  20.012  1.00  0.00     0.048 A 
HETATM   34  O2  UNL     1      -4.051   8.970  19.587  1.00  0.00    -0.323 OA
HETATM   35  C14 UNL     1      -2.929   9.844  19.751  1.00  0.00     0.352 C 
ENDBRANCH  26  27
ENDBRANCH   6  26
TORSDOF 5
ENDMDL
