MODEL 6
REMARK VINA RESULT: -8.151253970      2.581      7.413
REMARK  5 active torsions:
REMARK  status: ('A' for Active; 'I' for Inactive)
REMARK    1  A    between atoms: C2_2  and  C3_3 
REMARK    2  A    between atoms: N1_8  and  C7_9 
REMARK    3  A    between atoms: C7_9  and  C8_10 
REMARK    4  A    between atoms: C15_19  and  C16_20 
REMARK    5  A    between atoms: C19_23  and  C20_24 
ROOT
HETATM    1  C3  UNL     1      -0.617   0.045  21.519  1.00  0.00     0.094 C 
HETATM    2  C4  UNL     1      -1.811   0.685  22.134  1.00  0.00     0.062 C 
HETATM    3  C5  UNL     1      -2.296   1.634  21.059  1.00  0.00     0.124 C 
HETATM    4  C6  UNL     1      -1.078   1.999  20.351  1.00  0.00     0.227 C 
HETATM    5  O1  UNL     1      -0.752   3.057  19.753  1.00  0.00    -0.273 OA
HETATM    6  N1  UNL     1      -0.192   0.887  20.422  1.00  0.00    -0.342 N 
HETATM    7  C15 UNL     1      -2.952   2.716  21.857  1.00  0.00     0.270 C 
HETATM    8  N4  UNL     1      -2.413   2.723  23.175  1.00  0.00     0.103 N 
HETATM    9  C23 UNL     1      -3.458   2.718  24.179  1.00  0.00     0.311 C 
HETATM   10  C24 UNL     1      -1.525   1.573  23.301  1.00  0.00     0.159 C 
HETATM   11  C25 UNL     1      -1.858   0.788  24.574  1.00  0.00     0.049 C 
HETATM   12  C26 UNL     1      -0.078   1.975  23.403  1.00  0.00     0.049 C 
ENDROOT
BRANCH   7  13
HETATM   13  C16 UNL     1      -3.038   4.026  21.217  1.00  0.00    -0.024 A 
HETATM   14  C17 UNL     1      -2.241   5.069  21.625  1.00  0.00     0.010 A 
HETATM   15  C18 UNL     1      -2.294   6.329  21.037  1.00  0.00     0.015 A 
HETATM   16  C19 UNL     1      -3.165   6.583  19.999  1.00  0.00     0.004 A 
HETATM   17  C21 UNL     1      -3.970   5.544  19.582  1.00  0.00     0.015 A 
HETATM   18  C22 UNL     1      -3.913   4.302  20.168  1.00  0.00     0.010 A 
BRANCH  16  19
HETATM   19  C20 UNL     1      -3.234   7.907  19.366  1.00  0.00     0.120 C 
HETATM   20  N2  UNL     1      -2.061   8.374  18.703  1.00  0.00    -0.082 NA
HETATM   21  N3  UNL     1      -4.267   8.649  19.375  1.00  0.00    -0.387 N 
ATOM     22  H32 UNL     1      -5.107   8.316  19.849  1.00  0.00     0.157 HD
ATOM     23  H31 UNL     1      -4.315   9.569  18.935  1.00  0.00     0.157 HD
ENDBRANCH  16  19
ENDBRANCH   7  13
BRANCH   1  24
HETATM   24  C2  UNL     1      -0.846  -1.390  21.125  1.00  0.00     0.021 C 
HETATM   25  C1  UNL     1       0.146  -2.301  21.832  1.00  0.00     0.007 C 
ENDBRANCH   1  24
BRANCH   6  26
HETATM   26  C7  UNL     1       0.953   0.573  19.605  1.00  0.00     0.165 C 
BRANCH  26  27
HETATM   27  C8  UNL     1       0.687  -0.301  18.465  1.00  0.00    -0.037 A 
HETATM   28  C9  UNL     1       1.400  -1.458  18.236  1.00  0.00     0.012 A 
HETATM   29  C10 UNL     1       1.092  -2.230  17.135  1.00  0.00     0.040 A 
HETATM   30  C11 UNL     1       0.086  -1.883  16.242  1.00  0.00     0.105 A 
HETATM   31  C12 UNL     1      -0.625  -0.723  16.474  1.00  0.00     0.105 A 
HETATM   32  O3  UNL     1      -0.420  -2.470  15.074  1.00  0.00    -0.323 OA
HETATM   33  C13 UNL     1      -0.314   0.054  17.585  1.00  0.00     0.048 A 
HETATM   34  O2  UNL     1      -1.552  -0.628  15.441  1.00  0.00    -0.323 OA
HETATM   35  C14 UNL     1      -0.976  -1.359  14.353  1.00  0.00     0.352 C 
ENDBRANCH  26  27
ENDBRANCH   6  26
TORSDOF 5
ENDMDL
