MODEL 1
REMARK VINA RESULT: -8.654022987      0.000      0.000
REMARK  5 active torsions:
REMARK  status: ('A' for Active; 'I' for Inactive)
REMARK    1  A    between atoms: C2_2  and  C3_3 
REMARK    2  A    between atoms: N1_8  and  C7_9 
REMARK    3  A    between atoms: C7_9  and  C8_10 
REMARK    4  A    between atoms: C15_19  and  C16_20 
REMARK    5  A    between atoms: C19_23  and  C20_24 
ROOT
HETATM    1  C3  UNL     1      -1.860   3.376  23.271  1.00  0.00     0.094 C 
HETATM    2  C4  UNL     1      -0.845   2.294  23.151  1.00  0.00     0.062 C 
HETATM    3  C5  UNL     1      -0.465   2.328  21.686  1.00  0.00     0.124 C 
HETATM    4  C6  UNL     1      -1.678   2.795  21.030  1.00  0.00     0.227 C 
HETATM    5  O1  UNL     1      -2.146   2.556  19.887  1.00  0.00    -0.273 OA
HETATM    6  N1  UNL     1      -2.354   3.656  21.941  1.00  0.00    -0.342 N 
HETATM    7  C15 UNL     1      -0.070   0.910  21.424  1.00  0.00     0.270 C 
HETATM    8  N4  UNL     1      -0.691   0.061  22.384  1.00  0.00     0.103 N 
HETATM    9  C23 UNL     1       0.268  -0.831  23.006  1.00  0.00     0.311 C 
HETATM   10  C24 UNL     1      -1.365   0.910  23.361  1.00  0.00     0.159 C 
HETATM   11  C25 UNL     1      -0.984   0.481  24.782  1.00  0.00     0.049 C 
HETATM   12  C26 UNL     1      -2.863   0.814  23.264  1.00  0.00     0.049 C 
ENDROOT
BRANCH   7  13
HETATM   13  C16 UNL     1      -0.176   0.458  20.039  1.00  0.00    -0.024 A 
HETATM   14  C17 UNL     1      -1.145  -0.441  19.658  1.00  0.00     0.010 A 
HETATM   15  C18 UNL     1      -1.277  -0.891  18.349  1.00  0.00     0.015 A 
HETATM   16  C19 UNL     1      -0.425  -0.443  17.362  1.00  0.00     0.004 A 
HETATM   17  C21 UNL     1       0.551   0.458  17.733  1.00  0.00     0.015 A 
HETATM   18  C22 UNL     1       0.677   0.898  19.029  1.00  0.00     0.010 A 
BRANCH  16  19
HETATM   19  C20 UNL     1      -0.550  -0.907  15.974  1.00  0.00     0.120 C 
HETATM   20  N2  UNL     1      -1.785  -0.648  15.310  1.00  0.00    -0.082 NA
HETATM   21  N3  UNL     1       0.368  -1.518  15.340  1.00  0.00    -0.387 N 
ATOM     22  H32 UNL     1       1.252  -1.703  15.815  1.00  0.00     0.157 HD
ATOM     23  H31 UNL     1       0.280  -1.840  14.376  1.00  0.00     0.157 HD
ENDBRANCH  16  19
ENDBRANCH   7  13
BRANCH   1  24
HETATM   24  C2  UNL     1      -1.352   4.594  23.995  1.00  0.00     0.021 C 
HETATM   25  C1  UNL     1      -1.262   4.325  25.490  1.00  0.00     0.007 C 
ENDBRANCH   1  24
BRANCH   6  26
HETATM   26  C7  UNL     1      -3.364   4.650  21.685  1.00  0.00     0.165 C 
BRANCH  26  27
HETATM   27  C8  UNL     1      -2.895   5.864  21.022  1.00  0.00    -0.037 A 
HETATM   28  C9  UNL     1      -1.581   6.044  20.648  1.00  0.00     0.012 A 
HETATM   29  C10 UNL     1      -1.214   7.220  20.029  1.00  0.00     0.040 A 
HETATM   30  C11 UNL     1      -2.123   8.237  19.766  1.00  0.00     0.105 A 
HETATM   31  C12 UNL     1      -3.438   8.053  20.142  1.00  0.00     0.105 A 
HETATM   32  O3  UNL     1      -2.021   9.500  19.166  1.00  0.00    -0.323 OA
HETATM   33  C13 UNL     1      -3.807   6.866  20.767  1.00  0.00     0.048 A 
HETATM   34  O2  UNL     1      -4.111   9.210  19.762  1.00  0.00    -0.323 OA
HETATM   35  C14 UNL     1      -3.112  10.235  19.742  1.00  0.00     0.352 C 
ENDBRANCH  26  27
ENDBRANCH   6  26
TORSDOF 5
ENDMDL
