MODEL 7
REMARK VINA RESULT: -5.871156701      0.979      3.492
REMARK  1 active torsions:
REMARK  status: ('A' for Active; 'I' for Inactive)
REMARK    1  A    between atoms: O1_1  and  C1_3 
ROOT
HETATM    1  C1  UNL     1    -151.094   5.530  -9.137  1.00  0.00     0.112 A 
HETATM    2  C2  UNL     1    -151.212   6.155 -10.359  1.00  0.00     0.092 A 
HETATM    3 CL1  UNL     1    -150.150   5.633 -11.661  1.00  0.00    -0.079 Cl
HETATM    4  C3  UNL     1    -152.125   7.160 -10.577  1.00  0.00     0.082 A 
HETATM    5 CL2  UNL     1    -152.245   7.930 -12.143  1.00  0.00    -0.081 Cl
HETATM    6  C4  UNL     1    -152.969   7.587  -9.575  1.00  0.00     0.081 A 
HETATM    7 CL3  UNL     1    -154.144   8.868  -9.828  1.00  0.00    -0.081 Cl
HETATM    8  C5  UNL     1    -152.837   6.951  -8.361  1.00  0.00     0.082 A 
HETATM    9 CL4  UNL     1    -153.889   7.466  -7.066  1.00  0.00    -0.081 Cl
HETATM   10  C6  UNL     1    -151.932   5.948  -8.127  1.00  0.00     0.092 A 
HETATM   11 CL5  UNL     1    -151.801   5.165  -6.555  1.00  0.00    -0.079 Cl
ENDROOT
BRANCH   1  12
HETATM   12  O1  UNL     1    -150.157   4.505  -8.928  1.00  0.00    -0.357 OA
ATOM     13  H1  UNL     1    -150.076   4.074  -8.085  1.00  0.00     0.217 HD
ENDBRANCH   1  12
TORSDOF 1
ENDMDL
