MODEL 4
REMARK VINA RESULT: -6.494873716      1.222      3.627
REMARK  1 active torsions:
REMARK  status: ('A' for Active; 'I' for Inactive)
REMARK    1  A    between atoms: O1_1  and  C1_3 
ROOT
HETATM    1  C1  UNL     1    -150.944   5.663  -9.742  1.00  0.00     0.112 A 
HETATM    2  C2  UNL     1    -151.736   6.708 -10.165  1.00  0.00     0.092 A 
HETATM    3 CL1  UNL     1    -151.535   7.283 -11.815  1.00  0.00    -0.079 Cl
HETATM    4  C3  UNL     1    -152.663   7.299  -9.339  1.00  0.00     0.082 A 
HETATM    5 CL2  UNL     1    -153.651   8.624  -9.912  1.00  0.00    -0.081 Cl
HETATM    6  C4  UNL     1    -152.841   6.867  -8.043  1.00  0.00     0.081 A 
HETATM    7 CL3  UNL     1    -154.018   7.605  -6.968  1.00  0.00    -0.081 Cl
HETATM    8  C5  UNL     1    -152.041   5.823  -7.637  1.00  0.00     0.082 A 
HETATM    9 CL4  UNL     1    -152.237   5.248  -6.000  1.00  0.00    -0.081 Cl
HETATM   10  C6  UNL     1    -151.112   5.222  -8.448  1.00  0.00     0.092 A 
HETATM   11 CL5  UNL     1    -150.111   3.888  -7.883  1.00  0.00    -0.079 Cl
ENDROOT
BRANCH   1  12
HETATM   12  O1  UNL     1    -150.000   5.069 -10.596  1.00  0.00    -0.357 OA
ATOM     13  H1  UNL     1    -150.247   4.742 -11.454  1.00  0.00     0.217 HD
ENDBRANCH   1  12
TORSDOF 1
ENDMDL
