MODEL 1
REMARK VINA RESULT: -6.642031719      0.000      0.000
REMARK  1 active torsions:
REMARK  status: ('A' for Active; 'I' for Inactive)
REMARK    1  A    between atoms: O1_1  and  C1_3 
ROOT
HETATM    1  C1  UNL     1    -150.811   5.516 -10.335  1.00  0.00     0.112 A 
HETATM    2  C2  UNL     1    -151.421   5.748  -9.122  1.00  0.00     0.092 A 
HETATM    3 CL1  UNL     1    -150.984   4.716  -7.766  1.00  0.00    -0.079 Cl
HETATM    4  C3  UNL     1    -152.348   6.749  -8.953  1.00  0.00     0.082 A 
HETATM    5 CL2  UNL     1    -153.102   7.013  -7.397  1.00  0.00    -0.081 Cl
HETATM    6  C4  UNL     1    -152.708   7.572  -9.998  1.00  0.00     0.081 A 
HETATM    7 CL3  UNL     1    -153.888   8.858  -9.808  1.00  0.00    -0.081 Cl
HETATM    8  C5  UNL     1    -152.088   7.326 -11.203  1.00  0.00     0.082 A 
HETATM    9 CL4  UNL     1    -152.518   8.348 -12.552  1.00  0.00    -0.081 Cl
HETATM   10  C6  UNL     1    -151.162   6.332 -11.388  1.00  0.00     0.092 A 
HETATM   11 CL5  UNL     1    -150.395   6.056 -12.949  1.00  0.00    -0.079 Cl
ENDROOT
BRANCH   1  12
HETATM   12  O1  UNL     1    -149.866   4.489 -10.494  1.00  0.00    -0.357 OA
ATOM     13  H1  UNL     1    -149.371   4.393 -11.298  1.00  0.00     0.217 HD
ENDBRANCH   1  12
TORSDOF 1
ENDMDL
