MODEL 2
REMARK VINA RESULT: -6.632629734      0.068      3.385
REMARK  1 active torsions:
REMARK  status: ('A' for Active; 'I' for Inactive)
REMARK    1  A    between atoms: O1_1  and  C1_3 
ROOT
HETATM    1  C1  UNL     1    -150.859   5.543 -10.327  1.00  0.00     0.112 A 
HETATM    2  C2  UNL     1    -151.205   6.358 -11.383  1.00  0.00     0.092 A 
HETATM    3 CL1  UNL     1    -150.435   6.070 -12.938  1.00  0.00    -0.079 Cl
HETATM    4  C3  UNL     1    -152.124   7.372 -11.248  1.00  0.00     0.082 A 
HETATM    5 CL2  UNL     1    -152.538   8.387 -12.612  1.00  0.00    -0.081 Cl
HETATM    6  C4  UNL     1    -152.742   7.619 -10.042  1.00  0.00     0.081 A 
HETATM    7 CL3  UNL     1    -153.919   8.907  -9.843  1.00  0.00    -0.081 Cl
HETATM    8  C5  UNL     1    -152.384   6.795  -8.998  1.00  0.00     0.082 A 
HETATM    9 CL4  UNL     1    -153.147   7.076  -7.453  1.00  0.00    -0.081 Cl
HETATM   10  C6  UNL     1    -151.471   5.779  -9.116  1.00  0.00     0.092 A 
HETATM   11 CL5  UNL     1    -151.045   4.751  -7.751  1.00  0.00    -0.079 Cl
ENDROOT
BRANCH   1  12
HETATM   12  O1  UNL     1    -149.919   4.510 -10.479  1.00  0.00    -0.357 OA
ATOM     13  H1  UNL     1    -150.181   3.641 -10.760  1.00  0.00     0.217 HD
ENDBRANCH   1  12
TORSDOF 1
ENDMDL
