MODEL 3
REMARK VINA RESULT: -6.557078641      1.264      1.989
REMARK  1 active torsions:
REMARK  status: ('A' for Active; 'I' for Inactive)
REMARK    1  A    between atoms: O1_1  and  C1_3 
ROOT
HETATM    1  C1  UNL     1    -151.039   5.568  -9.688  1.00  0.00     0.112 A 
HETATM    2  C2  UNL     1    -151.167   5.168  -8.375  1.00  0.00     0.092 A 
HETATM    3 CL1  UNL     1    -150.180   3.821  -7.821  1.00  0.00    -0.079 Cl
HETATM    4  C3  UNL     1    -152.033   5.789  -7.506  1.00  0.00     0.082 A 
HETATM    5 CL2  UNL     1    -152.168   5.253  -5.847  1.00  0.00    -0.081 Cl
HETATM    6  C4  UNL     1    -152.817   6.846  -7.915  1.00  0.00     0.081 A 
HETATM    7 CL3  UNL     1    -153.931   7.656  -6.825  1.00  0.00    -0.081 Cl
HETATM    8  C5  UNL     1    -152.676   7.231  -9.229  1.00  0.00     0.082 A 
HETATM    9 CL4  UNL     1    -153.653   8.568  -9.783  1.00  0.00    -0.081 Cl
HETATM   10  C6  UNL     1    -151.817   6.624 -10.108  1.00  0.00     0.092 A 
HETATM   11 CL5  UNL     1    -151.673   7.154 -11.781  1.00  0.00    -0.079 Cl
ENDROOT
BRANCH   1  12
HETATM   12  O1  UNL     1    -150.150   4.924 -10.564  1.00  0.00    -0.357 OA
ATOM     13  H1  UNL     1    -150.173   5.088 -11.500  1.00  0.00     0.217 HD
ENDBRANCH   1  12
TORSDOF 1
ENDMDL
