MODEL 10
REMARK VINA RESULT: -6.449965727      3.028      7.071
REMARK  5 active torsions:
REMARK  status: ('A' for Active; 'I' for Inactive)
REMARK    1  A    between atoms: C1_2  and  C2_4 
REMARK    2  A    between atoms: C2_4  and  C3_5 
REMARK    3  A    between atoms: C3_5  and  C4_6 
REMARK    4  A    between atoms: C4_6  and  C5_7 
REMARK    5  A    between atoms: C5_7  and  C6_8 
ROOT
HETATM    1  C6  UNL     1      58.084   3.443  30.513  1.00  0.00     0.072 C 
HETATM    2  S1  UNL     1      58.226   2.801  32.229  1.00  0.00    -0.160 SA
HETATM    3  C7  UNL     1      56.481   3.057  32.737  1.00  0.00     0.101 C 
HETATM    4  C8  UNL     1      55.952   3.868  31.608  1.00  0.00     0.119 C 
HETATM    5  N1  UNL     1      54.569   3.429  31.378  1.00  0.00    -0.336 N 
ATOM      6  H1  UNL     1      53.709   3.892  31.671  1.00  0.00     0.164 HD
HETATM    7  C9  UNL     1      54.698   2.212  30.653  1.00  0.00     0.316 C 
HETATM    8  O3  UNL     1      53.766   1.367  30.522  1.00  0.00    -0.247 OA
HETATM    9  N2  UNL     1      56.035   2.130  30.121  1.00  0.00    -0.335 N 
ATOM     10  H2  UNL     1      56.480   1.322  29.686  1.00  0.00     0.164 HD
HETATM   11  C10 UNL     1      56.605   3.425  30.335  1.00  0.00     0.123 C 
ENDROOT
BRANCH   1  12
HETATM   12  C5  UNL     1      58.831   2.584  29.557  1.00  0.00     0.017 C 
BRANCH  12  13
HETATM   13  C4  UNL     1      60.280   2.551  29.973  1.00  0.00     0.002 C 
BRANCH  13  14
HETATM   14  C3  UNL     1      61.064   3.721  29.456  1.00  0.00     0.010 C 
BRANCH  14  15
HETATM   15  C2  UNL     1      62.200   3.286  28.566  1.00  0.00     0.113 C 
BRANCH  15  16
HETATM   16  C1  UNL     1      63.470   3.146  29.298  1.00  0.00     0.172 C 
HETATM   17  O1  UNL     1      64.392   2.417  28.881  1.00  0.00    -0.648 OA
HETATM   18  O2  UNL     1      63.653   3.833  30.473  1.00  0.00    -0.648 OA
ENDBRANCH  15  16
ENDBRANCH  14  15
ENDBRANCH  13  14
ENDBRANCH  12  13
ENDBRANCH   1  12
TORSDOF 5
ENDMDL
