MODEL 11
REMARK VINA RESULT: -6.442195709      3.920      6.467
REMARK  5 active torsions:
REMARK  status: ('A' for Active; 'I' for Inactive)
REMARK    1  A    between atoms: C1_2  and  C2_4 
REMARK    2  A    between atoms: C2_4  and  C3_5 
REMARK    3  A    between atoms: C3_5  and  C4_6 
REMARK    4  A    between atoms: C4_6  and  C5_7 
REMARK    5  A    between atoms: C5_7  and  C6_8 
ROOT
HETATM    1  C6  UNL     1      61.098   3.210  32.408  1.00  0.00     0.072 C 
HETATM    2  S1  UNL     1      59.423   3.338  31.666  1.00  0.00    -0.160 SA
HETATM    3  C7  UNL     1      58.465   2.711  33.100  1.00  0.00     0.101 C 
HETATM    4  C8  UNL     1      59.545   2.199  33.985  1.00  0.00     0.119 C 
HETATM    5  N1  UNL     1      59.140   2.495  35.367  1.00  0.00    -0.336 N 
ATOM      6  H1  UNL     1      58.739   1.853  36.051  1.00  0.00     0.164 HD
HETATM    7  C9  UNL     1      59.436   3.875  35.537  1.00  0.00     0.316 C 
HETATM    8  O3  UNL     1      58.966   4.587  36.471  1.00  0.00    -0.247 OA
HETATM    9  N2  UNL     1      60.331   4.289  34.487  1.00  0.00    -0.335 N 
ATOM     10  H2  UNL     1      60.608   5.242  34.249  1.00  0.00     0.164 HD
HETATM   11  C10 UNL     1      60.750   3.078  33.851  1.00  0.00     0.123 C 
ENDROOT
BRANCH   1  12
HETATM   12  C5  UNL     1      61.922   4.403  32.079  1.00  0.00     0.017 C 
BRANCH  12  13
HETATM   13  C4  UNL     1      61.256   5.149  30.948  1.00  0.00     0.002 C 
BRANCH  13  14
HETATM   14  C3  UNL     1      62.117   5.242  29.724  1.00  0.00     0.010 C 
BRANCH  14  15
HETATM   15  C2  UNL     1      63.369   4.413  29.852  1.00  0.00     0.113 C 
BRANCH  15  16
HETATM   16  C1  UNL     1      63.303   3.165  29.072  1.00  0.00     0.172 C 
HETATM   17  O1  UNL     1      64.324   2.496  28.816  1.00  0.00    -0.648 OA
HETATM   18  O2  UNL     1      62.088   2.720  28.610  1.00  0.00    -0.648 OA
ENDBRANCH  15  16
ENDBRANCH  14  15
ENDBRANCH  13  14
ENDBRANCH  12  13
ENDBRANCH   1  12
TORSDOF 5
ENDMDL
