MODEL 8
REMARK VINA RESULT: -6.692258411      4.174      6.408
REMARK  5 active torsions:
REMARK  status: ('A' for Active; 'I' for Inactive)
REMARK    1  A    between atoms: C1_2  and  C2_4 
REMARK    2  A    between atoms: C2_4  and  C3_5 
REMARK    3  A    between atoms: C3_5  and  C4_6 
REMARK    4  A    between atoms: C4_6  and  C5_7 
REMARK    5  A    between atoms: C5_7  and  C6_8 
ROOT
HETATM    1  C6  UNL     1      61.116   4.206  31.965  1.00  0.00     0.072 C 
HETATM    2  S1  UNL     1      59.683   3.101  31.646  1.00  0.00    -0.160 SA
HETATM    3  C7  UNL     1      59.593   2.324  33.306  1.00  0.00     0.101 C 
HETATM    4  C8  UNL     1      60.857   2.796  33.931  1.00  0.00     0.119 C 
HETATM    5  N1  UNL     1      60.564   3.048  35.349  1.00  0.00    -0.336 N 
ATOM      6  H1  UNL     1      60.786   2.454  36.148  1.00  0.00     0.164 HD
HETATM    7  C9  UNL     1      59.902   4.307  35.358  1.00  0.00     0.316 C 
HETATM    8  O3  UNL     1      59.223   4.740  36.333  1.00  0.00    -0.247 OA
HETATM    9  N2  UNL     1      60.142   4.964  34.098  1.00  0.00    -0.335 N 
ATOM     10  H2  UNL     1      59.688   5.805  33.741  1.00  0.00     0.164 HD
HETATM   11  C10 UNL     1      61.154   4.184  33.454  1.00  0.00     0.123 C 
ENDROOT
BRANCH   1  12
HETATM   12  C5  UNL     1      60.897   5.552  31.372  1.00  0.00     0.017 C 
BRANCH  12  13
HETATM   13  C4  UNL     1      61.498   5.571  29.989  1.00  0.00     0.002 C 
BRANCH  13  14
HETATM   14  C3  UNL     1      62.844   4.912  29.927  1.00  0.00     0.010 C 
BRANCH  14  15
HETATM   15  C2  UNL     1      62.900   3.849  28.860  1.00  0.00     0.113 C 
BRANCH  15  16
HETATM   16  C1  UNL     1      63.512   2.598  29.341  1.00  0.00     0.172 C 
HETATM   17  O1  UNL     1      62.874   1.777  30.030  1.00  0.00    -0.648 OA
HETATM   18  O2  UNL     1      64.820   2.321  29.027  1.00  0.00    -0.648 OA
ENDBRANCH  15  16
ENDBRANCH  14  15
ENDBRANCH  13  14
ENDBRANCH  12  13
ENDBRANCH   1  12
TORSDOF 5
ENDMDL
