MODEL 1
REMARK VINA RESULT: -8.196081823      0.000      0.000
REMARK  5 active torsions:
REMARK  status: ('A' for Active; 'I' for Inactive)
REMARK    1  A    between atoms: C1_2  and  C2_4 
REMARK    2  A    between atoms: C2_4  and  C3_5 
REMARK    3  A    between atoms: C3_5  and  C4_6 
REMARK    4  A    between atoms: C4_6  and  C5_7 
REMARK    5  A    between atoms: C5_7  and  C6_8 
ROOT
HETATM    1  C6  UNL     1      60.267   3.546  30.825  1.00  0.00     0.072 C 
HETATM    2  S1  UNL     1      60.331   5.107  29.859  1.00  0.00    -0.160 SA
HETATM    3  C7  UNL     1      62.136   5.411  29.994  1.00  0.00     0.101 C 
HETATM    4  C8  UNL     1      62.539   4.399  31.007  1.00  0.00     0.119 C 
HETATM    5  N1  UNL     1      63.863   3.900  30.610  1.00  0.00    -0.336 N 
ATOM      6  H1  UNL     1      64.770   4.157  30.999  1.00  0.00     0.164 HD
HETATM    7  C9  UNL     1      63.595   2.977  29.561  1.00  0.00     0.316 C 
HETATM    8  O3  UNL     1      64.471   2.558  28.750  1.00  0.00    -0.247 OA
HETATM    9  N2  UNL     1      62.197   2.629  29.597  1.00  0.00    -0.335 N 
ATOM     10  H2  UNL     1      61.670   2.111  28.894  1.00  0.00     0.164 HD
HETATM   11  C10 UNL     1      61.707   3.166  30.829  1.00  0.00     0.123 C 
ENDROOT
BRANCH   1  12
HETATM   12  C5  UNL     1      59.369   2.553  30.178  1.00  0.00     0.017 C 
BRANCH  12  13
HETATM   13  C4  UNL     1      58.009   3.181  29.999  1.00  0.00     0.002 C 
BRANCH  13  14
HETATM   14  C3  UNL     1      56.949   2.186  29.633  1.00  0.00     0.010 C 
BRANCH  14  15
HETATM   15  C2  UNL     1      55.582   2.818  29.572  1.00  0.00     0.113 C 
BRANCH  15  16
HETATM   16  C1  UNL     1      54.860   2.728  30.852  1.00  0.00     0.172 C 
HETATM   17  O1  UNL     1      55.258   1.997  31.781  1.00  0.00    -0.648 OA
HETATM   18  O2  UNL     1      53.715   3.465  31.037  1.00  0.00    -0.648 OA
ENDBRANCH  15  16
ENDBRANCH  14  15
ENDBRANCH  13  14
ENDBRANCH  12  13
ENDBRANCH   1  12
TORSDOF 5
ENDMDL
