MODEL 1
REMARK VINA RESULT: -8.085215229      0.000      0.000
REMARK  5 active torsions:
REMARK  status: ('A' for Active; 'I' for Inactive)
REMARK    1  A    between atoms: S1_2  and  C2_3 
REMARK    2  A    between atoms: C2_3  and  C3_4 
REMARK    3  A    between atoms: N1_6  and  C5_7 
REMARK    4  A    between atoms: C5_7  and  C6_8 
REMARK    5  A    between atoms: C13_22  and  O1_23 
ROOT
HETATM    1  C6  UNL     1      57.296  74.001  19.645  1.00  0.00     0.014 A 
HETATM    2  C7  UNL     1      57.218  73.431  18.398  1.00  0.00     0.099 A 
HETATM    3  N2  UNL     1      55.948  73.492  17.925  1.00  0.00    -0.361 N 
ATOM      4  H2  UNL     1      55.626  73.140  17.023  1.00  0.00     0.165 HD
HETATM    5  C8  UNL     1      55.182  74.101  18.860  1.00  0.00     0.101 A 
HETATM    6  C9  UNL     1      53.833  74.426  18.914  1.00  0.00     0.146 A 
HETATM    7  N3  UNL     1      53.028  74.083  17.799  1.00  0.00    -0.080 NA
HETATM    8  N4  UNL     1      53.345  75.046  20.002  1.00  0.00    -0.339 N 
ATOM      9  H4  UNL     1      52.352  75.281  20.037  1.00  0.00     0.167 HD
HETATM   10  C10 UNL     1      54.128  75.362  21.046  1.00  0.00     0.182 A 
HETATM   11  N5  UNL     1      55.436  75.044  20.988  1.00  0.00    -0.350 N 
ATOM     12  H5  UNL     1      56.032  75.283  21.780  1.00  0.00     0.166 HD
HETATM   13  C11 UNL     1      55.991  74.423  19.927  1.00  0.00     0.072 A 
ENDROOT
BRANCH   1  14
HETATM   14  C5  UNL     1      58.439  74.178  20.564  1.00  0.00     0.315 C 
BRANCH  14  15
HETATM   15  N1  UNL     1      58.558  73.062  21.426  1.00  0.00     0.095 N 
HETATM   16  C4  UNL     1      57.794  71.912  21.035  1.00  0.00     0.280 C 
HETATM   17  C3  UNL     1      57.642  71.091  22.303  1.00  0.00     0.054 C 
HETATM   18  C13 UNL     1      58.229  71.964  23.386  1.00  0.00     0.152 C 
HETATM   19  C12 UNL     1      58.008  73.332  22.766  1.00  0.00     0.304 C 
BRANCH  17  20
HETATM   20  C2  UNL     1      56.189  70.793  22.591  1.00  0.00     0.082 C 
BRANCH  20  21
HETATM   21  S1  UNL     1      55.914  69.242  23.430  1.00  0.00    -0.173 SA
HETATM   22  C1  UNL     1      56.591  67.808  22.607  1.00  0.00     0.089 C 
ENDBRANCH  20  21
ENDBRANCH  17  20
BRANCH  18  23
HETATM   23  O1  UNL     1      59.564  71.650  23.507  1.00  0.00    -0.393 OA
ATOM     24  H1  UNL     1      60.011  72.406  23.869  1.00  0.00     0.210 HD
ENDBRANCH  18  23
ENDBRANCH  14  15
ENDBRANCH   1  14
TORSDOF 5
ENDMDL
