MODEL 6
REMARK VINA RESULT: -6.151464005      3.610      6.532
REMARK  5 active torsions:
REMARK  status: ('A' for Active; 'I' for Inactive)
REMARK    1  A    between atoms: S1_2  and  C2_3 
REMARK    2  A    between atoms: C2_3  and  C3_4 
REMARK    3  A    between atoms: N1_6  and  C5_7 
REMARK    4  A    between atoms: C5_7  and  C6_8 
REMARK    5  A    between atoms: C13_22  and  O1_23 
ROOT
HETATM    1  C6  UNL     1      57.209  70.077  22.820  1.00  0.00     0.014 A 
HETATM    2  C7  UNL     1      56.437  70.539  23.858  1.00  0.00     0.099 A 
HETATM    3  N2  UNL     1      55.806  69.511  24.478  1.00  0.00    -0.361 N 
ATOM      4  H2  UNL     1      55.176  69.587  25.277  1.00  0.00     0.165 HD
HETATM    5  C8  UNL     1      56.160  68.364  23.850  1.00  0.00     0.101 A 
HETATM    6  C9  UNL     1      55.825  67.032  24.053  1.00  0.00     0.146 A 
HETATM    7  N3  UNL     1      54.936  66.730  25.114  1.00  0.00    -0.080 NA
HETATM    8  N4  UNL     1      56.345  66.089  23.249  1.00  0.00    -0.339 N 
ATOM      9  H4  UNL     1      56.094  65.112  23.401  1.00  0.00     0.167 HD
HETATM   10  C10 UNL     1      57.187  66.399  22.249  1.00  0.00     0.182 A 
HETATM   11  N5  UNL     1      57.509  67.694  22.058  1.00  0.00    -0.350 N 
ATOM     12  H5  UNL     1      58.148  67.931  21.299  1.00  0.00     0.166 HD
HETATM   13  C11 UNL     1      57.023  68.689  22.827  1.00  0.00     0.072 A 
ENDROOT
BRANCH   1  14
HETATM   14  C5  UNL     1      58.074  70.790  21.858  1.00  0.00     0.315 C 
BRANCH  14  15
HETATM   15  N1  UNL     1      57.908  72.190  21.989  1.00  0.00     0.095 N 
HETATM   16  C4  UNL     1      56.857  72.752  21.189  1.00  0.00     0.280 C 
HETATM   17  C3  UNL     1      57.199  74.227  21.071  1.00  0.00     0.054 C 
HETATM   18  C13 UNL     1      58.559  74.348  21.715  1.00  0.00     0.152 C 
HETATM   19  C12 UNL     1      59.078  72.938  21.496  1.00  0.00     0.304 C 
BRANCH  17  20
HETATM   20  C2  UNL     1      57.256  74.661  19.625  1.00  0.00     0.082 C 
BRANCH  20  21
HETATM   21  S1  UNL     1      56.243  73.683  18.529  1.00  0.00    -0.173 SA
HETATM   22  C1  UNL     1      54.557  74.252  18.352  1.00  0.00     0.089 C 
ENDBRANCH  20  21
ENDBRANCH  17  20
BRANCH  18  23
HETATM   23  O1  UNL     1      58.372  74.640  23.048  1.00  0.00    -0.393 OA
ATOM     24  H1  UNL     1      58.486  73.836  23.542  1.00  0.00     0.210 HD
ENDBRANCH  18  23
ENDBRANCH  14  15
ENDBRANCH   1  14
TORSDOF 5
ENDMDL
