MODEL 4
REMARK VINA RESULT: -6.247053090      3.461      5.571
REMARK  5 active torsions:
REMARK  status: ('A' for Active; 'I' for Inactive)
REMARK    1  A    between atoms: S1_2  and  C2_3 
REMARK    2  A    between atoms: C2_3  and  C3_4 
REMARK    3  A    between atoms: N1_6  and  C5_7 
REMARK    4  A    between atoms: C5_7  and  C6_8 
REMARK    5  A    between atoms: C13_22  and  O1_23 
ROOT
HETATM    1  C6  UNL     1      56.800  71.091  22.886  1.00  0.00     0.014 A 
HETATM    2  C7  UNL     1      56.237  71.600  21.741  1.00  0.00     0.099 A 
HETATM    3  N2  UNL     1      57.114  72.412  21.099  1.00  0.00    -0.361 N 
ATOM      4  H2  UNL     1      56.940  72.912  20.227  1.00  0.00     0.165 HD
HETATM    5  C8  UNL     1      58.260  72.442  21.819  1.00  0.00     0.101 A 
HETATM    6  C9  UNL     1      59.472  73.095  21.641  1.00  0.00     0.146 A 
HETATM    7  N3  UNL     1      59.617  73.916  20.495  1.00  0.00    -0.080 NA
HETATM    8  N4  UNL     1      60.452  72.930  22.547  1.00  0.00    -0.339 N 
ATOM      9  H4  UNL     1      61.340  73.413  22.411  1.00  0.00     0.167 HD
HETATM   10  C10 UNL     1      60.292  72.146  23.625  1.00  0.00     0.182 A 
HETATM   11  N5  UNL     1      59.113  71.515  23.792  1.00  0.00    -0.350 N 
ATOM     12  H5  UNL     1      58.990  70.919  24.611  1.00  0.00     0.166 HD
HETATM   13  C11 UNL     1      58.089  71.637  22.923  1.00  0.00     0.072 A 
ENDROOT
BRANCH   1  14
HETATM   14  C5  UNL     1      56.260  70.174  23.911  1.00  0.00     0.315 C 
BRANCH  14  15
HETATM   15  N1  UNL     1      56.229  68.848  23.420  1.00  0.00     0.095 N 
HETATM   16  C4  UNL     1      55.748  67.868  24.352  1.00  0.00     0.280 C 
HETATM   17  C3  UNL     1      56.286  66.543  23.843  1.00  0.00     0.054 C 
HETATM   18  C13 UNL     1      57.196  66.923  22.699  1.00  0.00     0.152 C 
HETATM   19  C12 UNL     1      57.577  68.330  23.126  1.00  0.00     0.304 C 
BRANCH  17  20
HETATM   20  C2  UNL     1      57.060  65.817  24.919  1.00  0.00     0.082 C 
BRANCH  20  21
HETATM   21  S1  UNL     1      58.331  64.730  24.298  1.00  0.00    -0.173 SA
HETATM   22  C1  UNL     1      59.826  64.681  25.275  1.00  0.00     0.089 C 
ENDBRANCH  20  21
ENDBRANCH  17  20
BRANCH  18  23
HETATM   23  O1  UNL     1      56.450  66.908  21.542  1.00  0.00    -0.393 OA
ATOM     24  H1  UNL     1      56.547  67.754  21.120  1.00  0.00     0.210 HD
ENDBRANCH  18  23
ENDBRANCH  14  15
ENDBRANCH   1  14
TORSDOF 5
ENDMDL
