MODEL 7
REMARK VINA RESULT: -6.127785818      3.025      5.228
REMARK  5 active torsions:
REMARK  status: ('A' for Active; 'I' for Inactive)
REMARK    1  A    between atoms: S1_2  and  C2_3 
REMARK    2  A    between atoms: C2_3  and  C3_4 
REMARK    3  A    between atoms: N1_6  and  C5_7 
REMARK    4  A    between atoms: C5_7  and  C6_8 
REMARK    5  A    between atoms: C13_22  and  O1_23 
ROOT
HETATM    1  C6  UNL     1      57.108  71.067  22.888  1.00  0.00     0.014 A 
HETATM    2  C7  UNL     1      58.043  71.440  23.824  1.00  0.00     0.099 A 
HETATM    3  N2  UNL     1      58.831  72.433  23.341  1.00  0.00    -0.361 N 
ATOM      4  H2  UNL     1      59.598  72.885  23.839  1.00  0.00     0.165 HD
HETATM    5  C8  UNL     1      58.419  72.719  22.083  1.00  0.00     0.101 A 
HETATM    6  C9  UNL     1      58.853  73.631  21.131  1.00  0.00     0.146 A 
HETATM    7  N3  UNL     1      59.943  74.471  21.470  1.00  0.00    -0.080 NA
HETATM    8  N4  UNL     1      58.234  73.688  19.939  1.00  0.00    -0.339 N 
ATOM      9  H4  UNL     1      58.557  74.359  19.242  1.00  0.00     0.167 HD
HETATM   10  C10 UNL     1      57.201  72.883  19.641  1.00  0.00     0.182 A 
HETATM   11  N5  UNL     1      56.785  72.000  20.569  1.00  0.00    -0.350 N 
ATOM     12  H5  UNL     1      56.001  71.388  20.345  1.00  0.00     0.166 HD
HETATM   13  C11 UNL     1      57.361  71.891  21.784  1.00  0.00     0.072 A 
ENDROOT
BRANCH   1  14
HETATM   14  C5  UNL     1      56.040  70.047  22.932  1.00  0.00     0.315 C 
BRANCH  14  15
HETATM   15  N1  UNL     1      56.551  68.818  23.413  1.00  0.00     0.095 N 
HETATM   16  C4  UNL     1      57.349  68.085  22.471  1.00  0.00     0.280 C 
HETATM   17  C3  UNL     1      57.328  66.651  22.971  1.00  0.00     0.054 C 
HETATM   18  C13 UNL     1      56.348  66.669  24.119  1.00  0.00     0.152 C 
HETATM   19  C12 UNL     1      55.482  67.846  23.705  1.00  0.00     0.304 C 
BRANCH  17  20
HETATM   20  C2  UNL     1      56.863  65.703  21.890  1.00  0.00     0.082 C 
BRANCH  20  21
HETATM   21  S1  UNL     1      57.216  63.986  22.223  1.00  0.00    -0.173 SA
HETATM   22  C1  UNL     1      55.927  63.105  23.093  1.00  0.00     0.089 C 
ENDBRANCH  20  21
ENDBRANCH  17  20
BRANCH  18  23
HETATM   23  O1  UNL     1      57.054  66.916  25.275  1.00  0.00    -0.393 OA
ATOM     24  H1  UNL     1      56.523  67.476  25.829  1.00  0.00     0.210 HD
ENDBRANCH  18  23
ENDBRANCH  14  15
ENDBRANCH   1  14
TORSDOF 5
ENDMDL
