MODEL 5
REMARK VINA RESULT: -5.170641292      8.908     10.760
REMARK  5 active torsions:
REMARK  status: ('A' for Active; 'I' for Inactive)
REMARK    1  A    between atoms: S1_2  and  C2_3 
REMARK    2  A    between atoms: C2_3  and  C3_4 
REMARK    3  A    between atoms: C4_8  and  C5_9 
REMARK    4  A    between atoms: C11_22  and  O1_23 
REMARK    5  A    between atoms: C12_25  and  O2_26 
ROOT
HETATM    1  C3  UNL     1      62.335  63.554  25.500  1.00  0.00     0.227 C 
HETATM    2  N1  UNL     1      60.946  63.275  25.641  1.00  0.00    -0.057 N 
ATOM      3  H11 UNL     1      60.498  63.849  26.354  1.00  0.00     0.278 HD
ATOM      4  H12 UNL     1      60.768  62.365  26.066  1.00  0.00     0.278 HD
HETATM    5  C4  UNL     1      60.303  63.421  24.289  1.00  0.00     0.254 C 
HETATM    6  C11 UNL     1      61.456  63.881  23.440  1.00  0.00     0.184 C 
HETATM    7  C12 UNL     1      62.302  64.652  24.419  1.00  0.00     0.180 C 
ENDROOT
BRANCH   5   8
HETATM    8  C5  UNL     1      59.224  64.428  24.465  1.00  0.00     0.019 A 
HETATM    9  C6  UNL     1      58.874  65.126  25.576  1.00  0.00     0.100 A 
HETATM   10  N2  UNL     1      57.705  65.787  25.260  1.00  0.00    -0.361 N 
HETATM   11  C7  UNL     1      57.346  65.509  24.001  1.00  0.00     0.101 A 
ATOM     12  H2  UNL     1      57.190  66.399  25.893  1.00  0.00     0.165 HD
HETATM   13  C8  UNL     1      56.284  65.979  23.222  1.00  0.00     0.146 A 
HETATM   14  C10 UNL     1      58.276  64.654  23.464  1.00  0.00     0.073 A 
HETATM   15  N3  UNL     1      55.327  66.849  23.800  1.00  0.00    -0.080 NA
HETATM   16  N4  UNL     1      56.208  65.564  21.930  1.00  0.00    -0.339 N 
HETATM   17  C9  UNL     1      57.116  64.732  21.410  1.00  0.00     0.182 A 
ATOM     18  H4  UNL     1      55.441  65.894  21.344  1.00  0.00     0.167 HD
HETATM   19  N5  UNL     1      58.145  64.279  22.182  1.00  0.00    -0.350 N 
ATOM     20  H5  UNL     1      58.829  63.641  21.775  1.00  0.00     0.166 HD
ENDBRANCH   5   8
BRANCH   6  21
HETATM   21  O1  UNL     1      62.176  62.738  23.082  1.00  0.00    -0.390 OA
ATOM     22  H1  UNL     1      62.552  62.389  23.881  1.00  0.00     0.210 HD
ENDBRANCH   6  21
BRANCH   1  23
HETATM   23  C2  UNL     1      63.083  64.008  26.688  1.00  0.00     0.109 C 
BRANCH  23  24
HETATM   24  S1  UNL     1      62.522  65.509  27.476  1.00  0.00    -0.171 SA
HETATM   25  C1  UNL     1      61.230  65.272  28.702  1.00  0.00     0.089 C 
ENDBRANCH  23  24
ENDBRANCH   1  23
BRANCH   7  26
HETATM   26  O2  UNL     1      63.555  64.918  23.930  1.00  0.00    -0.391 OA
ATOM     27  H2  UNL     1      63.652  64.618  23.034  1.00  0.00     0.210 HD
ENDBRANCH   7  26
TORSDOF 5
ENDMDL
