MODEL 3
REMARK VINA RESULT: -5.314342267      7.596     10.563
REMARK  5 active torsions:
REMARK  status: ('A' for Active; 'I' for Inactive)
REMARK    1  A    between atoms: S1_2  and  C2_3 
REMARK    2  A    between atoms: C2_3  and  C3_4 
REMARK    3  A    between atoms: C4_8  and  C5_9 
REMARK    4  A    between atoms: C11_22  and  O1_23 
REMARK    5  A    between atoms: C12_25  and  O2_26 
ROOT
HETATM    1  C3  UNL     1      56.601  66.232  22.568  1.00  0.00     0.227 C 
HETATM    2  N1  UNL     1      56.872  65.529  21.360  1.00  0.00    -0.057 N 
ATOM      3  H11 UNL     1      57.706  65.871  20.883  1.00  0.00     0.278 HD
ATOM      4  H12 UNL     1      56.198  65.737  20.624  1.00  0.00     0.278 HD
HETATM    5  C4  UNL     1      56.948  64.062  21.682  1.00  0.00     0.254 C 
HETATM    6  C11 UNL     1      56.776  64.058  23.176  1.00  0.00     0.184 C 
HETATM    7  C12 UNL     1      57.383  65.375  23.583  1.00  0.00     0.180 C 
ENDROOT
BRANCH   5   8
HETATM    8  C5  UNL     1      58.287  63.617  21.213  1.00  0.00     0.019 A 
HETATM    9  C6  UNL     1      59.432  63.448  21.922  1.00  0.00     0.100 A 
HETATM   10  N2  UNL     1      60.423  63.199  20.994  1.00  0.00    -0.361 N 
HETATM   11  C7  UNL     1      59.909  63.214  19.759  1.00  0.00     0.101 A 
ATOM     12  H2  UNL     1      61.403  63.029  21.217  1.00  0.00     0.165 HD
HETATM   13  C8  UNL     1      60.496  62.962  18.515  1.00  0.00     0.146 A 
HETATM   14  C10 UNL     1      58.564  63.475  19.851  1.00  0.00     0.073 A 
HETATM   15  N3  UNL     1      61.889  62.710  18.440  1.00  0.00    -0.080 NA
HETATM   16  N4  UNL     1      59.698  62.986  17.416  1.00  0.00    -0.339 N 
HETATM   17  C9  UNL     1      58.389  63.240  17.510  1.00  0.00     0.182 A 
ATOM     18  H4  UNL     1      60.106  62.806  16.498  1.00  0.00     0.167 HD
HETATM   19  N5  UNL     1      57.829  63.486  18.728  1.00  0.00    -0.350 N 
ATOM     20  H5  UNL     1      56.830  63.683  18.787  1.00  0.00     0.166 HD
ENDBRANCH   5   8
BRANCH   6  21
HETATM   21  O1  UNL     1      55.403  64.141  23.425  1.00  0.00    -0.390 OA
ATOM     22  H1  UNL     1      55.302  64.577  24.263  1.00  0.00     0.210 HD
ENDBRANCH   6  21
BRANCH   1  23
HETATM   23  C2  UNL     1      56.999  67.649  22.660  1.00  0.00     0.109 C 
BRANCH  23  24
HETATM   24  S1  UNL     1      55.691  68.849  22.852  1.00  0.00    -0.171 SA
HETATM   25  C1  UNL     1      56.056  70.469  22.168  1.00  0.00     0.089 C 
ENDBRANCH  23  24
ENDBRANCH   1  23
BRANCH   7  26
HETATM   26  O2  UNL     1      57.075  65.715  24.875  1.00  0.00    -0.391 OA
ATOM     27  H2  UNL     1      56.425  65.129  25.246  1.00  0.00     0.210 HD
ENDBRANCH   7  26
TORSDOF 5
ENDMDL
