MODEL 4
REMARK VINA RESULT: -5.282337664      9.563     12.864
REMARK  5 active torsions:
REMARK  status: ('A' for Active; 'I' for Inactive)
REMARK    1  A    between atoms: S1_2  and  C2_3 
REMARK    2  A    between atoms: C2_3  and  C3_4 
REMARK    3  A    between atoms: C4_8  and  C5_9 
REMARK    4  A    between atoms: C11_22  and  O1_23 
REMARK    5  A    between atoms: C12_25  and  O2_26 
ROOT
HETATM    1  C3  UNL     1      59.638  64.919  25.099  1.00  0.00     0.227 C 
HETATM    2  N1  UNL     1      60.861  65.645  25.030  1.00  0.00    -0.057 N 
ATOM      3  H11 UNL     1      60.743  66.636  25.239  1.00  0.00     0.278 HD
ATOM      4  H12 UNL     1      61.205  65.747  24.075  1.00  0.00     0.278 HD
HETATM    5  C4  UNL     1      61.853  64.972  25.937  1.00  0.00     0.254 C 
HETATM    6  C11 UNL     1      61.026  63.878  26.554  1.00  0.00     0.184 C 
HETATM    7  C12 UNL     1      59.645  64.480  26.577  1.00  0.00     0.180 C 
ENDROOT
BRANCH   5   8
HETATM    8  C5  UNL     1      62.301  66.021  26.891  1.00  0.00     0.019 A 
HETATM    9  C6  UNL     1      62.036  67.353  26.887  1.00  0.00     0.100 A 
HETATM   10  N2  UNL     1      62.828  67.903  27.874  1.00  0.00    -0.361 N 
HETATM   11  C7  UNL     1      63.555  66.947  28.465  1.00  0.00     0.101 A 
ATOM     12  H2  UNL     1      62.856  68.893  28.117  1.00  0.00     0.165 HD
HETATM   13  C8  UNL     1      64.447  67.002  29.541  1.00  0.00     0.146 A 
HETATM   14  C10 UNL     1      63.254  65.745  27.874  1.00  0.00     0.073 A 
HETATM   15  N3  UNL     1      64.756  68.255  30.127  1.00  0.00    -0.080 NA
HETATM   16  N4  UNL     1      64.997  65.838  29.973  1.00  0.00    -0.339 N 
HETATM   17  C9  UNL     1      64.700  64.670  29.396  1.00  0.00     0.182 A 
ATOM     18  H4  UNL     1      65.651  65.855  30.756  1.00  0.00     0.167 HD
HETATM   19  N5  UNL     1      63.831  64.630  28.347  1.00  0.00    -0.350 N 
ATOM     20  H5  UNL     1      63.616  63.733  27.911  1.00  0.00     0.166 HD
ENDBRANCH   5   8
BRANCH   6  21
HETATM   21  O1  UNL     1      61.002  62.823  25.637  1.00  0.00    -0.390 OA
ATOM     22  H1  UNL     1      60.173  62.877  25.179  1.00  0.00     0.210 HD
ENDBRANCH   6  21
BRANCH   1  23
HETATM   23  C2  UNL     1      58.384  65.621  24.766  1.00  0.00     0.109 C 
BRANCH  23  24
HETATM   24  S1  UNL     1      57.402  64.943  23.438  1.00  0.00    -0.171 SA
HETATM   25  C1  UNL     1      56.453  66.157  22.514  1.00  0.00     0.089 C 
ENDBRANCH  23  24
ENDBRANCH   1  23
BRANCH   7  26
HETATM   26  O2  UNL     1      58.673  63.547  26.832  1.00  0.00    -0.391 OA
ATOM     27  H2  UNL     1      58.133  63.797  27.572  1.00  0.00     0.210 HD
ENDBRANCH   7  26
TORSDOF 5
ENDMDL
