MODEL 2
REMARK VINA RESULT: -7.384416804      1.836      2.585
REMARK  6 active torsions:
REMARK  status: ('A' for Active; 'I' for Inactive)
REMARK    1  A    between atoms: C2_2  and  O1_3 
REMARK    2  A    between atoms: O1_3  and  C3_4 
REMARK    3  A    between atoms: C3_4  and  C4_6 
REMARK    4  A    between atoms: C9_11  and  S1_12 
REMARK    5  A    between atoms: S1_12  and  N1_15 
REMARK       I    between atoms: N1_15  and  C10_17 
REMARK       I    between atoms: C10_17  and  N2_19 
REMARK    6  A    between atoms: N2_19  and  C11_21 
ROOT
HETATM    1  C11 UNL     1      60.641  60.589  51.648  1.00  0.00     0.689 A 
HETATM    2  N3  UNL     1      60.678  60.372  52.965  1.00  0.00    -0.181 N 
ATOM      3  H3  UNL     1      60.955  59.452  53.307  1.00  0.00     0.185 HD
HETATM    4  C12 UNL     1      60.370  61.305  53.833  1.00  0.00     0.123 A 
HETATM    5 CL1  UNL     1      60.445  60.948  55.570  1.00  0.00    -0.064 Cl
HETATM    6  C13 UNL     1      59.994  62.542  53.403  1.00  0.00     0.099 A 
HETATM    7  C14 UNL     1      59.936  62.819  52.021  1.00  0.00     0.160 A 
HETATM    8  O6  UNL     1      59.574  64.005  51.628  1.00  0.00    -0.340 OA
HETATM    9  C15 UNL     1      59.242  65.104  51.047  1.00  0.00     0.211 C 
HETATM   10  N4  UNL     1      60.262  61.829  51.205  1.00  0.00    -0.170 N 
ATOM     11  H4  UNL     1      60.229  61.997  50.200  1.00  0.00     0.186 HD
ENDROOT
BRANCH   1  12
HETATM   12  N2  UNL     1      60.999  59.665  50.722  1.00  0.00    -0.140 N 
HETATM   13  C10 UNL     1      60.616  58.521  50.099  1.00  0.00     0.348 C 
HETATM   14  N1  UNL     1      59.514  57.695  50.025  1.00  0.00    -0.231 N 
HETATM   15  O5  UNL     1      61.631  58.161  49.382  1.00  0.00    -0.245 OA
ATOM     16  H1  UNL     1      58.673  57.919  50.558  1.00  0.00     0.183 HD
ATOM     17  H2  UNL     1      61.910  59.933  50.350  1.00  0.00     0.189 HD
BRANCH  14  18
HETATM   18  S1  UNL     1      59.553  56.268  49.023  1.00  0.00     0.267 S 
HETATM   19  O3  UNL     1      58.246  55.623  49.152  1.00  0.00    -0.200 OA
HETATM   20  O4  UNL     1      60.608  55.311  49.573  1.00  0.00    -0.200 OA
BRANCH  18  21
HETATM   21  C9  UNL     1      59.874  56.704  47.375  1.00  0.00     0.096 A 
HETATM   22  C4  UNL     1      59.056  57.574  46.695  1.00  0.00     0.062 A 
HETATM   23  C5  UNL     1      59.376  57.853  45.381  1.00  0.00     0.019 A 
HETATM   24  C6  UNL     1      60.479  57.288  44.753  1.00  0.00     0.001 A 
HETATM   25  C7  UNL     1      61.299  56.416  45.438  1.00  0.00     0.002 A 
HETATM   26  C8  UNL     1      60.969  56.144  46.751  1.00  0.00     0.026 A 
BRANCH  22  27
HETATM   27  C3  UNL     1      57.893  58.199  47.296  1.00  0.00     0.294 C 
HETATM   28  O2  UNL     1      56.716  57.782  47.187  1.00  0.00    -0.259 OA
BRANCH  27  29
HETATM   29  O1  UNL     1      58.096  59.357  48.058  1.00  0.00    -0.318 OA
BRANCH  29  30
HETATM   30  C2  UNL     1      57.795  60.644  47.491  1.00  0.00     0.174 C 
HETATM   31  C1  UNL     1      57.516  61.666  48.544  1.00  0.00     0.034 C 
ENDBRANCH  29  30
ENDBRANCH  27  29
ENDBRANCH  22  27
ENDBRANCH  18  21
ENDBRANCH  14  18
ENDBRANCH   1  12
TORSDOF 6
ENDMDL
