MODEL 3
REMARK VINA RESULT: -7.344897630      1.473      2.126
REMARK  6 active torsions:
REMARK  status: ('A' for Active; 'I' for Inactive)
REMARK    1  A    between atoms: C2_2  and  O1_3 
REMARK    2  A    between atoms: O1_3  and  C3_4 
REMARK    3  A    between atoms: C3_4  and  C4_6 
REMARK    4  A    between atoms: C9_11  and  S1_12 
REMARK    5  A    between atoms: S1_12  and  N1_15 
REMARK       I    between atoms: N1_15  and  C10_17 
REMARK       I    between atoms: C10_17  and  N2_19 
REMARK    6  A    between atoms: N2_19  and  C11_21 
ROOT
HETATM    1  C11 UNL     1      60.876  60.905  51.346  1.00  0.00     0.689 A 
HETATM    2  N3  UNL     1      60.680  60.462  52.591  1.00  0.00    -0.181 N 
ATOM      3  H3  UNL     1      60.920  59.496  52.815  1.00  0.00     0.185 HD
HETATM    4  C12 UNL     1      60.189  61.229  53.534  1.00  0.00     0.123 A 
HETATM    5 CL1  UNL     1      59.957  60.573  55.168  1.00  0.00    -0.064 Cl
HETATM    6  C13 UNL     1      59.857  62.522  53.260  1.00  0.00     0.099 A 
HETATM    7  C14 UNL     1      60.043  63.036  51.960  1.00  0.00     0.160 A 
HETATM    8  O6  UNL     1      59.720  64.271  51.716  1.00  0.00    -0.340 OA
HETATM    9  C15 UNL     1      59.463  65.455  51.281  1.00  0.00     0.211 C 
HETATM   10  N4  UNL     1      60.544  62.203  51.061  1.00  0.00    -0.170 N 
ATOM     11  H4  UNL     1      60.689  62.544  50.111  1.00  0.00     0.186 HD
ENDROOT
BRANCH   1  12
HETATM   12  N2  UNL     1      61.427  60.157  50.359  1.00  0.00    -0.140 N 
HETATM   13  C10 UNL     1      61.600  58.891  49.899  1.00  0.00     0.348 C 
HETATM   14  N1  UNL     1      61.178  57.611  50.192  1.00  0.00    -0.231 N 
HETATM   15  O5  UNL     1      62.406  58.995  48.893  1.00  0.00    -0.245 OA
ATOM     16  H1  UNL     1      60.536  57.452  50.968  1.00  0.00     0.183 HD
ATOM     17  H2  UNL     1      61.892  60.791  49.709  1.00  0.00     0.189 HD
BRANCH  14  18
HETATM   18  S1  UNL     1      61.740  56.263  49.238  1.00  0.00     0.267 S 
HETATM   19  O3  UNL     1      61.321  55.047  49.934  1.00  0.00    -0.200 OA
HETATM   20  O4  UNL     1      63.266  56.286  49.206  1.00  0.00    -0.200 OA
BRANCH  18  21
HETATM   21  C9  UNL     1      61.060  56.336  47.643  1.00  0.00     0.096 A 
HETATM   22  C4  UNL     1      59.736  56.645  47.446  1.00  0.00     0.062 A 
HETATM   23  C5  UNL     1      59.274  56.664  46.145  1.00  0.00     0.019 A 
HETATM   24  C6  UNL     1      60.101  56.386  45.064  1.00  0.00     0.001 A 
HETATM   25  C7  UNL     1      61.429  56.077  45.264  1.00  0.00     0.002 A 
HETATM   26  C8  UNL     1      61.880  56.059  46.569  1.00  0.00     0.026 A 
BRANCH  22  27
HETATM   27  C3  UNL     1      58.825  56.949  48.533  1.00  0.00     0.294 C 
HETATM   28  O2  UNL     1      58.220  56.095  49.223  1.00  0.00    -0.259 OA
BRANCH  27  29
HETATM   29  O1  UNL     1      58.600  58.298  48.838  1.00  0.00    -0.318 OA
BRANCH  29  30
HETATM   30  C2  UNL     1      58.657  59.284  47.792  1.00  0.00     0.174 C 
HETATM   31  C1  UNL     1      58.263  60.640  48.282  1.00  0.00     0.034 C 
ENDBRANCH  29  30
ENDBRANCH  27  29
ENDBRANCH  22  27
ENDBRANCH  18  21
ENDBRANCH  14  18
ENDBRANCH   1  12
TORSDOF 6
ENDMDL
