MODEL 1
REMARK VINA RESULT: -7.437267594      0.000      0.000
REMARK  6 active torsions:
REMARK  status: ('A' for Active; 'I' for Inactive)
REMARK    1  A    between atoms: C2_2  and  O1_3 
REMARK    2  A    between atoms: O1_3  and  C3_4 
REMARK    3  A    between atoms: C3_4  and  C4_6 
REMARK    4  A    between atoms: C9_11  and  S1_12 
REMARK    5  A    between atoms: S1_12  and  N1_15 
REMARK       I    between atoms: N1_15  and  C10_17 
REMARK       I    between atoms: C10_17  and  N2_19 
REMARK    6  A    between atoms: N2_19  and  C11_21 
ROOT
HETATM    1  C11 UNL     1      60.941  61.170  51.103  1.00  0.00     0.689 A 
HETATM    2  N3  UNL     1      60.610  62.449  50.902  1.00  0.00    -0.181 N 
ATOM      3  H3  UNL     1      60.791  62.869  49.991  1.00  0.00     0.185 HD
HETATM    4  C12 UNL     1      60.059  63.180  51.841  1.00  0.00     0.123 A 
HETATM    5 CL1  UNL     1      59.642  64.872  51.503  1.00  0.00    -0.064 Cl
HETATM    6  C13 UNL     1      59.808  62.644  53.067  1.00  0.00     0.099 A 
HETATM    7  C14 UNL     1      60.142  61.298  53.329  1.00  0.00     0.160 A 
HETATM    8  O6  UNL     1      59.897  60.803  54.506  1.00  0.00    -0.340 OA
HETATM    9  C15 UNL     1      59.737  60.138  55.596  1.00  0.00     0.211 C 
HETATM   10  N4  UNL     1      60.695  60.622  52.334  1.00  0.00    -0.170 N 
ATOM     11  H4  UNL     1      60.949  59.647  52.492  1.00  0.00     0.186 HD
ENDROOT
BRANCH   1  12
HETATM   12  N2  UNL     1      61.467  60.369  50.143  1.00  0.00    -0.140 N 
HETATM   13  C10 UNL     1      61.644  59.079  49.757  1.00  0.00     0.348 C 
HETATM   14  N1  UNL     1      61.257  57.814  50.146  1.00  0.00    -0.231 N 
HETATM   15  O5  UNL     1      62.409  59.132  48.716  1.00  0.00    -0.245 OA
ATOM     16  H1  UNL     1      60.648  57.695  50.956  1.00  0.00     0.183 HD
ATOM     17  H2  UNL     1      61.895  60.968  49.438  1.00  0.00     0.189 HD
BRANCH  14  18
HETATM   18  S1  UNL     1      61.805  56.418  49.258  1.00  0.00     0.267 S 
HETATM   19  O3  UNL     1      61.376  55.240  50.011  1.00  0.00    -0.200 OA
HETATM   20  O4  UNL     1      63.331  56.425  49.223  1.00  0.00    -0.200 OA
BRANCH  18  21
HETATM   21  C9  UNL     1      61.124  56.419  47.662  1.00  0.00     0.096 A 
HETATM   22  C4  UNL     1      59.788  56.670  47.457  1.00  0.00     0.062 A 
HETATM   23  C5  UNL     1      59.326  56.636  46.156  1.00  0.00     0.019 A 
HETATM   24  C6  UNL     1      60.163  56.361  45.082  1.00  0.00     0.001 A 
HETATM   25  C7  UNL     1      61.503  56.111  45.290  1.00  0.00     0.002 A 
HETATM   26  C8  UNL     1      61.954  56.147  46.595  1.00  0.00     0.026 A 
BRANCH  22  27
HETATM   27  C3  UNL     1      58.865  56.967  48.536  1.00  0.00     0.294 C 
HETATM   28  O2  UNL     1      58.250  56.108  49.212  1.00  0.00    -0.259 OA
BRANCH  27  29
HETATM   29  O1  UNL     1      58.641  58.314  48.851  1.00  0.00    -0.318 OA
BRANCH  29  30
HETATM   30  C2  UNL     1      58.483  59.275  47.794  1.00  0.00     0.174 C 
HETATM   31  C1  UNL     1      58.287  60.659  48.323  1.00  0.00     0.034 C 
ENDBRANCH  29  30
ENDBRANCH  27  29
ENDBRANCH  22  27
ENDBRANCH  18  21
ENDBRANCH  14  18
ENDBRANCH   1  12
TORSDOF 6
ENDMDL
