MODEL 4
REMARK VINA RESULT: -7.829937324      3.676      6.433
REMARK  6 active torsions:
REMARK  status: ('A' for Active; 'I' for Inactive)
REMARK    1  A    between atoms: C2_2  and  C3_3 
REMARK    2  A    between atoms: C5_5  and  C6_6 
REMARK    3  A    between atoms: C7_11  and  C8_12 
REMARK    4  A    between atoms: C9_15  and  C10_16 
REMARK    5  A    between atoms: C17_25  and  O5_26 
REMARK    6  A    between atoms: C19_29  and  O6_30 
ROOT
HETATM    1  C6  UNL     1       4.180  37.004  -3.604  1.00  0.00     0.074 A 
HETATM    2  N1  UNL     1       5.027  37.090  -4.670  1.00  0.00    -0.298 N 
ATOM      3  H1  UNL     1       4.861  36.680  -5.589  1.00  0.00     0.187 HD
HETATM    4  N2  UNL     1       6.095  37.785  -4.327  1.00  0.00    -0.293 N 
ATOM      5  H2  UNL     1       6.884  37.997  -4.937  1.00  0.00     0.187 HD
HETATM    6  C7  UNL     1       5.973  38.167  -3.046  1.00  0.00     0.138 A 
HETATM    7  C9  UNL     1       4.775  37.688  -2.565  1.00  0.00     0.038 A 
ENDROOT
BRANCH   1   8
HETATM    8  C5  UNL     1       2.887  36.333  -3.527  1.00  0.00     0.027 A 
HETATM    9  C4  UNL     1       1.715  36.948  -3.915  1.00  0.00     0.026 A 
HETATM   10  C3  UNL     1       0.489  36.321  -3.846  1.00  0.00    -0.024 A 
HETATM   11  C19 UNL     1       0.392  35.034  -3.381  1.00  0.00     0.074 A 
HETATM   12  C18 UNL     1       1.550  34.399  -2.988  1.00  0.00     0.074 A 
HETATM   13  C17 UNL     1       2.787  35.040  -3.060  1.00  0.00     0.081 A 
BRANCH  10  14
HETATM   14  C2  UNL     1      -0.730  37.058  -4.285  1.00  0.00     0.037 C 
HETATM   15  C1  UNL     1      -0.482  37.870  -5.532  1.00  0.00     0.010 C 
ENDBRANCH  10  14
BRANCH  11  16
HETATM   16  O6  UNL     1      -0.853  34.377  -3.304  1.00  0.00    -0.360 OA
ATOM     17  H6  UNL     1      -0.954  33.571  -2.812  1.00  0.00     0.217 HD
ENDBRANCH  11  16
BRANCH  13  18
HETATM   18  O5  UNL     1       3.931  34.390  -2.664  1.00  0.00    -0.360 OA
ATOM     19  H5  UNL     1       4.656  34.328  -3.275  1.00  0.00     0.217 HD
ENDBRANCH  13  18
ENDBRANCH   1   8
BRANCH   7  20
HETATM   20  C10 UNL     1       4.247  37.869  -1.233  1.00  0.00    -0.018 A 
HETATM   21  C11 UNL     1       4.363  36.853  -0.292  1.00  0.00     0.015 A 
HETATM   22  C12 UNL     1       3.874  36.991   0.986  1.00  0.00     0.040 A 
HETATM   23  C13 UNL     1       3.237  38.163   1.386  1.00  0.00     0.105 A 
HETATM   24  C14 UNL     1       3.113  39.179   0.468  1.00  0.00     0.105 A 
HETATM   25  O4  UNL     1       2.666  38.551   2.590  1.00  0.00    -0.323 OA
HETATM   26  C15 UNL     1       3.613  39.019  -0.813  1.00  0.00     0.052 A 
HETATM   27  O3  UNL     1       2.453  40.191   1.140  1.00  0.00    -0.323 OA
HETATM   28  C16 UNL     1       1.937  39.733   2.376  1.00  0.00     0.352 C 
ENDBRANCH   7  20
BRANCH   6  29
HETATM   29  C8  UNL     1       6.947  38.954  -2.300  1.00  0.00     0.229 C 
HETATM   30  O1  UNL     1       8.092  38.494  -2.027  1.00  0.00    -0.643 OA
HETATM   31  O2  UNL     1       6.678  40.234  -1.854  1.00  0.00    -0.643 OA
ENDBRANCH   6  29
TORSDOF 6
ENDMDL
