MODEL 2
REMARK VINA RESULT: -9.826317700      0.586      1.236
REMARK  6 active torsions:
REMARK  status: ('A' for Active; 'I' for Inactive)
REMARK    1  A    between atoms: C2_2  and  C3_3 
REMARK    2  A    between atoms: C5_5  and  C6_6 
REMARK    3  A    between atoms: C7_11  and  C8_12 
REMARK    4  A    between atoms: C9_15  and  C10_16 
REMARK    5  A    between atoms: C17_25  and  O5_26 
REMARK    6  A    between atoms: C19_29  and  O6_30 
ROOT
HETATM    1  C6  UNL     1      -0.638  33.111  -4.522  1.00  0.00     0.074 A 
HETATM    2  N1  UNL     1      -1.271  32.674  -5.650  1.00  0.00    -0.298 N 
ATOM      3  H1  UNL     1      -1.971  31.933  -5.682  1.00  0.00     0.187 HD
HETATM    4  N2  UNL     1      -0.837  33.359  -6.690  1.00  0.00    -0.293 N 
ATOM      5  H2  UNL     1      -1.146  33.232  -7.654  1.00  0.00     0.187 HD
HETATM    6  C7  UNL     1       0.078  34.250  -6.275  1.00  0.00     0.138 A 
HETATM    7  C9  UNL     1       0.223  34.115  -4.912  1.00  0.00     0.038 A 
ENDROOT
BRANCH   1   8
HETATM    8  C5  UNL     1      -0.804  32.642  -3.152  1.00  0.00     0.027 A 
HETATM    9  C4  UNL     1       0.239  32.101  -2.428  1.00  0.00     0.026 A 
HETATM   10  C3  UNL     1       0.092  31.655  -1.132  1.00  0.00    -0.024 A 
HETATM   11  C19 UNL     1      -1.124  31.738  -0.502  1.00  0.00     0.074 A 
HETATM   12  C18 UNL     1      -2.181  32.276  -1.206  1.00  0.00     0.074 A 
HETATM   13  C17 UNL     1      -2.025  32.724  -2.517  1.00  0.00     0.081 A 
BRANCH  10  14
HETATM   14  C2  UNL     1       1.271  31.084  -0.422  1.00  0.00     0.037 C 
HETATM   15  C1  UNL     1       2.059  30.143  -1.299  1.00  0.00     0.010 C 
ENDBRANCH  10  14
BRANCH  11  16
HETATM   16  O6  UNL     1      -1.293  31.288   0.822  1.00  0.00    -0.360 OA
ATOM     17  H6  UNL     1      -1.035  30.411   1.080  1.00  0.00     0.217 HD
ENDBRANCH  11  16
BRANCH  13  18
HETATM   18  O5  UNL     1      -3.090  33.257  -3.201  1.00  0.00    -0.360 OA
ATOM     19  H5  UNL     1      -2.977  34.087  -3.648  1.00  0.00     0.217 HD
ENDBRANCH  13  18
ENDBRANCH   1   8
BRANCH   7  20
HETATM   20  C10 UNL     1       1.105  34.878  -4.060  1.00  0.00    -0.018 A 
HETATM   21  C11 UNL     1       2.415  34.462  -3.860  1.00  0.00     0.015 A 
HETATM   22  C12 UNL     1       3.284  35.165  -3.057  1.00  0.00     0.040 A 
HETATM   23  C13 UNL     1       2.876  36.328  -2.408  1.00  0.00     0.105 A 
HETATM   24  C14 UNL     1       1.583  36.755  -2.594  1.00  0.00     0.105 A 
HETATM   25  O4  UNL     1       3.539  37.205  -1.561  1.00  0.00    -0.323 OA
HETATM   26  C15 UNL     1       0.726  36.032  -3.407  1.00  0.00     0.052 A 
HETATM   27  O3  UNL     1       1.473  37.908  -1.841  1.00  0.00    -0.323 OA
HETATM   28  C16 UNL     1       2.591  38.070  -0.988  1.00  0.00     0.352 C 
ENDBRANCH   7  20
BRANCH   6  29
HETATM   29  C8  UNL     1       0.790  35.193  -7.128  1.00  0.00     0.229 C 
HETATM   30  O1  UNL     1       0.208  36.198  -7.625  1.00  0.00    -0.643 OA
HETATM   31  O2  UNL     1       2.129  35.044  -7.437  1.00  0.00    -0.643 OA
ENDBRANCH   6  29
TORSDOF 6
ENDMDL
