MODEL 5
REMARK VINA RESULT: -7.810205764      2.539      5.448
REMARK  6 active torsions:
REMARK  status: ('A' for Active; 'I' for Inactive)
REMARK    1  A    between atoms: C2_2  and  C3_3 
REMARK    2  A    between atoms: C5_5  and  C6_6 
REMARK    3  A    between atoms: C7_11  and  C8_12 
REMARK    4  A    between atoms: C9_15  and  C10_16 
REMARK    5  A    between atoms: C17_25  and  O5_26 
REMARK    6  A    between atoms: C19_29  and  O6_30 
ROOT
HETATM    1  C6  UNL     1       3.261  37.001  -3.930  1.00  0.00     0.074 A 
HETATM    2  N1  UNL     1       3.857  37.797  -4.865  1.00  0.00    -0.298 N 
ATOM      3  H1  UNL     1       4.572  38.497  -4.672  1.00  0.00     0.187 HD
HETATM    4  N2  UNL     1       3.364  37.519  -6.057  1.00  0.00    -0.293 N 
ATOM      5  H2  UNL     1       3.636  37.970  -6.930  1.00  0.00     0.187 HD
HETATM    6  C7  UNL     1       2.446  36.547  -5.933  1.00  0.00     0.138 A 
HETATM    7  C9  UNL     1       2.360  36.201  -4.602  1.00  0.00     0.038 A 
ENDROOT
BRANCH   1   8
HETATM    8  C5  UNL     1       3.494  36.965  -2.491  1.00  0.00     0.027 A 
HETATM    9  C4  UNL     1       4.361  36.063  -1.909  1.00  0.00     0.026 A 
HETATM   10  C3  UNL     1       4.589  36.022  -0.550  1.00  0.00    -0.024 A 
HETATM   11  C19 UNL     1       3.946  36.897   0.289  1.00  0.00     0.074 A 
HETATM   12  C18 UNL     1       3.076  37.808  -0.270  1.00  0.00     0.074 A 
HETATM   13  C17 UNL     1       2.850  37.843  -1.646  1.00  0.00     0.081 A 
BRANCH  10  14
HETATM   14  C2  UNL     1       5.542  35.015  -0.003  1.00  0.00     0.037 C 
HETATM   15  C1  UNL     1       6.938  35.571   0.132  1.00  0.00     0.010 C 
ENDBRANCH  10  14
BRANCH  11  16
HETATM   16  O6  UNL     1       4.167  36.870   1.681  1.00  0.00    -0.360 OA
ATOM     17  H6  UNL     1       3.441  36.860   2.293  1.00  0.00     0.217 HD
ENDBRANCH  11  16
BRANCH  13  18
HETATM   18  O5  UNL     1       1.979  38.758  -2.184  1.00  0.00    -0.360 OA
ATOM     19  H5  UNL     1       1.892  38.806  -3.129  1.00  0.00     0.217 HD
ENDBRANCH  13  18
ENDBRANCH   1   8
BRANCH   7  20
HETATM   20  C10 UNL     1       1.496  35.198  -4.026  1.00  0.00    -0.018 A 
HETATM   21  C11 UNL     1       0.120  35.386  -4.013  1.00  0.00     0.015 A 
HETATM   22  C12 UNL     1      -0.733  34.451  -3.475  1.00  0.00     0.040 A 
HETATM   23  C13 UNL     1      -0.244  33.272  -2.917  1.00  0.00     0.105 A 
HETATM   24  C14 UNL     1       1.116  33.069  -2.922  1.00  0.00     0.105 A 
HETATM   25  O4  UNL     1      -0.875  32.189  -2.322  1.00  0.00    -0.323 OA
HETATM   26  C15 UNL     1       1.956  34.023  -3.469  1.00  0.00     0.052 A 
HETATM   27  O3  UNL     1       1.297  31.840  -2.315  1.00  0.00    -0.323 OA
HETATM   28  C16 UNL     1       0.103  31.390  -1.704  1.00  0.00     0.352 C 
ENDBRANCH   7  20
BRANCH   6  29
HETATM   29  C8  UNL     1       1.677  35.963  -7.025  1.00  0.00     0.229 C 
HETATM   30  O1  UNL     1       2.173  35.080  -7.778  1.00  0.00    -0.643 OA
HETATM   31  O2  UNL     1       0.375  36.340  -7.295  1.00  0.00    -0.643 OA
ENDBRANCH   6  29
TORSDOF 6
ENDMDL
