MODEL 3
REMARK VINA RESULT: -7.927586948      3.440      6.039
REMARK  6 active torsions:
REMARK  status: ('A' for Active; 'I' for Inactive)
REMARK    1  A    between atoms: C2_2  and  C3_3 
REMARK    2  A    between atoms: C5_5  and  C6_6 
REMARK    3  A    between atoms: C7_11  and  C8_12 
REMARK    4  A    between atoms: C9_15  and  C10_16 
REMARK    5  A    between atoms: C17_25  and  O5_26 
REMARK    6  A    between atoms: C19_29  and  O6_30 
ROOT
HETATM    1  C6  UNL     1       4.058  37.170  -3.711  1.00  0.00     0.074 A 
HETATM    2  N1  UNL     1       4.885  37.288  -4.791  1.00  0.00    -0.298 N 
ATOM      3  H1  UNL     1       4.685  36.935  -5.726  1.00  0.00     0.187 HD
HETATM    4  N2  UNL     1       5.980  37.933  -4.437  1.00  0.00    -0.293 N 
ATOM      5  H2  UNL     1       6.762  38.155  -5.053  1.00  0.00     0.187 HD
HETATM    6  C7  UNL     1       5.899  38.247  -3.134  1.00  0.00     0.138 A 
HETATM    7  C9  UNL     1       4.697  37.778  -2.651  1.00  0.00     0.038 A 
ENDROOT
BRANCH   1   8
HETATM    8  C5  UNL     1       2.749  36.533  -3.640  1.00  0.00     0.027 A 
HETATM    9  C4  UNL     1       2.583  35.239  -3.192  1.00  0.00     0.026 A 
HETATM   10  C3  UNL     1       1.349  34.629  -3.120  1.00  0.00    -0.024 A 
HETATM   11  C19 UNL     1       0.216  35.306  -3.499  1.00  0.00     0.074 A 
HETATM   12  C18 UNL     1       0.357  36.601  -3.949  1.00  0.00     0.074 A 
HETATM   13  C17 UNL     1       1.610  37.211  -4.019  1.00  0.00     0.081 A 
BRANCH  10  14
HETATM   14  C2  UNL     1       1.259  33.227  -2.625  1.00  0.00     0.037 C 
HETATM   15  C1  UNL     1       2.432  32.857  -1.752  1.00  0.00     0.010 C 
ENDBRANCH  10  14
BRANCH  11  16
HETATM   16  O6  UNL     1      -1.054  34.698  -3.432  1.00  0.00    -0.360 OA
ATOM     17  H6  UNL     1      -1.342  34.086  -4.099  1.00  0.00     0.217 HD
ENDBRANCH  11  16
BRANCH  13  18
HETATM   18  O5  UNL     1       1.729  38.503  -4.471  1.00  0.00    -0.360 OA
ATOM     19  H5  UNL     1       1.342  39.203  -3.959  1.00  0.00     0.217 HD
ENDBRANCH  13  18
ENDBRANCH   1   8
BRANCH   7  20
HETATM   20  C10 UNL     1       4.205  37.901  -1.299  1.00  0.00    -0.018 A 
HETATM   21  C11 UNL     1       4.342  36.843  -0.408  1.00  0.00     0.015 A 
HETATM   22  C12 UNL     1       3.886  36.926   0.888  1.00  0.00     0.040 A 
HETATM   23  C13 UNL     1       3.265  38.081   1.357  1.00  0.00     0.105 A 
HETATM   24  C14 UNL     1       3.121  39.137   0.488  1.00  0.00     0.105 A 
HETATM   25  O4  UNL     1       2.727  38.416   2.591  1.00  0.00    -0.323 OA
HETATM   26  C15 UNL     1       3.587  39.033  -0.811  1.00  0.00     0.052 A 
HETATM   27  O3  UNL     1       2.484  40.120   1.221  1.00  0.00    -0.323 OA
HETATM   28  C16 UNL     1       1.998  39.609   2.449  1.00  0.00     0.352 C 
ENDBRANCH   7  20
BRANCH   6  29
HETATM   29  C8  UNL     1       6.913  38.963  -2.370  1.00  0.00     0.229 C 
HETATM   30  O1  UNL     1       8.044  38.450  -2.138  1.00  0.00    -0.643 OA
HETATM   31  O2  UNL     1       6.698  40.230  -1.861  1.00  0.00    -0.643 OA
ENDBRANCH   6  29
TORSDOF 6
ENDMDL
