MODEL 1
REMARK VINA RESULT: -10.019170726      0.000      0.000
REMARK  6 active torsions:
REMARK  status: ('A' for Active; 'I' for Inactive)
REMARK    1  A    between atoms: C2_2  and  C3_3 
REMARK    2  A    between atoms: C5_5  and  C6_6 
REMARK    3  A    between atoms: C7_11  and  C8_12 
REMARK    4  A    between atoms: C9_15  and  C10_16 
REMARK    5  A    between atoms: C17_25  and  O5_26 
REMARK    6  A    between atoms: C19_29  and  O6_30 
ROOT
HETATM    1  C6  UNL     1      -0.652  33.085  -4.477  1.00  0.00     0.074 A 
HETATM    2  N1  UNL     1      -1.129  32.552  -5.639  1.00  0.00    -0.298 N 
ATOM      3  H1  UNL     1      -1.718  31.722  -5.708  1.00  0.00     0.187 HD
HETATM    4  N2  UNL     1      -0.710  33.276  -6.659  1.00  0.00    -0.293 N 
ATOM      5  H2  UNL     1      -0.922  33.096  -7.640  1.00  0.00     0.187 HD
HETATM    6  C7  UNL     1       0.041  34.288  -6.195  1.00  0.00     0.138 A 
HETATM    7  C9  UNL     1       0.094  34.192  -4.822  1.00  0.00     0.038 A 
ENDROOT
BRANCH   1   8
HETATM    8  C5  UNL     1      -0.861  32.615  -3.113  1.00  0.00     0.027 A 
HETATM    9  C4  UNL     1       0.149  32.040  -2.370  1.00  0.00     0.026 A 
HETATM   10  C3  UNL     1      -0.038  31.593  -1.080  1.00  0.00    -0.024 A 
HETATM   11  C19 UNL     1      -1.265  31.709  -0.476  1.00  0.00     0.074 A 
HETATM   12  C18 UNL     1      -2.290  32.281  -1.198  1.00  0.00     0.074 A 
HETATM   13  C17 UNL     1      -2.093  32.731  -2.504  1.00  0.00     0.081 A 
BRANCH  10  14
HETATM   14  C2  UNL     1       1.107  30.983  -0.347  1.00  0.00     0.037 C 
HETATM   15  C1  UNL     1       2.001  30.182  -1.260  1.00  0.00     0.010 C 
ENDBRANCH  10  14
BRANCH  11  16
HETATM   16  O6  UNL     1      -1.476  31.258   0.843  1.00  0.00    -0.360 OA
ATOM     17  H6  UNL     1      -2.195  31.589   1.367  1.00  0.00     0.217 HD
ENDBRANCH  11  16
BRANCH  13  18
HETATM   18  O5  UNL     1      -3.127  33.298  -3.207  1.00  0.00    -0.360 OA
ATOM     19  H5  UNL     1      -4.018  33.073  -2.970  1.00  0.00     0.217 HD
ENDBRANCH  13  18
ENDBRANCH   1   8
BRANCH   7  20
HETATM   20  C10 UNL     1       0.795  35.078  -3.923  1.00  0.00    -0.018 A 
HETATM   21  C11 UNL     1       0.147  36.186  -3.390  1.00  0.00     0.015 A 
HETATM   22  C12 UNL     1       0.783  37.051  -2.529  1.00  0.00     0.040 A 
HETATM   23  C13 UNL     1       2.110  36.846  -2.159  1.00  0.00     0.105 A 
HETATM   24  C14 UNL     1       2.766  35.755  -2.677  1.00  0.00     0.105 A 
HETATM   25  O4  UNL     1       2.966  37.552  -1.325  1.00  0.00    -0.323 OA
HETATM   26  C15 UNL     1       2.107  34.897  -3.542  1.00  0.00     0.052 A 
HETATM   27  O3  UNL     1       4.039  35.813  -2.141  1.00  0.00    -0.323 OA
HETATM   28  C16 UNL     1       4.269  37.056  -1.504  1.00  0.00     0.352 C 
ENDBRANCH   7  20
BRANCH   6  29
HETATM   29  C8  UNL     1       0.685  35.309  -7.012  1.00  0.00     0.229 C 
HETATM   30  O1  UNL     1       0.049  36.323  -7.417  1.00  0.00    -0.643 OA
HETATM   31  O2  UNL     1       2.012  35.227  -7.386  1.00  0.00    -0.643 OA
ENDBRANCH   6  29
TORSDOF 6
ENDMDL
