MODEL 4
REMARK VINA RESULT: -7.014561535      2.841      5.393
REMARK  5 active torsions:
REMARK  status: ('A' for Active; 'I' for Inactive)
REMARK    1  A    between atoms: C2_2  and  C3_3 
REMARK    2  A    between atoms: C5_5  and  C6_6 
REMARK    3  A    between atoms: C8_12  and  C9_13 
REMARK    4  A    between atoms: C12_20  and  O1_21 
REMARK    5  A    between atoms: C14_24  and  O2_25 
ROOT
HETATM    1  C6  UNL     1      34.606  32.450  -2.690  1.00  0.00     0.075 A 
HETATM    2  N1  UNL     1      33.251  32.488  -2.593  1.00  0.00    -0.299 N 
ATOM      3  H1  UNL     1      32.636  33.102  -3.127  1.00  0.00     0.187 HD
HETATM    4  N2  UNL     1      32.858  31.601  -1.696  1.00  0.00    -0.310 N 
ATOM      5  H2  UNL     1      31.889  31.423  -1.429  1.00  0.00     0.186 HD
HETATM    6  C7  UNL     1      33.932  30.971  -1.191  1.00  0.00     0.123 A 
HETATM    7  C8  UNL     1      35.069  31.499  -1.814  1.00  0.00     0.038 A 
ENDROOT
BRANCH   1   8
HETATM    8  C5  UNL     1      35.428  33.276  -3.570  1.00  0.00     0.027 A 
HETATM    9  C4  UNL     1      36.020  34.440  -3.153  1.00  0.00     0.026 A 
HETATM   10  C3  UNL     1      36.810  35.223  -4.018  1.00  0.00    -0.024 A 
HETATM   11  C14 UNL     1      37.016  34.843  -5.319  1.00  0.00     0.074 A 
HETATM   12  C13 UNL     1      36.414  33.659  -5.742  1.00  0.00     0.074 A 
HETATM   13  C12 UNL     1      35.641  32.898  -4.885  1.00  0.00     0.081 A 
BRANCH  10  14
HETATM   14  C2  UNL     1      37.388  36.441  -3.456  1.00  0.00     0.037 C 
HETATM   15  C1  UNL     1      36.481  37.227  -2.584  1.00  0.00     0.010 C 
ENDBRANCH  10  14
BRANCH  11  16
HETATM   16  O2  UNL     1      37.789  35.608  -6.168  1.00  0.00    -0.360 OA
ATOM     17  H2  UNL     1      37.898  36.540  -6.023  1.00  0.00     0.217 HD
ENDBRANCH  11  16
BRANCH  13  18
HETATM   18  O1  UNL     1      35.063  31.725  -5.360  1.00  0.00    -0.360 OA
ATOM     19  H1  UNL     1      35.138  30.928  -4.848  1.00  0.00     0.217 HD
ENDBRANCH  13  18
ENDBRANCH   1   8
BRANCH   7  20
HETATM   20  C9  UNL     1      36.458  31.125  -1.588  1.00  0.00     0.062 A 
HETATM   21  C10 UNL     1      36.954  29.836  -1.728  1.00  0.00     0.119 A 
HETATM   22  N3  UNL     1      38.271  29.804  -1.454  1.00  0.00    -0.360 N 
HETATM   23  C11 UNL     1      38.603  31.073  -1.141  1.00  0.00     0.180 A 
ATOM     24  H3  UNL     1      38.887  28.991  -1.477  1.00  0.00     0.166 HD
HETATM   25  N4  UNL     1      37.515  31.861  -1.224  1.00  0.00    -0.350 N 
ATOM     26  H4  UNL     1      37.499  32.864  -1.037  1.00  0.00     0.166 HD
ENDBRANCH   7  20
TORSDOF 5
ENDMDL
