MODEL 6
REMARK VINA RESULT: -6.893277711      2.705      5.106
REMARK  5 active torsions:
REMARK  status: ('A' for Active; 'I' for Inactive)
REMARK    1  A    between atoms: C2_2  and  C3_3 
REMARK    2  A    between atoms: C5_5  and  C6_6 
REMARK    3  A    between atoms: C8_12  and  C9_13 
REMARK    4  A    between atoms: C12_20  and  O1_21 
REMARK    5  A    between atoms: C14_24  and  O2_25 
ROOT
HETATM    1  C6  UNL     1      36.251  33.978  -5.090  1.00  0.00     0.075 A 
HETATM    2  N1  UNL     1      36.384  34.200  -6.424  1.00  0.00    -0.299 N 
ATOM      3  H1  UNL     1      36.967  34.921  -6.849  1.00  0.00     0.187 HD
HETATM    4  N2  UNL     1      35.636  33.333  -7.082  1.00  0.00    -0.310 N 
ATOM      5  H2  UNL     1      35.552  33.279  -8.098  1.00  0.00     0.186 HD
HETATM    6  C7  UNL     1      35.004  32.534  -6.206  1.00  0.00     0.123 A 
HETATM    7  C8  UNL     1      35.382  32.928  -4.918  1.00  0.00     0.038 A 
ENDROOT
BRANCH   1   8
HETATM    8  C5  UNL     1      36.914  34.724  -4.024  1.00  0.00     0.027 A 
HETATM    9  C4  UNL     1      36.478  35.952  -3.599  1.00  0.00     0.026 A 
HETATM   10  C3  UNL     1      37.132  36.656  -2.568  1.00  0.00    -0.024 A 
HETATM   11  C14 UNL     1      38.238  36.131  -1.950  1.00  0.00     0.074 A 
HETATM   12  C13 UNL     1      38.679  34.882  -2.382  1.00  0.00     0.074 A 
HETATM   13  C12 UNL     1      38.031  34.200  -3.395  1.00  0.00     0.081 A 
BRANCH  10  14
HETATM   14  C2  UNL     1      36.572  37.955  -2.203  1.00  0.00     0.037 C 
HETATM   15  C1  UNL     1      37.047  39.099  -3.018  1.00  0.00     0.010 C 
ENDBRANCH  10  14
BRANCH  11  16
HETATM   16  O2  UNL     1      38.880  36.818  -0.940  1.00  0.00    -0.360 OA
ATOM     17  H2  UNL     1      38.445  36.993  -0.115  1.00  0.00     0.217 HD
ENDBRANCH  11  16
BRANCH  13  18
HETATM   18  O1  UNL     1      38.515  32.956  -3.788  1.00  0.00    -0.360 OA
ATOM     19  H1  UNL     1      38.777  32.328  -3.126  1.00  0.00     0.217 HD
ENDBRANCH  13  18
ENDBRANCH   1   8
BRANCH   7  20
HETATM   20  C9  UNL     1      34.952  32.352  -3.652  1.00  0.00     0.062 A 
HETATM   21  C10 UNL     1      33.666  32.463  -3.139  1.00  0.00     0.119 A 
HETATM   22  N3  UNL     1      33.573  31.829  -1.956  1.00  0.00    -0.360 N 
HETATM   23  C11 UNL     1      34.800  31.319  -1.724  1.00  0.00     0.180 A 
ATOM     24  H3  UNL     1      32.749  31.751  -1.360  1.00  0.00     0.166 HD
HETATM   25  N4  UNL     1      35.623  31.634  -2.743  1.00  0.00    -0.350 N 
ATOM     26  H4  UNL     1      36.604  31.367  -2.811  1.00  0.00     0.166 HD
ENDBRANCH   7  20
TORSDOF 5
ENDMDL
