MODEL 3
REMARK VINA RESULT: -7.194689362      4.408      6.029
REMARK  5 active torsions:
REMARK  status: ('A' for Active; 'I' for Inactive)
REMARK    1  A    between atoms: C2_2  and  C3_3 
REMARK    2  A    between atoms: C5_5  and  C6_6 
REMARK    3  A    between atoms: C8_12  and  C9_13 
REMARK    4  A    between atoms: C12_20  and  O1_21 
REMARK    5  A    between atoms: C14_24  and  O2_25 
ROOT
HETATM    1  C6  UNL     1      41.088  34.152  -1.022  1.00  0.00     0.075 A 
HETATM    2  N1  UNL     1      42.247  33.442  -1.001  1.00  0.00    -0.299 N 
ATOM      3  H1  UNL     1      42.388  32.526  -1.425  1.00  0.00     0.187 HD
HETATM    4  N2  UNL     1      43.161  34.130  -0.341  1.00  0.00    -0.310 N 
ATOM      5  H2  UNL     1      44.122  33.827  -0.176  1.00  0.00     0.186 HD
HETATM    6  C7  UNL     1      42.629  35.290   0.080  1.00  0.00     0.123 A 
HETATM    7  C8  UNL     1      41.297  35.329  -0.345  1.00  0.00     0.038 A 
ENDROOT
BRANCH   1   8
HETATM    8  C5  UNL     1      39.838  33.738  -1.654  1.00  0.00     0.027 A 
HETATM    9  C4  UNL     1      39.027  32.768  -1.123  1.00  0.00     0.026 A 
HETATM   10  C3  UNL     1      37.824  32.383  -1.748  1.00  0.00    -0.024 A 
HETATM   11  C14 UNL     1      37.421  32.969  -2.920  1.00  0.00     0.074 A 
HETATM   12  C13 UNL     1      38.246  33.955  -3.458  1.00  0.00     0.074 A 
HETATM   13  C12 UNL     1      39.424  34.326  -2.837  1.00  0.00     0.081 A 
BRANCH  10  14
HETATM   14  C2  UNL     1      37.046  31.339  -1.085  1.00  0.00     0.037 C 
HETATM   15  C1  UNL     1      37.510  29.952  -1.330  1.00  0.00     0.010 C 
ENDBRANCH  10  14
BRANCH  11  16
HETATM   16  O2  UNL     1      36.244  32.594  -3.534  1.00  0.00    -0.360 OA
ATOM     17  H2  UNL     1      36.128  31.713  -3.870  1.00  0.00     0.217 HD
ENDBRANCH  11  16
BRANCH  13  18
HETATM   18  O1  UNL     1      40.211  35.316  -3.418  1.00  0.00    -0.360 OA
ATOM     19  H1  UNL     1      39.932  36.222  -3.367  1.00  0.00     0.217 HD
ENDBRANCH  13  18
ENDBRANCH   1   8
BRANCH   7  20
HETATM   20  C9  UNL     1      40.324  36.390  -0.123  1.00  0.00     0.062 A 
HETATM   21  C10 UNL     1      39.616  36.568   1.058  1.00  0.00     0.119 A 
HETATM   22  N3  UNL     1      38.796  37.629   0.962  1.00  0.00    -0.360 N 
HETATM   23  C11 UNL     1      38.988  38.120  -0.279  1.00  0.00     0.180 A 
ATOM     24  H3  UNL     1      38.163  37.988   1.677  1.00  0.00     0.166 HD
HETATM   25  N4  UNL     1      39.904  37.375  -0.926  1.00  0.00    -0.350 N 
ATOM     26  H4  UNL     1      40.228  37.537  -1.879  1.00  0.00     0.166 HD
ENDBRANCH   7  20
TORSDOF 5
ENDMDL
