MODEL 1
REMARK VINA RESULT: -8.484227883      0.000      0.000
REMARK  5 active torsions:
REMARK  status: ('A' for Active; 'I' for Inactive)
REMARK    1  A    between atoms: C2_2  and  C3_3 
REMARK    2  A    between atoms: C5_5  and  C6_6 
REMARK    3  A    between atoms: C8_12  and  C9_13 
REMARK    4  A    between atoms: C12_20  and  O1_21 
REMARK    5  A    between atoms: C14_24  and  O2_25 
ROOT
HETATM    1  C6  UNL     1      35.230  32.786  -4.743  1.00  0.00     0.075 A 
HETATM    2  N1  UNL     1      34.950  32.095  -5.879  1.00  0.00    -0.299 N 
ATOM      3  H1  UNL     1      34.640  31.125  -5.920  1.00  0.00     0.187 HD
HETATM    4  N2  UNL     1      35.146  32.882  -6.921  1.00  0.00    -0.310 N 
ATOM      5  H2  UNL     1      35.009  32.614  -7.897  1.00  0.00     0.186 HD
HETATM    6  C7  UNL     1      35.553  34.091  -6.498  1.00  0.00     0.123 A 
HETATM    7  C8  UNL     1      35.615  34.055  -5.100  1.00  0.00     0.038 A 
ENDROOT
BRANCH   1   8
HETATM    8  C5  UNL     1      35.138  32.272  -3.379  1.00  0.00     0.027 A 
HETATM    9  C4  UNL     1      36.223  31.786  -2.696  1.00  0.00     0.026 A 
HETATM   10  C3  UNL     1      36.114  31.294  -1.380  1.00  0.00    -0.024 A 
HETATM   11  C14 UNL     1      34.905  31.283  -0.732  1.00  0.00     0.074 A 
HETATM   12  C13 UNL     1      33.803  31.777  -1.427  1.00  0.00     0.074 A 
HETATM   13  C12 UNL     1      33.921  32.258  -2.718  1.00  0.00     0.081 A 
BRANCH  10  14
HETATM   14  C2  UNL     1      37.342  30.805  -0.759  1.00  0.00     0.037 C 
HETATM   15  C1  UNL     1      37.969  29.641  -1.429  1.00  0.00     0.010 C 
ENDBRANCH  10  14
BRANCH  11  16
HETATM   16  O2  UNL     1      34.795  30.802   0.556  1.00  0.00    -0.360 OA
ATOM     17  H2  UNL     1      34.405  31.329   1.243  1.00  0.00     0.217 HD
ENDBRANCH  11  16
BRANCH  13  18
HETATM   18  O1  UNL     1      32.787  32.738  -3.365  1.00  0.00    -0.360 OA
ATOM     19  H1  UNL     1      32.406  32.233  -4.074  1.00  0.00     0.217 HD
ENDBRANCH  13  18
ENDBRANCH   1   8
BRANCH   7  20
HETATM   20  C9  UNL     1      36.006  35.132  -4.201  1.00  0.00     0.062 A 
HETATM   21  C10 UNL     1      37.315  35.405  -3.830  1.00  0.00     0.119 A 
HETATM   22  N3  UNL     1      37.360  36.457  -2.993  1.00  0.00    -0.360 N 
HETATM   23  C11 UNL     1      36.078  36.847  -2.838  1.00  0.00     0.180 A 
ATOM     24  H3  UNL     1      38.188  36.873  -2.565  1.00  0.00     0.166 HD
HETATM   25  N4  UNL     1      35.270  36.051  -3.564  1.00  0.00    -0.350 N 
ATOM     26  H4  UNL     1      34.256  36.135  -3.619  1.00  0.00     0.166 HD
ENDBRANCH   7  20
TORSDOF 5
ENDMDL
