MODEL 1
REMARK VINA RESULT: -6.193128155      0.000      0.000
REMARK  3 active torsions:
REMARK  status: ('A' for Active; 'I' for Inactive)
REMARK       I    between atoms: C2_2  and  N1_4 
REMARK    1  A    between atoms: N1_4  and  C3_6 
REMARK    2  A    between atoms: C4_11  and  S1_12 
REMARK    3  A    between atoms: S1_12  and  N4_13 
ROOT
HETATM    1  C3  UNL     1      -4.519   4.660  15.294  1.00  0.00     0.168 A 
HETATM    2  N2  UNL     1      -3.767   3.564  15.308  1.00  0.00    -0.278 N 
ATOM      3  H2  UNL     1      -2.867   3.553  14.829  1.00  0.00     0.189 HD
HETATM    4  N3  UNL     1      -4.173   2.537  15.917  1.00  0.00    -0.281 N 
ATOM      5  H3  UNL     1      -3.600   1.693  15.931  1.00  0.00     0.188 HD
HETATM    6  C4  UNL     1      -5.346   2.554  16.540  1.00  0.00     0.208 A 
HETATM    7  S2  UNL     1      -5.868   4.150  16.212  1.00  0.00    -0.020 SA
ENDROOT
BRANCH   6   8
HETATM    8  S1  UNL     1      -6.114   1.242  17.452  1.00  0.00     0.280 S 
HETATM    9  O2  UNL     1      -7.281   0.721  16.694  1.00  0.00    -0.199 OA
HETATM   10  O3  UNL     1      -5.068   0.177  17.611  1.00  0.00    -0.199 OA
BRANCH   8  11
HETATM   11  N4  UNL     1      -6.553   1.842  19.002  1.00  0.00    -0.323 N 
ATOM     12  H42 UNL     1      -7.201   2.612  19.169  1.00  0.00     0.169 HD
ATOM     13  H41 UNL     1      -6.058   1.301  19.710  1.00  0.00     0.169 HD
ENDBRANCH   8  11
ENDBRANCH   6   8
BRANCH   1  14
HETATM   14  N1  UNL     1      -4.250   5.928  14.666  1.00  0.00    -0.306 N 
HETATM   15  C2  UNL     1      -4.472   6.067  13.278  1.00  0.00     0.219 C 
HETATM   16  C1  UNL     1      -4.220   7.337  12.554  1.00  0.00     0.117 C 
HETATM   17  O1  UNL     1      -4.900   5.067  12.646  1.00  0.00    -0.274 OA
ATOM     18  H1  UNL     1      -3.904   6.715  15.216  1.00  0.00     0.171 HD
ENDBRANCH   1  14
TORSDOF 3
ENDMDL
