MODEL 3
REMARK VINA RESULT: -6.131312555      3.163      6.267
REMARK  3 active torsions:
REMARK  status: ('A' for Active; 'I' for Inactive)
REMARK       I    between atoms: C2_2  and  N1_4 
REMARK    1  A    between atoms: N1_4  and  C3_6 
REMARK    2  A    between atoms: C4_11  and  S1_12 
REMARK    3  A    between atoms: S1_12  and  N4_13 
ROOT
HETATM    1  C3  UNL     1      -4.864   2.339  14.525  1.00  0.00     0.168 A 
HETATM    2  N2  UNL     1      -4.371   1.465  13.651  1.00  0.00    -0.278 N 
ATOM      3  H2  UNL     1      -4.516   0.465  13.789  1.00  0.00     0.189 HD
HETATM    4  N3  UNL     1      -3.725   1.880  12.651  1.00  0.00    -0.281 N 
ATOM      5  H3  UNL     1      -3.346   1.215  11.978  1.00  0.00     0.188 HD
HETATM    6  C4  UNL     1      -3.538   3.184  12.474  1.00  0.00     0.208 A 
HETATM    7  S2  UNL     1      -4.350   3.819  13.839  1.00  0.00    -0.020 SA
ENDROOT
BRANCH   6   8
HETATM    8  S1  UNL     1      -2.671   3.990  11.156  1.00  0.00     0.280 S 
HETATM    9  O2  UNL     1      -1.220   3.683  11.249  1.00  0.00    -0.199 OA
HETATM   10  O3  UNL     1      -3.247   3.444   9.881  1.00  0.00    -0.199 OA
BRANCH   8  11
HETATM   11  N4  UNL     1      -2.992   5.677  11.246  1.00  0.00    -0.323 N 
ATOM     12  H42 UNL     1      -3.429   6.148  12.038  1.00  0.00     0.169 HD
ATOM     13  H41 UNL     1      -2.673   6.113  10.381  1.00  0.00     0.169 HD
ENDBRANCH   8  11
ENDBRANCH   6   8
BRANCH   1  14
HETATM   14  N1  UNL     1      -5.623   2.084  15.721  1.00  0.00    -0.306 N 
HETATM   15  C2  UNL     1      -5.108   1.185  16.682  1.00  0.00     0.219 C 
HETATM   16  C1  UNL     1      -5.826   0.867  17.940  1.00  0.00     0.117 C 
HETATM   17  O1  UNL     1      -3.997   0.643  16.446  1.00  0.00    -0.274 OA
ATOM     18  H1  UNL     1      -6.520   2.546  15.873  1.00  0.00     0.171 HD
ENDBRANCH   1  14
TORSDOF 3
ENDMDL
