MODEL 4
REMARK VINA RESULT: -6.107800535      2.857      5.904
REMARK  3 active torsions:
REMARK  status: ('A' for Active; 'I' for Inactive)
REMARK       I    between atoms: C2_2  and  N1_4 
REMARK    1  A    between atoms: N1_4  and  C3_6 
REMARK    2  A    between atoms: C4_11  and  S1_12 
REMARK    3  A    between atoms: S1_12  and  N4_13 
ROOT
HETATM    1  C3  UNL     1      -4.799   2.579  15.343  1.00  0.00     0.168 A 
HETATM    2  N2  UNL     1      -4.521   1.517  14.592  1.00  0.00    -0.278 N 
ATOM      3  H2  UNL     1      -4.537   0.582  15.000  1.00  0.00     0.189 HD
HETATM    4  N3  UNL     1      -4.236   1.672  13.374  1.00  0.00    -0.281 N 
ATOM      5  H3  UNL     1      -4.022   0.861  12.793  1.00  0.00     0.188 HD
HETATM    6  C4  UNL     1      -4.215   2.891  12.846  1.00  0.00     0.208 A 
HETATM    7  S2  UNL     1      -4.633   3.844  14.203  1.00  0.00    -0.020 SA
ENDROOT
BRANCH   6   8
HETATM    8  S1  UNL     1      -3.846   3.347  11.173  1.00  0.00     0.280 S 
HETATM    9  O2  UNL     1      -4.000   2.164  10.286  1.00  0.00    -0.199 OA
HETATM   10  O3  UNL     1      -4.832   4.417  10.804  1.00  0.00    -0.199 OA
BRANCH   8  11
HETATM   11  N4  UNL     1      -2.256   3.999  11.125  1.00  0.00    -0.323 N 
ATOM     12  H42 UNL     1      -1.701   4.249  11.944  1.00  0.00     0.169 HD
ATOM     13  H41 UNL     1      -1.973   4.090  10.150  1.00  0.00     0.169 HD
ENDBRANCH   8  11
ENDBRANCH   6   8
BRANCH   1  14
HETATM   14  N1  UNL     1      -5.146   2.628  16.740  1.00  0.00    -0.306 N 
HETATM   15  C2  UNL     1      -6.076   1.693  17.248  1.00  0.00     0.219 C 
HETATM   16  C1  UNL     1      -6.487   1.674  18.673  1.00  0.00     0.117 C 
HETATM   17  O1  UNL     1      -6.563   0.851  16.449  1.00  0.00    -0.274 OA
ATOM     18  H1  UNL     1      -4.727   3.327  17.353  1.00  0.00     0.171 HD
ENDBRANCH   1  14
TORSDOF 3
ENDMDL
