MODEL 7
REMARK VINA RESULT: -6.002152480      2.081      2.147
REMARK  3 active torsions:
REMARK  status: ('A' for Active; 'I' for Inactive)
REMARK       I    between atoms: C2_2  and  N1_4 
REMARK    1  A    between atoms: N1_4  and  C3_6 
REMARK    2  A    between atoms: C4_11  and  S1_12 
REMARK    3  A    between atoms: S1_12  and  N4_13 
ROOT
HETATM    1  C3  UNL     1      -5.026   5.036  14.031  1.00  0.00     0.168 A 
HETATM    2  N2  UNL     1      -5.337   5.003  15.324  1.00  0.00    -0.278 N 
ATOM      3  H2  UNL     1      -5.587   5.863  15.813  1.00  0.00     0.189 HD
HETATM    4  N3  UNL     1      -5.321   3.905  15.942  1.00  0.00    -0.281 N 
ATOM      5  H3  UNL     1      -5.559   3.874  16.933  1.00  0.00     0.188 HD
HETATM    6  C4  UNL     1      -4.994   2.787  15.302  1.00  0.00     0.208 A 
HETATM    7  S2  UNL     1      -4.701   3.384  13.727  1.00  0.00    -0.020 SA
ENDROOT
BRANCH   6   8
HETATM    8  S1  UNL     1      -4.906   1.143  15.959  1.00  0.00     0.280 S 
HETATM    9  O2  UNL     1      -5.003   0.156  14.853  1.00  0.00    -0.199 OA
HETATM   10  O3  UNL     1      -3.574   1.038  16.646  1.00  0.00    -0.199 OA
BRANCH   8  11
HETATM   11  N4  UNL     1      -6.159   0.953  17.120  1.00  0.00    -0.323 N 
ATOM     12  H42 UNL     1      -7.028   1.486  17.136  1.00  0.00     0.169 HD
ATOM     13  H41 UNL     1      -5.882   0.225  17.778  1.00  0.00     0.169 HD
ENDBRANCH   8  11
ENDBRANCH   6   8
BRANCH   1  14
HETATM   14  N1  UNL     1      -4.982   6.169  13.144  1.00  0.00    -0.306 N 
HETATM   15  C2  UNL     1      -6.182   6.849  12.839  1.00  0.00     0.219 C 
HETATM   16  C1  UNL     1      -6.225   8.024  11.936  1.00  0.00     0.117 C 
HETATM   17  O1  UNL     1      -7.247   6.428  13.362  1.00  0.00    -0.274 OA
ATOM     18  H1  UNL     1      -4.096   6.478  12.742  1.00  0.00     0.171 HD
ENDBRANCH   1  14
TORSDOF 3
ENDMDL
