MODEL 10
REMARK VINA RESULT: -5.877137727      1.522      1.522
REMARK  3 active torsions:
REMARK  status: ('A' for Active; 'I' for Inactive)
REMARK       I    between atoms: C2_2  and  N1_4 
REMARK    1  A    between atoms: N1_4  and  C3_6 
REMARK    2  A    between atoms: C4_11  and  S1_12 
REMARK    3  A    between atoms: S1_12  and  N4_13 
ROOT
HETATM    1  C3  UNL     1      -5.240   4.832  14.955  1.00  0.00     0.168 A 
HETATM    2  N2  UNL     1      -5.995   5.014  16.035  1.00  0.00    -0.278 N 
ATOM      3  H2  UNL     1      -6.342   5.945  16.267  1.00  0.00     0.189 HD
HETATM    4  N3  UNL     1      -6.279   4.031  16.771  1.00  0.00    -0.281 N 
ATOM      5  H3  UNL     1      -6.858   4.165  17.600  1.00  0.00     0.188 HD
HETATM    6  C4  UNL     1      -5.826   2.820  16.467  1.00  0.00     0.208 A 
HETATM    7  S2  UNL     1      -4.946   3.149  15.037  1.00  0.00    -0.020 SA
ENDROOT
BRANCH   6   8
HETATM    8  S1  UNL     1      -6.095   1.304  17.345  1.00  0.00     0.280 S 
HETATM    9  O2  UNL     1      -7.182   0.532  16.689  1.00  0.00    -0.199 OA
HETATM   10  O3  UNL     1      -4.798   0.549  17.282  1.00  0.00    -0.199 OA
BRANCH   8  11
HETATM   11  N4  UNL     1      -6.454   1.681  18.983  1.00  0.00    -0.323 N 
ATOM     12  H42 UNL     1      -6.221   2.560  19.446  1.00  0.00     0.169 HD
ATOM     13  H41 UNL     1      -6.931   0.883  19.401  1.00  0.00     0.169 HD
ENDBRANCH   8  11
ENDBRANCH   6   8
BRANCH   1  14
HETATM   14  N1  UNL     1      -4.801   5.805  13.989  1.00  0.00    -0.306 N 
HETATM   15  C2  UNL     1      -5.768   6.500  13.228  1.00  0.00     0.219 C 
HETATM   16  C1  UNL     1      -5.401   7.517  12.213  1.00  0.00     0.117 C 
HETATM   17  O1  UNL     1      -6.981   6.234  13.431  1.00  0.00    -0.274 OA
ATOM     18  H1  UNL     1      -3.807   5.991  13.857  1.00  0.00     0.171 HD
ENDBRANCH   1  14
TORSDOF 3
ENDMDL
