MODEL 15
REMARK VINA RESULT: -5.792894725      1.779      1.855
REMARK  3 active torsions:
REMARK  status: ('A' for Active; 'I' for Inactive)
REMARK       I    between atoms: C2_2  and  N1_4 
REMARK    1  A    between atoms: N1_4  and  C3_6 
REMARK    2  A    between atoms: C4_11  and  S1_12 
REMARK    3  A    between atoms: S1_12  and  N4_13 
ROOT
HETATM    1  C3  UNL     1      -5.379   5.052  14.263  1.00  0.00     0.168 A 
HETATM    2  N2  UNL     1      -4.187   4.486  14.091  1.00  0.00    -0.278 N 
ATOM      3  H2  UNL     1      -3.449   4.986  13.595  1.00  0.00     0.189 HD
HETATM    4  N3  UNL     1      -3.975   3.329  14.543  1.00  0.00    -0.281 N 
ATOM      5  H3  UNL     1      -3.064   2.891  14.414  1.00  0.00     0.188 HD
HETATM    6  C4  UNL     1      -4.939   2.680  15.188  1.00  0.00     0.208 A 
HETATM    7  S2  UNL     1      -6.206   3.827  15.123  1.00  0.00    -0.020 SA
ENDROOT
BRANCH   6   8
HETATM    8  S1  UNL     1      -4.871   1.061  15.904  1.00  0.00     0.280 S 
HETATM    9  O2  UNL     1      -4.946   0.035  14.831  1.00  0.00    -0.199 OA
HETATM   10  O3  UNL     1      -3.556   0.977  16.625  1.00  0.00    -0.199 OA
BRANCH   8  11
HETATM   11  N4  UNL     1      -6.151   0.914  17.042  1.00  0.00    -0.323 N 
ATOM     12  H42 UNL     1      -6.147   1.312  17.982  1.00  0.00     0.169 HD
ATOM     13  H41 UNL     1      -6.901   0.370  16.617  1.00  0.00     0.169 HD
ENDBRANCH   8  11
ENDBRANCH   6   8
BRANCH   1  14
HETATM   14  N1  UNL     1      -5.829   6.351  13.833  1.00  0.00    -0.306 N 
HETATM   15  C2  UNL     1      -5.713   6.699  12.469  1.00  0.00     0.219 C 
HETATM   16  C1  UNL     1      -6.152   8.014  11.943  1.00  0.00     0.117 C 
HETATM   17  O1  UNL     1      -5.217   5.851  11.683  1.00  0.00    -0.274 OA
ATOM     18  H1  UNL     1      -6.226   7.009  14.504  1.00  0.00     0.171 HD
ENDBRANCH   1  14
TORSDOF 3
ENDMDL
