MODEL 6
REMARK VINA RESULT: -6.003591195      3.057      6.212
REMARK  3 active torsions:
REMARK  status: ('A' for Active; 'I' for Inactive)
REMARK       I    between atoms: C2_2  and  N1_4 
REMARK    1  A    between atoms: N1_4  and  C3_6 
REMARK    2  A    between atoms: C4_11  and  S1_12 
REMARK    3  A    between atoms: S1_12  and  N4_13 
ROOT
HETATM    1  C3  UNL     1      -4.663   2.768  14.842  1.00  0.00     0.168 A 
HETATM    2  N2  UNL     1      -3.622   3.572  15.043  1.00  0.00    -0.278 N 
ATOM      3  H2  UNL     1      -3.373   3.862  15.988  1.00  0.00     0.189 HD
HETATM    4  N3  UNL     1      -2.945   3.973  14.058  1.00  0.00    -0.281 N 
ATOM      5  H3  UNL     1      -2.145   4.589  14.206  1.00  0.00     0.188 HD
HETATM    6  C4  UNL     1      -3.272   3.594  12.827  1.00  0.00     0.208 A 
HETATM    7  S2  UNL     1      -4.632   2.605  13.139  1.00  0.00    -0.020 SA
ENDROOT
BRANCH   6   8
HETATM    8  S1  UNL     1      -2.473   4.027  11.306  1.00  0.00     0.280 S 
HETATM    9  O2  UNL     1      -1.049   3.605  11.350  1.00  0.00    -0.199 OA
HETATM   10  O3  UNL     1      -3.209   3.293  10.223  1.00  0.00    -0.199 OA
BRANCH   8  11
HETATM   11  N4  UNL     1      -2.647   5.720  11.063  1.00  0.00    -0.323 N 
ATOM     12  H42 UNL     1      -2.765   6.409  11.806  1.00  0.00     0.169 HD
ATOM     13  H41 UNL     1      -2.613   5.908  10.061  1.00  0.00     0.169 HD
ENDBRANCH   8  11
ENDBRANCH   6   8
BRANCH   1  14
HETATM   14  N1  UNL     1      -5.561   2.199  15.813  1.00  0.00    -0.306 N 
HETATM   15  C2  UNL     1      -5.089   1.180  16.669  1.00  0.00     0.219 C 
HETATM   16  C1  UNL     1      -5.947   0.541  17.696  1.00  0.00     0.117 C 
HETATM   17  O1  UNL     1      -3.892   0.811  16.544  1.00  0.00    -0.274 OA
ATOM     18  H1  UNL     1      -6.525   2.527  15.881  1.00  0.00     0.171 HD
ENDBRANCH   1  14
TORSDOF 3
ENDMDL
