MODEL 1
REMARK VINA RESULT: -6.188462862      0.000      0.000
REMARK  3 active torsions:
REMARK  status: ('A' for Active; 'I' for Inactive)
REMARK       I    between atoms: C2_2  and  N1_4 
REMARK    1  A    between atoms: N1_4  and  C3_6 
REMARK    2  A    between atoms: C4_11  and  S1_12 
REMARK    3  A    between atoms: S1_12  and  N4_13 
ROOT
HETATM    1  C3  UNL     1      -4.749   2.348  14.445  1.00  0.00     0.168 A 
HETATM    2  N2  UNL     1      -4.144   1.435  13.690  1.00  0.00    -0.278 N 
ATOM      3  H2  UNL     1      -4.214   0.446  13.927  1.00  0.00     0.189 HD
HETATM    4  N3  UNL     1      -3.484   1.800  12.680  1.00  0.00    -0.281 N 
ATOM      5  H3  UNL     1      -3.019   1.104  12.097  1.00  0.00     0.188 HD
HETATM    6  C4  UNL     1      -3.394   3.090  12.374  1.00  0.00     0.208 A 
HETATM    7  S2  UNL     1      -4.323   3.789  13.629  1.00  0.00    -0.020 SA
ENDROOT
BRANCH   6   8
HETATM    8  S1  UNL     1      -2.530   3.829  11.015  1.00  0.00     0.280 S 
HETATM    9  O2  UNL     1      -1.081   3.509  11.109  1.00  0.00    -0.199 OA
HETATM   10  O3  UNL     1      -3.122   3.235   9.770  1.00  0.00    -0.199 OA
BRANCH   8  11
HETATM   11  N4  UNL     1      -2.831   5.521  11.035  1.00  0.00    -0.323 N 
ATOM     12  H42 UNL     1      -3.489   5.991  11.656  1.00  0.00     0.169 HD
ATOM     13  H41 UNL     1      -2.244   5.962  10.327  1.00  0.00     0.169 HD
ENDBRANCH   8  11
ENDBRANCH   6   8
BRANCH   1  14
HETATM   14  N1  UNL     1      -5.545   2.153  15.629  1.00  0.00    -0.306 N 
HETATM   15  C2  UNL     1      -5.031   1.356  16.677  1.00  0.00     0.219 C 
HETATM   16  C1  UNL     1      -5.785   1.104  17.929  1.00  0.00     0.117 C 
HETATM   17  O1  UNL     1      -3.889   0.848  16.527  1.00  0.00    -0.274 OA
ATOM     18  H1  UNL     1      -6.466   2.583  15.711  1.00  0.00     0.171 HD
ENDBRANCH   1  14
TORSDOF 3
ENDMDL
