MODEL 11
REMARK VINA RESULT: -5.855250426      2.580      6.058
REMARK  3 active torsions:
REMARK  status: ('A' for Active; 'I' for Inactive)
REMARK       I    between atoms: C2_2  and  N1_4 
REMARK    1  A    between atoms: N1_4  and  C3_6 
REMARK    2  A    between atoms: C4_11  and  S1_12 
REMARK    3  A    between atoms: S1_12  and  N4_13 
ROOT
HETATM    1  C3  UNL     1      -4.259   3.884  14.498  1.00  0.00     0.168 A 
HETATM    2  N2  UNL     1      -3.413   3.154  15.219  1.00  0.00    -0.278 N 
ATOM      3  H2  UNL     1      -2.408   3.312  15.145  1.00  0.00     0.189 HD
HETATM    4  N3  UNL     1      -3.859   2.266  15.994  1.00  0.00    -0.281 N 
ATOM      5  H3  UNL     1      -3.215   1.704  16.550  1.00  0.00     0.188 HD
HETATM    6  C4  UNL     1      -5.169   2.063  16.088  1.00  0.00     0.208 A 
HETATM    7  S2  UNL     1      -5.762   3.230  14.988  1.00  0.00    -0.020 SA
ENDROOT
BRANCH   6   8
HETATM    8  S1  UNL     1      -6.017   0.882  17.102  1.00  0.00     0.280 S 
HETATM    9  O2  UNL     1      -5.722  -0.493  16.623  1.00  0.00    -0.199 OA
HETATM   10  O3  UNL     1      -5.498   1.079  18.497  1.00  0.00    -0.199 OA
BRANCH   8  11
HETATM   11  N4  UNL     1      -7.698   1.242  17.066  1.00  0.00    -0.323 N 
ATOM     12  H42 UNL     1      -8.401   0.705  16.559  1.00  0.00     0.169 HD
ATOM     13  H41 UNL     1      -7.862   2.074  17.632  1.00  0.00     0.169 HD
ENDBRANCH   8  11
ENDBRANCH   6   8
BRANCH   1  14
HETATM   14  N1  UNL     1      -3.967   4.938  13.561  1.00  0.00    -0.306 N 
HETATM   15  C2  UNL     1      -2.872   4.789  12.680  1.00  0.00     0.219 C 
HETATM   16  C1  UNL     1      -2.503   5.825  11.686  1.00  0.00     0.117 C 
HETATM   17  O1  UNL     1      -2.196   3.730  12.755  1.00  0.00    -0.274 OA
ATOM     18  H1  UNL     1      -4.542   5.781  13.534  1.00  0.00     0.171 HD
ENDBRANCH   1  14
TORSDOF 3
ENDMDL
