MODEL 2
REMARK VINA RESULT: -6.171969169      1.081      1.081
REMARK  3 active torsions:
REMARK  status: ('A' for Active; 'I' for Inactive)
REMARK       I    between atoms: C2_2  and  N1_4 
REMARK    1  A    between atoms: N1_4  and  C3_6 
REMARK    2  A    between atoms: C4_11  and  S1_12 
REMARK    3  A    between atoms: S1_12  and  N4_13 
ROOT
HETATM    1  C3  UNL     1      -4.622   2.808  14.817  1.00  0.00     0.168 A 
HETATM    2  N2  UNL     1      -3.491   3.497  14.940  1.00  0.00    -0.278 N 
ATOM      3  H2  UNL     1      -3.149   3.760  15.864  1.00  0.00     0.189 HD
HETATM    4  N3  UNL     1      -2.844   3.823  13.908  1.00  0.00    -0.281 N 
ATOM      5  H3  UNL     1      -1.976   4.351  13.997  1.00  0.00     0.188 HD
HETATM    6  C4  UNL     1      -3.293   3.479  12.705  1.00  0.00     0.208 A 
HETATM    7  S2  UNL     1      -4.726   2.641  13.118  1.00  0.00    -0.020 SA
ENDROOT
BRANCH   6   8
HETATM    8  S1  UNL     1      -2.559   3.824  11.130  1.00  0.00     0.280 S 
HETATM    9  O2  UNL     1      -1.114   3.479  11.164  1.00  0.00    -0.199 OA
HETATM   10  O3  UNL     1      -3.284   2.966  10.134  1.00  0.00    -0.199 OA
BRANCH   8  11
HETATM   11  N4  UNL     1      -2.829   5.480  10.754  1.00  0.00    -0.323 N 
ATOM     12  H42 UNL     1      -3.634   6.026  11.062  1.00  0.00     0.169 HD
ATOM     13  H41 UNL     1      -2.055   5.811  10.179  1.00  0.00     0.169 HD
ENDBRANCH   8  11
ENDBRANCH   6   8
BRANCH   1  14
HETATM   14  N1  UNL     1      -5.507   2.339  15.852  1.00  0.00    -0.306 N 
HETATM   15  C2  UNL     1      -5.061   1.324  16.727  1.00  0.00     0.219 C 
HETATM   16  C1  UNL     1      -5.907   0.784  17.818  1.00  0.00     0.117 C 
HETATM   17  O1  UNL     1      -3.898   0.871  16.561  1.00  0.00    -0.274 OA
ATOM     18  H1  UNL     1      -6.442   2.733  15.951  1.00  0.00     0.171 HD
ENDBRANCH   1  14
TORSDOF 3
ENDMDL
