MODEL 12
REMARK VINA RESULT: -5.849996012      2.721      6.069
REMARK  3 active torsions:
REMARK  status: ('A' for Active; 'I' for Inactive)
REMARK       I    between atoms: C2_2  and  N1_4 
REMARK    1  A    between atoms: N1_4  and  C3_6 
REMARK    2  A    between atoms: C4_11  and  S1_12 
REMARK    3  A    between atoms: S1_12  and  N4_13 
ROOT
HETATM    1  C3  UNL     1      -4.567   4.145  14.497  1.00  0.00     0.168 A 
HETATM    2  N2  UNL     1      -3.637   3.301  14.933  1.00  0.00    -0.278 N 
ATOM      3  H2  UNL     1      -2.659   3.440  14.679  1.00  0.00     0.189 HD
HETATM    4  N3  UNL     1      -3.971   2.328  15.662  1.00  0.00    -0.281 N 
ATOM      5  H3  UNL     1      -3.261   1.677  16.000  1.00  0.00     0.188 HD
HETATM    6  C4  UNL     1      -5.246   2.150  15.990  1.00  0.00     0.208 A 
HETATM    7  S2  UNL     1      -5.978   3.472  15.191  1.00  0.00    -0.020 SA
ENDROOT
BRANCH   6   8
HETATM    8  S1  UNL     1      -5.942   0.866  16.994  1.00  0.00     0.280 S 
HETATM    9  O2  UNL     1      -5.572  -0.462  16.437  1.00  0.00    -0.199 OA
HETATM   10  O3  UNL     1      -5.359   1.045  18.366  1.00  0.00    -0.199 OA
BRANCH   8  11
HETATM   11  N4  UNL     1      -7.644   1.095  17.067  1.00  0.00    -0.323 N 
ATOM     12  H42 UNL     1      -8.341   0.396  16.810  1.00  0.00     0.169 HD
ATOM     13  H41 UNL     1      -7.829   2.038  17.408  1.00  0.00     0.169 HD
ENDBRANCH   8  11
ENDBRANCH   6   8
BRANCH   1  14
HETATM   14  N1  UNL     1      -4.407   5.309  13.663  1.00  0.00    -0.306 N 
HETATM   15  C2  UNL     1      -4.369   5.148  12.260  1.00  0.00     0.219 C 
HETATM   16  C1  UNL     1      -4.207   6.292  11.331  1.00  0.00     0.117 C 
HETATM   17  O1  UNL     1      -4.478   3.982  11.797  1.00  0.00    -0.274 OA
ATOM     18  H1  UNL     1      -4.322   6.236  14.080  1.00  0.00     0.171 HD
ENDBRANCH   1  14
TORSDOF 3
ENDMDL
