MODEL 4
REMARK VINA RESULT: -6.111057879      3.119      5.778
REMARK  3 active torsions:
REMARK  status: ('A' for Active; 'I' for Inactive)
REMARK       I    between atoms: C2_2  and  N1_4 
REMARK    1  A    between atoms: N1_4  and  C3_6 
REMARK    2  A    between atoms: C4_11  and  S1_12 
REMARK    3  A    between atoms: S1_12  and  N4_13 
ROOT
HETATM    1  C3  UNL     1      -5.132   5.093  14.267  1.00  0.00     0.168 A 
HETATM    2  N2  UNL     1      -3.895   4.615  14.376  1.00  0.00    -0.278 N 
ATOM      3  H2  UNL     1      -3.098   5.188  14.100  1.00  0.00     0.189 HD
HETATM    4  N3  UNL     1      -3.714   3.450  14.823  1.00  0.00    -0.281 N 
ATOM      5  H3  UNL     1      -2.768   3.079  14.909  1.00  0.00     0.188 HD
HETATM    6  C4  UNL     1      -4.755   2.706  15.181  1.00  0.00     0.208 A 
HETATM    7  S2  UNL     1      -6.050   3.771  14.846  1.00  0.00    -0.020 SA
ENDROOT
BRANCH   6   8
HETATM    8  S1  UNL     1      -4.742   1.056  15.830  1.00  0.00     0.280 S 
HETATM    9  O2  UNL     1      -4.733   0.079  14.711  1.00  0.00    -0.199 OA
HETATM   10  O3  UNL     1      -3.487   0.937  16.646  1.00  0.00    -0.199 OA
BRANCH   8  11
HETATM   11  N4  UNL     1      -6.107   0.865  16.857  1.00  0.00    -0.323 N 
ATOM     12  H42 UNL     1      -7.066   1.106  16.606  1.00  0.00     0.169 HD
ATOM     13  H41 UNL     1      -5.791   0.475  17.744  1.00  0.00     0.169 HD
ENDBRANCH   8  11
ENDBRANCH   6   8
BRANCH   1  14
HETATM   14  N1  UNL     1      -5.560   6.382  13.788  1.00  0.00    -0.306 N 
HETATM   15  C2  UNL     1      -5.519   6.645  12.401  1.00  0.00     0.219 C 
HETATM   16  C1  UNL     1      -5.942   7.944  11.825  1.00  0.00     0.117 C 
HETATM   17  O1  UNL     1      -5.108   5.732  11.638  1.00  0.00    -0.274 OA
ATOM     18  H1  UNL     1      -5.887   7.094  14.441  1.00  0.00     0.171 HD
ENDBRANCH   1  14
TORSDOF 3
ENDMDL
