MODEL 5
REMARK VINA RESULT: -6.105896492      1.452      1.524
REMARK  3 active torsions:
REMARK  status: ('A' for Active; 'I' for Inactive)
REMARK       I    between atoms: C2_2  and  N1_4 
REMARK    1  A    between atoms: N1_4  and  C3_6 
REMARK    2  A    between atoms: C4_11  and  S1_12 
REMARK    3  A    between atoms: S1_12  and  N4_13 
ROOT
HETATM    1  C3  UNL     1      -4.779   2.303  14.986  1.00  0.00     0.168 A 
HETATM    2  N2  UNL     1      -4.190   1.352  14.267  1.00  0.00    -0.278 N 
ATOM      3  H2  UNL     1      -3.966   0.453  14.691  1.00  0.00     0.189 HD
HETATM    4  N3  UNL     1      -3.911   1.569  13.056  1.00  0.00    -0.281 N 
ATOM      5  H3  UNL     1      -3.460   0.843  12.500  1.00  0.00     0.188 HD
HETATM    6  C4  UNL     1      -4.205   2.742  12.506  1.00  0.00     0.208 A 
HETATM    7  S2  UNL     1      -4.921   3.555  13.830  1.00  0.00    -0.020 SA
ENDROOT
BRANCH   6   8
HETATM    8  S1  UNL     1      -3.910   3.267  10.839  1.00  0.00     0.280 S 
HETATM    9  O2  UNL     1      -4.140   2.132   9.908  1.00  0.00    -0.199 OA
HETATM   10  O3  UNL     1      -4.885   4.377  10.572  1.00  0.00    -0.199 OA
BRANCH   8  11
HETATM   11  N4  UNL     1      -2.308   3.883  10.738  1.00  0.00    -0.323 N 
ATOM     12  H42 UNL     1      -1.909   4.581  11.366  1.00  0.00     0.169 HD
ATOM     13  H41 UNL     1      -1.838   3.433   9.953  1.00  0.00     0.169 HD
ENDBRANCH   8  11
ENDBRANCH   6   8
BRANCH   1  14
HETATM   14  N1  UNL     1      -5.180   2.267  16.369  1.00  0.00    -0.306 N 
HETATM   15  C2  UNL     1      -5.558   1.031  16.941  1.00  0.00     0.219 C 
HETATM   16  C1  UNL     1      -5.984   0.906  18.356  1.00  0.00     0.117 C 
HETATM   17  O1  UNL     1      -5.526   0.008  16.209  1.00  0.00    -0.274 OA
ATOM     18  H1  UNL     1      -5.192   3.120  16.927  1.00  0.00     0.171 HD
ENDBRANCH   1  14
TORSDOF 3
ENDMDL
