MODEL 2
REMARK VINA RESULT: -6.406718816      0.932      1.113
REMARK  3 active torsions:
REMARK  status: ('A' for Active; 'I' for Inactive)
REMARK       I    between atoms: C2_2  and  N1_4 
REMARK    1  A    between atoms: N1_4  and  C3_6 
REMARK    2  A    between atoms: C4_11  and  S1_12 
REMARK    3  A    between atoms: S1_12  and  N4_13 
ROOT
HETATM    1  C3  UNL     1      -4.890   2.642  14.765  1.00  0.00     0.168 A 
HETATM    2  N2  UNL     1      -4.479   1.407  15.040  1.00  0.00    -0.278 N 
ATOM      3  H2  UNL     1      -4.441   1.083  16.006  1.00  0.00     0.189 HD
HETATM    4  N3  UNL     1      -4.137   0.640  14.100  1.00  0.00    -0.281 N 
ATOM      5  H3  UNL     1      -3.822  -0.308  14.305  1.00  0.00     0.188 HD
HETATM    6  C4  UNL     1      -4.188   1.066  12.842  1.00  0.00     0.208 A 
HETATM    7  S2  UNL     1      -4.764   2.661  13.060  1.00  0.00    -0.020 SA
ENDROOT
BRANCH   6   8
HETATM    8  S1  UNL     1      -3.762   0.172  11.373  1.00  0.00     0.280 S 
HETATM    9  O2  UNL     1      -4.012  -1.278  11.577  1.00  0.00    -0.199 OA
HETATM   10  O3  UNL     1      -4.643   0.713  10.284  1.00  0.00    -0.199 OA
BRANCH   8  11
HETATM   11  N4  UNL     1      -2.119   0.507  10.990  1.00  0.00    -0.323 N 
ATOM     12  H42 UNL     1      -1.527   1.172  11.487  1.00  0.00     0.169 HD
ATOM     13  H41 UNL     1      -1.849  -0.069  10.193  1.00  0.00     0.169 HD
ENDBRANCH   8  11
ENDBRANCH   6   8
BRANCH   1  14
HETATM   14  N1  UNL     1      -5.321   3.671  15.676  1.00  0.00    -0.306 N 
HETATM   15  C2  UNL     1      -6.227   3.337  16.708  1.00  0.00     0.219 C 
HETATM   16  C1  UNL     1      -6.720   4.335  17.688  1.00  0.00     0.117 C 
HETATM   17  O1  UNL     1      -6.619   2.143  16.786  1.00  0.00    -0.274 OA
ATOM     18  H1  UNL     1      -4.978   4.626  15.578  1.00  0.00     0.171 HD
ENDBRANCH   1  14
TORSDOF 3
ENDMDL
