MODEL 1
REMARK VINA RESULT: -6.521205874      0.000      0.000
REMARK  3 active torsions:
REMARK  status: ('A' for Active; 'I' for Inactive)
REMARK       I    between atoms: C2_2  and  N1_4 
REMARK    1  A    between atoms: N1_4  and  C3_6 
REMARK    2  A    between atoms: C4_11  and  S1_12 
REMARK    3  A    between atoms: S1_12  and  N4_13 
ROOT
HETATM    1  C3  UNL     1      -4.828   2.590  14.543  1.00  0.00     0.168 A 
HETATM    2  N2  UNL     1      -4.424   1.345  14.779  1.00  0.00    -0.278 N 
ATOM      3  H2  UNL     1      -4.402   0.986  15.733  1.00  0.00     0.189 HD
HETATM    4  N3  UNL     1      -4.069   0.612  13.817  1.00  0.00    -0.281 N 
ATOM      5  H3  UNL     1      -3.758  -0.344  13.993  1.00  0.00     0.188 HD
HETATM    6  C4  UNL     1      -4.098   1.083  12.575  1.00  0.00     0.208 A 
HETATM    7  S2  UNL     1      -4.675   2.671  12.841  1.00  0.00    -0.020 SA
ENDROOT
BRANCH   6   8
HETATM    8  S1  UNL     1      -3.650   0.243  11.081  1.00  0.00     0.280 S 
HETATM    9  O2  UNL     1      -4.766   0.329  10.103  1.00  0.00    -0.199 OA
HETATM   10  O3  UNL     1      -2.431   0.946  10.556  1.00  0.00    -0.199 OA
BRANCH   8  11
HETATM   11  N4  UNL     1      -3.243  -1.381  11.471  1.00  0.00    -0.323 N 
ATOM     12  H42 UNL     1      -2.669  -1.666  12.264  1.00  0.00     0.169 HD
ATOM     13  H41 UNL     1      -3.671  -1.996  10.779  1.00  0.00     0.169 HD
ENDBRANCH   8  11
ENDBRANCH   6   8
BRANCH   1  14
HETATM   14  N1  UNL     1      -5.272   3.586  15.484  1.00  0.00    -0.306 N 
HETATM   15  C2  UNL     1      -6.186   3.215  16.495  1.00  0.00     0.219 C 
HETATM   16  C1  UNL     1      -6.693   4.177  17.503  1.00  0.00     0.117 C 
HETATM   17  O1  UNL     1      -6.575   2.018  16.529  1.00  0.00    -0.274 OA
ATOM     18  H1  UNL     1      -4.932   4.545  15.421  1.00  0.00     0.171 HD
ENDBRANCH   1  14
TORSDOF 3
ENDMDL
