MODEL 16
REMARK VINA RESULT: -5.651896305      3.783      5.440
REMARK  3 active torsions:
REMARK  status: ('A' for Active; 'I' for Inactive)
REMARK       I    between atoms: C2_2  and  N1_4 
REMARK    1  A    between atoms: N1_4  and  C3_6 
REMARK    2  A    between atoms: C4_11  and  S1_12 
REMARK    3  A    between atoms: S1_12  and  N4_13 
ROOT
HETATM    1  C3  UNL     1      -5.091   3.658  13.453  1.00  0.00     0.168 A 
HETATM    2  N2  UNL     1      -6.098   4.092  14.206  1.00  0.00    -0.278 N 
ATOM      3  H2  UNL     1      -6.612   4.932  13.940  1.00  0.00     0.189 HD
HETATM    4  N3  UNL     1      -6.414   3.460  15.249  1.00  0.00    -0.281 N 
ATOM      5  H3  UNL     1      -7.186   3.788  15.830  1.00  0.00     0.188 HD
HETATM    6  C4  UNL     1      -5.743   2.366  15.593  1.00  0.00     0.208 A 
HETATM    7  S2  UNL     1      -4.601   2.269  14.323  1.00  0.00    -0.020 SA
ENDROOT
BRANCH   6   8
HETATM    8  S1  UNL     1      -6.007   1.325  17.003  1.00  0.00     0.280 S 
HETATM    9  O2  UNL     1      -7.165   0.428  16.753  1.00  0.00    -0.199 OA
HETATM   10  O3  UNL     1      -4.747   0.526  17.174  1.00  0.00    -0.199 OA
BRANCH   8  11
HETATM   11  N4  UNL     1      -6.236   2.324  18.382  1.00  0.00    -0.323 N 
ATOM     12  H42 UNL     1      -5.681   3.150  18.605  1.00  0.00     0.169 HD
ATOM     13  H41 UNL     1      -7.013   1.950  18.927  1.00  0.00     0.169 HD
ENDBRANCH   8  11
ENDBRANCH   6   8
BRANCH   1  14
HETATM   14  N1  UNL     1      -4.570   4.222  12.235  1.00  0.00    -0.306 N 
HETATM   15  C2  UNL     1      -4.713   5.609  12.005  1.00  0.00     0.219 C 
HETATM   16  C1  UNL     1      -4.205   6.269  10.778  1.00  0.00     0.117 C 
HETATM   17  O1  UNL     1      -5.294   6.296  12.885  1.00  0.00    -0.274 OA
ATOM     18  H1  UNL     1      -4.105   3.629  11.548  1.00  0.00     0.171 HD
ENDBRANCH   1  14
TORSDOF 3
ENDMDL
