MODEL 3
REMARK VINA RESULT: -6.155625946      1.917      2.277
REMARK  3 active torsions:
REMARK  status: ('A' for Active; 'I' for Inactive)
REMARK       I    between atoms: C2_2  and  N1_4 
REMARK    1  A    between atoms: N1_4  and  C3_6 
REMARK    2  A    between atoms: C4_11  and  S1_12 
REMARK    3  A    between atoms: S1_12  and  N4_13 
ROOT
HETATM    1  C3  UNL     1      -4.969   2.534  14.998  1.00  0.00     0.168 A 
HETATM    2  N2  UNL     1      -4.163   1.548  14.615  1.00  0.00    -0.278 N 
ATOM      3  H2  UNL     1      -3.842   0.856  15.292  1.00  0.00     0.189 HD
HETATM    4  N3  UNL     1      -3.798   1.473  13.410  1.00  0.00    -0.281 N 
ATOM      5  H3  UNL     1      -3.181   0.718  13.111  1.00  0.00     0.188 HD
HETATM    6  C4  UNL     1      -4.218   2.376  12.531  1.00  0.00     0.208 A 
HETATM    7  S2  UNL     1      -5.190   3.373  13.524  1.00  0.00    -0.020 SA
ENDROOT
BRANCH   6   8
HETATM    8  S1  UNL     1      -3.840   2.469  10.802  1.00  0.00     0.280 S 
HETATM    9  O2  UNL     1      -2.378   2.297  10.599  1.00  0.00    -0.199 OA
HETATM   10  O3  UNL     1      -4.599   1.352  10.147  1.00  0.00    -0.199 OA
BRANCH   8  11
HETATM   11  N4  UNL     1      -4.413   3.974  10.200  1.00  0.00    -0.323 N 
ATOM     12  H42 UNL     1      -5.378   4.168   9.934  1.00  0.00     0.169 HD
ATOM     13  H41 UNL     1      -3.629   4.625  10.159  1.00  0.00     0.169 HD
ENDBRANCH   8  11
ENDBRANCH   6   8
BRANCH   1  14
HETATM   14  N1  UNL     1      -5.501   2.805  16.308  1.00  0.00    -0.306 N 
HETATM   15  C2  UNL     1      -6.130   1.760  17.022  1.00  0.00     0.219 C 
HETATM   16  C1  UNL     1      -6.704   1.953  18.375  1.00  0.00     0.117 C 
HETATM   17  O1  UNL     1      -6.198   0.628  16.474  1.00  0.00    -0.274 OA
ATOM     18  H1  UNL     1      -5.424   3.736  16.716  1.00  0.00     0.171 HD
ENDBRANCH   1  14
TORSDOF 3
ENDMDL
