MODEL 13
REMARK VINA RESULT: -5.707924718      3.821      5.204
REMARK  3 active torsions:
REMARK  status: ('A' for Active; 'I' for Inactive)
REMARK       I    between atoms: C2_2  and  N1_4 
REMARK    1  A    between atoms: N1_4  and  C3_6 
REMARK    2  A    between atoms: C4_11  and  S1_12 
REMARK    3  A    between atoms: S1_12  and  N4_13 
ROOT
HETATM    1  C3  UNL     1      -5.667   4.574  14.129  1.00  0.00     0.168 A 
HETATM    2  N2  UNL     1      -6.175   4.759  15.345  1.00  0.00    -0.278 N 
ATOM      3  H2  UNL     1      -6.521   5.677  15.622  1.00  0.00     0.189 HD
HETATM    4  N3  UNL     1      -6.227   3.792  16.152  1.00  0.00    -0.281 N 
ATOM      5  H3  UNL     1      -6.617   3.927  17.085  1.00  0.00     0.188 HD
HETATM    6  C4  UNL     1      -5.776   2.596  15.788  1.00  0.00     0.208 A 
HETATM    7  S2  UNL     1      -5.255   2.915  14.190  1.00  0.00    -0.020 SA
ENDROOT
BRANCH   6   8
HETATM    8  S1  UNL     1      -5.748   1.105  16.745  1.00  0.00     0.280 S 
HETATM    9  O2  UNL     1      -5.556   1.436  18.181  1.00  0.00    -0.199 OA
HETATM   10  O3  UNL     1      -7.078   0.444  16.528  1.00  0.00    -0.199 OA
BRANCH   8  11
HETATM   11  N4  UNL     1      -4.503   0.090  16.134  1.00  0.00    -0.323 N 
ATOM     12  H42 UNL     1      -3.570   0.404  15.866  1.00  0.00     0.169 HD
ATOM     13  H41 UNL     1      -4.858  -0.865  16.088  1.00  0.00     0.169 HD
ENDBRANCH   8  11
ENDBRANCH   6   8
BRANCH   1  14
HETATM   14  N1  UNL     1      -5.514   5.531  13.063  1.00  0.00    -0.306 N 
HETATM   15  C2  UNL     1      -6.545   6.469  12.831  1.00  0.00     0.219 C 
HETATM   16  C1  UNL     1      -6.467   7.486  11.755  1.00  0.00     0.117 C 
HETATM   17  O1  UNL     1      -7.560   6.426  13.574  1.00  0.00    -0.274 OA
ATOM     18  H1  UNL     1      -4.674   5.531  12.485  1.00  0.00     0.171 HD
ENDBRANCH   1  14
TORSDOF 3
ENDMDL
