MODEL 1
REMARK VINA RESULT: -6.392867494      0.000      0.000
REMARK  16 active torsions:
REMARK  status: ('A' for Active; 'I' for Inactive)
REMARK    1  A    between atoms: C2_2  and  C3_3 
REMARK    2  A    between atoms: C3_3  and  C4_4 
REMARK    3  A    between atoms: C4_4  and  C5_5 
REMARK    4  A    between atoms: C5_5  and  C6_6 
REMARK    5  A    between atoms: C6_6  and  S1_7 
REMARK    6  A    between atoms: S1_7  and  C7_8 
REMARK    7  A    between atoms: C7_8  and  C8_9 
REMARK    8  A    between atoms: C8_9  and  N1_10 
REMARK    9  A    between atoms: C8_9  and  C14_24 
REMARK       I    between atoms: N1_10  and  C9_12 
REMARK   10  A    between atoms: C9_12  and  C10_14 
REMARK   11  A    between atoms: C10_14  and  C11_15 
REMARK   12  A    between atoms: C11_15  and  C12_16 
REMARK   13  A    between atoms: C12_16  and  N2_17 
REMARK   14  A    between atoms: C12_16  and  C13_21 
REMARK       I    between atoms: C14_24  and  N3_26 
REMARK   15  A    between atoms: N3_26  and  C15_28 
REMARK   16  A    between atoms: C15_28  and  C16_29 
ROOT
HETATM    1  C8  UNL     1      27.516  22.054  12.859  1.00  0.00     0.185 C 
ENDROOT
BRANCH   1   2
HETATM    2  C7  UNL     1      27.344  23.522  12.616  1.00  0.00     0.108 C 
BRANCH   2   3
HETATM    3  S1  UNL     1      27.357  24.352  14.231  1.00  0.00    -0.167 SA
BRANCH   3   4
HETATM    4  C6  UNL     1      27.933  26.056  14.074  1.00  0.00     0.074 C 
BRANCH   4   5
HETATM    5  C5  UNL     1      28.153  26.296  12.575  1.00  0.00     0.010 C 
BRANCH   5   6
HETATM    6  C4  UNL     1      26.897  26.990  12.089  1.00  0.00     0.001 C 
BRANCH   6   7
HETATM    7  C3  UNL     1      27.083  27.345  10.638  1.00  0.00    -0.000 C 
BRANCH   7   8
HETATM    8  C2  UNL     1      26.637  28.780  10.422  1.00  0.00    -0.005 C 
HETATM    9  C1  UNL     1      25.201  28.872  10.936  1.00  0.00     0.005 C 
ENDBRANCH   7   8
ENDBRANCH   6   7
ENDBRANCH   5   6
ENDBRANCH   4   5
ENDBRANCH   3   4
ENDBRANCH   2   3
ENDBRANCH   1   2
BRANCH   1  10
HETATM   10  N1  UNL     1      27.910  21.470  11.586  1.00  0.00    -0.347 N 
HETATM   11  C9  UNL     1      28.457  20.175  11.436  1.00  0.00     0.218 C 
HETATM   12  O1  UNL     1      28.615  19.476  12.467  1.00  0.00    -0.274 OA
ATOM     13  H1  UNL     1      27.784  22.032  10.745  1.00  0.00     0.163 HD
BRANCH  11  14
HETATM   14  C10 UNL     1      28.837  19.653  10.078  1.00  0.00     0.105 C 
BRANCH  14  15
HETATM   15  C11 UNL     1      30.333  19.485  10.059  1.00  0.00     0.053 C 
BRANCH  15  16
HETATM   16  C12 UNL     1      30.657  17.995  10.013  1.00  0.00     0.283 C 
BRANCH  16  17
HETATM   17  N2  UNL     1      30.877  17.483  11.350  1.00  0.00    -0.065 N 
ATOM     18  H23 UNL     1      30.011  17.158  11.779  1.00  0.00     0.275 HD
ATOM     19  H22 UNL     1      31.383  16.598  11.340  1.00  0.00     0.275 HD
ATOM     20  H21 UNL     1      31.347  18.182  11.926  1.00  0.00     0.275 HD
ENDBRANCH  16  17
BRANCH  16  21
HETATM   21  C13 UNL     1      31.825  17.782   9.142  1.00  0.00     0.204 C 
HETATM   22  O2  UNL     1      32.923  17.365   9.563  1.00  0.00    -0.646 OA
HETATM   23  O3  UNL     1      31.690  18.062   7.776  1.00  0.00    -0.646 OA
ENDBRANCH  16  21
ENDBRANCH  15  16
ENDBRANCH  14  15
ENDBRANCH  11  14
ENDBRANCH   1  10
BRANCH   1  24
HETATM   24  C14 UNL     1      26.343  21.363  13.359  1.00  0.00     0.241 C 
HETATM   25  O4  UNL     1      25.243  21.529  12.772  1.00  0.00    -0.271 OA
HETATM   26  N3  UNL     1      26.317  20.492  14.480  1.00  0.00    -0.349 N 
ATOM     27  H3  UNL     1      27.178  20.315  14.998  1.00  0.00     0.163 HD
BRANCH  26  28
HETATM   28  C15 UNL     1      25.086  19.850  14.899  1.00  0.00     0.235 C 
BRANCH  28  29
HETATM   29  C16 UNL     1      25.134  18.381  14.639  1.00  0.00     0.191 C 
HETATM   30  O5  UNL     1      26.124  17.876  14.066  1.00  0.00    -0.647 OA
HETATM   31  O6  UNL     1      24.100  17.557  15.021  1.00  0.00    -0.647 OA
ENDBRANCH  28  29
ENDBRANCH  26  28
ENDBRANCH   1  24
TORSDOF 16
ENDMDL
