MODEL 17
REMARK VINA RESULT: -5.827310293      7.233     10.525
REMARK  16 active torsions:
REMARK  status: ('A' for Active; 'I' for Inactive)
REMARK    1  A    between atoms: C2_2  and  C3_3 
REMARK    2  A    between atoms: C3_3  and  C4_4 
REMARK    3  A    between atoms: C4_4  and  C5_5 
REMARK    4  A    between atoms: C5_5  and  C6_6 
REMARK    5  A    between atoms: C6_6  and  S1_7 
REMARK    6  A    between atoms: S1_7  and  C7_8 
REMARK    7  A    between atoms: C7_8  and  C8_9 
REMARK    8  A    between atoms: C8_9  and  N1_10 
REMARK    9  A    between atoms: C8_9  and  C14_24 
REMARK       I    between atoms: N1_10  and  C9_12 
REMARK   10  A    between atoms: C9_12  and  C10_14 
REMARK   11  A    between atoms: C10_14  and  C11_15 
REMARK   12  A    between atoms: C11_15  and  C12_16 
REMARK   13  A    between atoms: C12_16  and  N2_17 
REMARK   14  A    between atoms: C12_16  and  C13_21 
REMARK       I    between atoms: C14_24  and  N3_26 
REMARK   15  A    between atoms: N3_26  and  C15_28 
REMARK   16  A    between atoms: C15_28  and  C16_29 
ROOT
HETATM    1  C8  UNL     1      31.434  28.476  14.705  1.00  0.00     0.185 C 
ENDROOT
BRANCH   1   2
HETATM    2  C7  UNL     1      32.667  28.395  13.858  1.00  0.00     0.108 C 
BRANCH   2   3
HETATM    3  S1  UNL     1      33.777  27.173  14.615  1.00  0.00    -0.167 SA
BRANCH   3   4
HETATM    4  C6  UNL     1      35.352  27.931  15.069  1.00  0.00     0.074 C 
BRANCH   4   5
HETATM    5  C5  UNL     1      36.441  26.933  14.657  1.00  0.00     0.010 C 
BRANCH   5   6
HETATM    6  C4  UNL     1      35.799  25.566  14.769  1.00  0.00     0.001 C 
BRANCH   6   7
HETATM    7  C3  UNL     1      36.791  24.624  15.398  1.00  0.00    -0.000 C 
BRANCH   7   8
HETATM    8  C2  UNL     1      36.037  23.492  16.071  1.00  0.00    -0.005 C 
HETATM    9  C1  UNL     1      34.550  23.803  15.910  1.00  0.00     0.005 C 
ENDBRANCH   7   8
ENDBRANCH   6   7
ENDBRANCH   5   6
ENDBRANCH   4   5
ENDBRANCH   3   4
ENDBRANCH   2   3
ENDBRANCH   1   2
BRANCH   1  10
HETATM   10  N1  UNL     1      30.403  27.726  14.005  1.00  0.00    -0.347 N 
HETATM   11  C9  UNL     1      29.256  27.177  14.621  1.00  0.00     0.218 C 
HETATM   12  O1  UNL     1      29.111  27.345  15.858  1.00  0.00    -0.274 OA
ATOM     13  H1  UNL     1      30.516  27.586  13.001  1.00  0.00     0.163 HD
BRANCH  11  14
HETATM   14  C10 UNL     1      28.241  26.413  13.818  1.00  0.00     0.105 C 
BRANCH  14  15
HETATM   15  C11 UNL     1      28.093  27.111  12.493  1.00  0.00     0.053 C 
BRANCH  15  16
HETATM   16  C12 UNL     1      26.715  26.788  11.921  1.00  0.00     0.283 C 
BRANCH  16  17
HETATM   17  N2  UNL     1      26.716  25.475  11.311  1.00  0.00    -0.065 N 
ATOM     18  H23 UNL     1      27.431  24.870  11.713  1.00  0.00     0.275 HD
ATOM     19  H22 UNL     1      25.893  24.933  11.575  1.00  0.00     0.275 HD
ATOM     20  H21 UNL     1      26.809  25.554  10.298  1.00  0.00     0.275 HD
ENDBRANCH  16  17
BRANCH  16  21
HETATM   21  C13 UNL     1      26.330  27.841  10.966  1.00  0.00     0.204 C 
HETATM   22  O2  UNL     1      27.035  28.168   9.991  1.00  0.00    -0.646 OA
HETATM   23  O3  UNL     1      25.111  28.503  11.167  1.00  0.00    -0.646 OA
ENDBRANCH  16  21
ENDBRANCH  15  16
ENDBRANCH  14  15
ENDBRANCH  11  14
ENDBRANCH   1  10
BRANCH   1  24
HETATM   24  C14 UNL     1      30.951  29.816  14.975  1.00  0.00     0.241 C 
HETATM   25  O4  UNL     1      30.820  30.620  14.016  1.00  0.00    -0.271 OA
HETATM   26  N3  UNL     1      30.601  30.322  16.255  1.00  0.00    -0.349 N 
ATOM     27  H3  UNL     1      30.685  29.720  17.073  1.00  0.00     0.163 HD
BRANCH  26  28
HETATM   28  C15 UNL     1      30.127  31.684  16.415  1.00  0.00     0.235 C 
BRANCH  28  29
HETATM   29  C16 UNL     1      29.069  31.761  17.464  1.00  0.00     0.191 C 
HETATM   30  O5  UNL     1      28.759  32.864  17.966  1.00  0.00    -0.647 OA
HETATM   31  O6  UNL     1      28.416  30.631  17.900  1.00  0.00    -0.647 OA
ENDBRANCH  28  29
ENDBRANCH  26  28
ENDBRANCH   1  24
TORSDOF 16
ENDMDL
