MODEL 3
REMARK VINA RESULT: -6.304796491      3.523      8.123
REMARK  16 active torsions:
REMARK  status: ('A' for Active; 'I' for Inactive)
REMARK    1  A    between atoms: C2_2  and  C3_3 
REMARK    2  A    between atoms: C3_3  and  C4_4 
REMARK    3  A    between atoms: C4_4  and  C5_5 
REMARK    4  A    between atoms: C5_5  and  C6_6 
REMARK    5  A    between atoms: C6_6  and  S1_7 
REMARK    6  A    between atoms: S1_7  and  C7_8 
REMARK    7  A    between atoms: C7_8  and  C8_9 
REMARK    8  A    between atoms: C8_9  and  N1_10 
REMARK    9  A    between atoms: C8_9  and  C14_24 
REMARK       I    between atoms: N1_10  and  C9_12 
REMARK   10  A    between atoms: C9_12  and  C10_14 
REMARK   11  A    between atoms: C10_14  and  C11_15 
REMARK   12  A    between atoms: C11_15  and  C12_16 
REMARK   13  A    between atoms: C12_16  and  N2_17 
REMARK   14  A    between atoms: C12_16  and  C13_21 
REMARK       I    between atoms: C14_24  and  N3_26 
REMARK   15  A    between atoms: N3_26  and  C15_28 
REMARK   16  A    between atoms: C15_28  and  C16_29 
ROOT
HETATM    1  C8  UNL     1      27.174  22.582  13.897  1.00  0.00     0.185 C 
ENDROOT
BRANCH   1   2
HETATM    2  C7  UNL     1      26.615  21.738  12.793  1.00  0.00     0.108 C 
BRANCH   2   3
HETATM    3  S1  UNL     1      27.971  21.363  11.646  1.00  0.00    -0.167 SA
BRANCH   3   4
HETATM    4  C6  UNL     1      28.500  19.645  11.815  1.00  0.00     0.074 C 
BRANCH   4   5
HETATM    5  C5  UNL     1      28.954  19.198  10.420  1.00  0.00     0.010 C 
BRANCH   5   6
HETATM    6  C4  UNL     1      29.952  18.084  10.658  1.00  0.00     0.001 C 
BRANCH   6   7
HETATM    7  C3  UNL     1      31.331  18.684  10.704  1.00  0.00    -0.000 C 
BRANCH   7   8
HETATM    8  C2  UNL     1      32.307  17.635  11.208  1.00  0.00    -0.005 C 
HETATM    9  C1  UNL     1      33.678  18.307  11.263  1.00  0.00     0.005 C 
ENDBRANCH   7   8
ENDBRANCH   6   7
ENDBRANCH   5   6
ENDBRANCH   4   5
ENDBRANCH   3   4
ENDBRANCH   2   3
ENDBRANCH   1   2
BRANCH   1  10
HETATM   10  N1  UNL     1      26.299  22.394  15.044  1.00  0.00    -0.347 N 
HETATM   11  C9  UNL     1      26.523  21.453  16.074  1.00  0.00     0.218 C 
HETATM   12  O1  UNL     1      27.547  20.728  16.001  1.00  0.00    -0.274 OA
ATOM     13  H1  UNL     1      25.467  22.980  15.108  1.00  0.00     0.163 HD
BRANCH  11  14
HETATM   14  C10 UNL     1      25.562  21.326  17.223  1.00  0.00     0.105 C 
BRANCH  14  15
HETATM   15  C11 UNL     1      24.984  19.938  17.179  1.00  0.00     0.053 C 
BRANCH  15  16
HETATM   16  C12 UNL     1      24.183  19.782  15.889  1.00  0.00     0.283 C 
BRANCH  16  17
HETATM   17  N2  UNL     1      22.813  20.204  16.091  1.00  0.00    -0.065 N 
ATOM     18  H23 UNL     1      22.415  19.810  16.944  1.00  0.00     0.275 HD
ATOM     19  H22 UNL     1      22.752  21.192  16.338  1.00  0.00     0.275 HD
ATOM     20  H21 UNL     1      22.248  19.983  15.270  1.00  0.00     0.275 HD
ENDBRANCH  16  17
BRANCH  16  21
HETATM   21  C13 UNL     1      24.269  18.384  15.434  1.00  0.00     0.204 C 
HETATM   22  O2  UNL     1      23.844  17.422  16.105  1.00  0.00    -0.646 OA
HETATM   23  O3  UNL     1      24.854  18.129  14.187  1.00  0.00    -0.646 OA
ENDBRANCH  16  21
ENDBRANCH  15  16
ENDBRANCH  14  15
ENDBRANCH  11  14
ENDBRANCH   1  10
BRANCH   1  24
HETATM   24  C14 UNL     1      27.280  23.999  13.604  1.00  0.00     0.241 C 
HETATM   25  O4  UNL     1      28.183  24.671  14.166  1.00  0.00    -0.271 OA
HETATM   26  N3  UNL     1      26.438  24.720  12.717  1.00  0.00    -0.349 N 
ATOM     27  H3  UNL     1      25.687  24.232  12.230  1.00  0.00     0.163 HD
BRANCH  26  28
HETATM   28  C15 UNL     1      26.630  26.141  12.494  1.00  0.00     0.235 C 
BRANCH  28  29
HETATM   29  C16 UNL     1      27.099  26.405  11.103  1.00  0.00     0.191 C 
HETATM   30  O5  UNL     1      27.616  25.487  10.428  1.00  0.00    -0.647 OA
HETATM   31  O6  UNL     1      26.975  27.652  10.535  1.00  0.00    -0.647 OA
ENDBRANCH  28  29
ENDBRANCH  26  28
ENDBRANCH   1  24
TORSDOF 16
ENDMDL
