MODEL 2
REMARK VINA RESULT: -6.306531487      3.268      6.753
REMARK  16 active torsions:
REMARK  status: ('A' for Active; 'I' for Inactive)
REMARK    1  A    between atoms: C2_2  and  C3_3 
REMARK    2  A    between atoms: C3_3  and  C4_4 
REMARK    3  A    between atoms: C4_4  and  C5_5 
REMARK    4  A    between atoms: C5_5  and  C6_6 
REMARK    5  A    between atoms: C6_6  and  S1_7 
REMARK    6  A    between atoms: S1_7  and  C7_8 
REMARK    7  A    between atoms: C7_8  and  C8_9 
REMARK    8  A    between atoms: C8_9  and  N1_10 
REMARK    9  A    between atoms: C8_9  and  C14_24 
REMARK       I    between atoms: N1_10  and  C9_12 
REMARK   10  A    between atoms: C9_12  and  C10_14 
REMARK   11  A    between atoms: C10_14  and  C11_15 
REMARK   12  A    between atoms: C11_15  and  C12_16 
REMARK   13  A    between atoms: C12_16  and  N2_17 
REMARK   14  A    between atoms: C12_16  and  C13_21 
REMARK       I    between atoms: C14_24  and  N3_26 
REMARK   15  A    between atoms: N3_26  and  C15_28 
REMARK   16  A    between atoms: C15_28  and  C16_29 
ROOT
HETATM    1  C8  UNL     1      26.500  19.872  14.917  1.00  0.00     0.185 C 
ENDROOT
BRANCH   1   2
HETATM    2  C7  UNL     1      25.077  19.438  15.088  1.00  0.00     0.108 C 
BRANCH   2   3
HETATM    3  S1  UNL     1      24.522  20.002  16.723  1.00  0.00    -0.167 SA
BRANCH   3   4
HETATM    4  C6  UNL     1      25.871  19.923  17.921  1.00  0.00     0.074 C 
BRANCH   4   5
HETATM    5  C5  UNL     1      25.850  21.256  18.677  1.00  0.00     0.010 C 
BRANCH   5   6
HETATM    6  C4  UNL     1      24.732  22.061  18.047  1.00  0.00     0.001 C 
BRANCH   6   7
HETATM    7  C3  UNL     1      24.720  23.429  18.673  1.00  0.00    -0.000 C 
BRANCH   7   8
HETATM    8  C2  UNL     1      25.936  24.201  18.193  1.00  0.00    -0.005 C 
HETATM    9  C1  UNL     1      25.459  25.620  17.891  1.00  0.00     0.005 C 
ENDBRANCH   7   8
ENDBRANCH   6   7
ENDBRANCH   5   6
ENDBRANCH   4   5
ENDBRANCH   3   4
ENDBRANCH   2   3
ENDBRANCH   1   2
BRANCH   1  10
HETATM   10  N1  UNL     1      26.464  21.291  14.602  1.00  0.00    -0.347 N 
HETATM   11  C9  UNL     1      27.298  22.264  15.198  1.00  0.00     0.218 C 
HETATM   12  O1  UNL     1      28.130  21.883  16.059  1.00  0.00    -0.274 OA
ATOM     13  H1  UNL     1      25.790  21.606  13.904  1.00  0.00     0.163 HD
BRANCH  11  14
HETATM   14  C10 UNL     1      27.189  23.713  14.812  1.00  0.00     0.105 C 
BRANCH  14  15
HETATM   15  C11 UNL     1      26.569  23.772  13.443  1.00  0.00     0.053 C 
BRANCH  15  16
HETATM   16  C12 UNL     1      27.108  25.000  12.714  1.00  0.00     0.283 C 
BRANCH  16  17
HETATM   17  N2  UNL     1      26.247  26.142  12.941  1.00  0.00    -0.065 N 
ATOM     18  H23 UNL     1      25.485  25.921  13.583  1.00  0.00     0.275 HD
ATOM     19  H22 UNL     1      26.709  26.862  13.496  1.00  0.00     0.275 HD
ATOM     20  H21 UNL     1      25.902  26.509  12.054  1.00  0.00     0.275 HD
ENDBRANCH  16  17
BRANCH  16  21
HETATM   21  C13 UNL     1      27.247  24.689  11.282  1.00  0.00     0.204 C 
HETATM   22  O2  UNL     1      27.677  25.508  10.445  1.00  0.00    -0.646 OA
HETATM   23  O3  UNL     1      26.880  23.410  10.845  1.00  0.00    -0.646 OA
ENDBRANCH  16  21
ENDBRANCH  15  16
ENDBRANCH  14  15
ENDBRANCH  11  14
ENDBRANCH   1  10
BRANCH   1  24
HETATM   24  C14 UNL     1      27.244  19.173  13.886  1.00  0.00     0.241 C 
HETATM   25  O4  UNL     1      27.083  17.932  13.755  1.00  0.00    -0.271 OA
HETATM   26  N3  UNL     1      28.162  19.773  12.984  1.00  0.00    -0.349 N 
ATOM     27  H3  UNL     1      28.336  20.776  13.039  1.00  0.00     0.163 HD
BRANCH  26  28
HETATM   28  C15 UNL     1      28.856  18.980  11.987  1.00  0.00     0.235 C 
BRANCH  28  29
HETATM   29  C16 UNL     1      28.942  19.711  10.688  1.00  0.00     0.191 C 
HETATM   30  O5  UNL     1      29.765  20.640  10.543  1.00  0.00    -0.647 OA
HETATM   31  O6  UNL     1      28.124  19.381   9.632  1.00  0.00    -0.647 OA
ENDBRANCH  28  29
ENDBRANCH  26  28
ENDBRANCH   1  24
TORSDOF 16
ENDMDL
