MODEL 9
REMARK VINA RESULT: -7.765000604      2.263      3.281
REMARK  2 active torsions:
REMARK  status: ('A' for Active; 'I' for Inactive)
REMARK    1  A    between atoms: N2_9  and  S1_10 
REMARK    2  A    between atoms: S1_10  and  C6_13 
ROOT
HETATM    1  S1  UNL     1       8.630   9.771   3.904  1.00  0.00     0.262 S 
HETATM    2  O1  UNL     1       8.665  10.915   4.840  1.00  0.00    -0.200 OA
HETATM    3  O2  UNL     1       8.477   8.544   4.786  1.00  0.00    -0.200 OA
ENDROOT
BRANCH   1   4
HETATM    4  N2  UNL     1      10.083   9.516   3.048  1.00  0.00    -0.299 N 
HETATM    5  C2  UNL     1      11.257   9.985   3.663  1.00  0.00     0.117 C 
HETATM    6  C1  UNL     1      11.533   9.418   5.032  1.00  0.00     0.034 C 
HETATM    7  C3  UNL     1      12.447   9.729   2.795  1.00  0.00     0.257 C 
HETATM    8  N1  UNL     1      12.513   8.419   2.238  1.00  0.00    -0.072 N 
HETATM    9  C4  UNL     1      11.310   8.232   1.419  1.00  0.00     0.253 C 
ATOM     10  H12 UNL     1      13.377   8.249   1.723  1.00  0.00     0.277 HD
ATOM     11  H11 UNL     1      12.633   7.692   2.943  1.00  0.00     0.277 HD
HETATM   12  C5  UNL     1      10.147   8.239   2.419  1.00  0.00     0.163 C 
ENDBRANCH   1   4
BRANCH   1  13
HETATM   13  C6  UNL     1       7.228   9.780   2.857  1.00  0.00     0.090 A 
HETATM   14  C7  UNL     1       7.308   9.720   1.480  1.00  0.00     0.026 A 
HETATM   15  C8  UNL     1       6.214   9.725   0.640  1.00  0.00     0.002 A 
HETATM   16  C9  UNL     1       4.959   9.794   1.190  1.00  0.00     0.014 A 
HETATM   17  C10 UNL     1       4.819   9.857   2.562  1.00  0.00    -0.009 A 
HETATM   18  C11 UNL     1       3.548   9.926   3.105  1.00  0.00     0.100 A 
HETATM   19  C14 UNL     1       5.935   9.849   3.377  1.00  0.00     0.000 A 
HETATM   20  N3  UNL     1       3.387   9.988   4.443  1.00  0.00    -0.374 N 
HETATM   21  C12 UNL     1       4.460   9.981   5.241  1.00  0.00     0.088 A 
ATOM     22  H3  UNL     1       2.451  10.040   4.844  1.00  0.00     0.164 HD
HETATM   23  C13 UNL     1       5.741   9.912   4.719  1.00  0.00     0.031 A 
ENDBRANCH   1  13
TORSDOF 2
ENDMDL
