MODEL 19
REMARK VINA RESULT: -7.078512715      2.083      5.734
REMARK  2 active torsions:
REMARK  status: ('A' for Active; 'I' for Inactive)
REMARK    1  A    between atoms: N2_9  and  S1_10 
REMARK    2  A    between atoms: S1_10  and  C6_13 
ROOT
HETATM    1  S1  UNL     1      10.216   8.104   2.163  1.00  0.00     0.262 S 
HETATM    2  O1  UNL     1       9.667   8.332   0.810  1.00  0.00    -0.200 OA
HETATM    3  O2  UNL     1       9.825   6.678   2.512  1.00  0.00    -0.200 OA
ENDROOT
BRANCH   1   4
HETATM    4  N2  UNL     1       9.507   9.062   3.384  1.00  0.00    -0.299 N 
HETATM    5  C2  UNL     1       8.284   9.674   3.060  1.00  0.00     0.117 C 
HETATM    6  C1  UNL     1       7.184   8.729   2.650  1.00  0.00     0.034 C 
HETATM    7  C3  UNL     1       7.793  10.509   4.199  1.00  0.00     0.257 C 
HETATM    8  N1  UNL     1       7.859   9.879   5.476  1.00  0.00    -0.072 N 
HETATM    9  C4  UNL     1       9.268   9.555   5.730  1.00  0.00     0.253 C 
ATOM     10  H12 UNL     1       7.438  10.438   6.218  1.00  0.00     0.277 HD
ATOM     11  H11 UNL     1       7.243   9.070   5.554  1.00  0.00     0.277 HD
HETATM   12  C5  UNL     1       9.622   8.491   4.683  1.00  0.00     0.163 C 
ENDBRANCH   1   4
BRANCH   1  13
HETATM   13  C6  UNL     1      11.965   8.141   2.213  1.00  0.00     0.090 A 
HETATM   14  C7  UNL     1      12.721   7.285   2.987  1.00  0.00     0.026 A 
HETATM   15  C8  UNL     1      14.099   7.300   3.037  1.00  0.00     0.002 A 
HETATM   16  C9  UNL     1      14.779   8.218   2.276  1.00  0.00     0.014 A 
HETATM   17  C10 UNL     1      14.073   9.101   1.483  1.00  0.00    -0.009 A 
HETATM   18  C11 UNL     1      14.769  10.022   0.720  1.00  0.00     0.100 A 
HETATM   19  C14 UNL     1      12.691   9.060   1.454  1.00  0.00     0.000 A 
HETATM   20  N3  UNL     1      14.099  10.894  -0.063  1.00  0.00    -0.374 N 
HETATM   21  C12 UNL     1      12.764  10.863  -0.099  1.00  0.00     0.088 A 
ATOM     22  H3  UNL     1      14.611  11.574  -0.625  1.00  0.00     0.164 HD
HETATM   23  C13 UNL     1      12.047   9.949   0.657  1.00  0.00     0.031 A 
ENDBRANCH   1  13
TORSDOF 2
ENDMDL
