MODEL 16
REMARK VINA RESULT: -7.189951901      5.610      7.759
REMARK  2 active torsions:
REMARK  status: ('A' for Active; 'I' for Inactive)
REMARK    1  A    between atoms: N2_9  and  S1_10 
REMARK    2  A    between atoms: S1_10  and  C6_13 
ROOT
HETATM    1  S1  UNL     1      16.125   7.644   1.013  1.00  0.00     0.262 S 
HETATM    2  O1  UNL     1      15.092   6.602   0.829  1.00  0.00    -0.200 OA
HETATM    3  O2  UNL     1      17.450   6.919   0.851  1.00  0.00    -0.200 OA
ENDROOT
BRANCH   1   4
HETATM    4  N2  UNL     1      16.182   8.310   2.583  1.00  0.00    -0.299 N 
HETATM    5  C2  UNL     1      15.494   7.603   3.583  1.00  0.00     0.117 C 
HETATM    6  C1  UNL     1      15.934   6.174   3.775  1.00  0.00     0.034 C 
HETATM    7  C3  UNL     1      15.595   8.311   4.896  1.00  0.00     0.257 C 
HETATM    8  N1  UNL     1      16.903   8.761   5.236  1.00  0.00    -0.072 N 
HETATM    9  C4  UNL     1      17.330   9.694   4.186  1.00  0.00     0.253 C 
ATOM     10  H12 UNL     1      16.956   9.162   6.172  1.00  0.00     0.277 HD
ATOM     11  H11 UNL     1      17.562   7.997   5.382  1.00  0.00     0.277 HD
HETATM   12  C5  UNL     1      17.462   8.834   2.923  1.00  0.00     0.163 C 
ENDBRANCH   1   4
BRANCH   1  13
HETATM   13  C6  UNL     1      16.099   8.869  -0.235  1.00  0.00     0.090 A 
HETATM   14  C7  UNL     1      16.955   8.870  -1.318  1.00  0.00     0.026 A 
HETATM   15  C8  UNL     1      16.947   9.827  -2.310  1.00  0.00     0.002 A 
HETATM   16  C9  UNL     1      16.038  10.851  -2.234  1.00  0.00     0.014 A 
HETATM   17  C10 UNL     1      15.156  10.902  -1.173  1.00  0.00    -0.009 A 
HETATM   18  C11 UNL     1      14.243  11.939  -1.107  1.00  0.00     0.100 A 
HETATM   19  C14 UNL     1      15.189   9.926  -0.193  1.00  0.00     0.000 A 
HETATM   20  N3  UNL     1      13.372  12.008  -0.078  1.00  0.00    -0.374 N 
HETATM   21  C12 UNL     1      13.395  11.071   0.874  1.00  0.00     0.088 A 
ATOM     22  H3  UNL     1      12.699  12.773  -0.028  1.00  0.00     0.164 HD
HETATM   23  C13 UNL     1      14.300  10.023   0.828  1.00  0.00     0.031 A 
ENDBRANCH   1  13
TORSDOF 2
ENDMDL
