MODEL 18
REMARK VINA RESULT: -7.117488253      4.893      6.730
REMARK  2 active torsions:
REMARK  status: ('A' for Active; 'I' for Inactive)
REMARK    1  A    between atoms: N2_9  and  S1_10 
REMARK    2  A    between atoms: S1_10  and  C6_13 
ROOT
HETATM    1  S1  UNL     1      16.376   7.370   0.594  1.00  0.00     0.262 S 
HETATM    2  O1  UNL     1      17.685   6.702   0.428  1.00  0.00    -0.200 OA
HETATM    3  O2  UNL     1      15.349   6.334   0.172  1.00  0.00    -0.200 OA
ENDROOT
BRANCH   1   4
HETATM    4  N2  UNL     1      16.121   8.690  -0.456  1.00  0.00    -0.299 N 
HETATM    5  C2  UNL     1      16.473   9.956   0.043  1.00  0.00     0.117 C 
HETATM    6  C1  UNL     1      17.911  10.099   0.470  1.00  0.00     0.034 C 
HETATM    7  C3  UNL     1      16.167  11.023  -0.959  1.00  0.00     0.257 C 
HETATM    8  N1  UNL     1      16.589  10.735  -2.290  1.00  0.00    -0.072 N 
HETATM    9  C4  UNL     1      15.899   9.510  -2.710  1.00  0.00     0.253 C 
ATOM     10  H12 UNL     1      16.445  11.515  -2.931  1.00  0.00     0.277 HD
ATOM     11  H11 UNL     1      17.603  10.673  -2.382  1.00  0.00     0.277 HD
HETATM   12  C5  UNL     1      16.467   8.407  -1.808  1.00  0.00     0.163 C 
ENDBRANCH   1   4
BRANCH   1  13
HETATM   13  C6  UNL     1      16.005   7.755   2.259  1.00  0.00     0.090 A 
HETATM   14  C7  UNL     1      16.947   7.753   3.268  1.00  0.00     0.026 A 
HETATM   15  C8  UNL     1      16.672   8.055   4.585  1.00  0.00     0.002 A 
HETATM   16  C9  UNL     1      15.385   8.381   4.934  1.00  0.00     0.014 A 
HETATM   17  C10 UNL     1      14.401   8.399   3.966  1.00  0.00    -0.009 A 
HETATM   18  C11 UNL     1      13.108   8.730   4.329  1.00  0.00     0.100 A 
HETATM   19  C14 UNL     1      14.709   8.092   2.653  1.00  0.00     0.000 A 
HETATM   20  N3  UNL     1      12.130   8.754   3.400  1.00  0.00    -0.374 N 
HETATM   21  C12 UNL     1      12.416   8.459   2.128  1.00  0.00     0.088 A 
ATOM     22  H3  UNL     1      11.176   8.997   3.667  1.00  0.00     0.164 HD
HETATM   23  C13 UNL     1      13.704   8.126   1.742  1.00  0.00     0.031 A 
ENDBRANCH   1  13
TORSDOF 2
ENDMDL
