MODEL 11
REMARK VINA RESULT: -7.044595233      1.301      1.479
REMARK  5 active torsions:
REMARK  status: ('A' for Active; 'I' for Inactive)
REMARK    1  A    between atoms: N1_2  and  C2_5 
REMARK    2  A    between atoms: C2_5  and  C3_6 
REMARK    3  A    between atoms: C3_6  and  N2_7 
REMARK    4  A    between atoms: N2_7  and  S1_9 
REMARK    5  A    between atoms: S1_9  and  C4_12 
ROOT
HETATM    1  C4  UNL     1       6.414   9.667   1.984  1.00  0.00     0.090 A 
HETATM    2  C5  UNL     1       5.763   9.595   0.750  1.00  0.00     0.026 A 
HETATM    3  C6  UNL     1       4.400   9.644   0.645  1.00  0.00     0.002 A 
HETATM    4  C7  UNL     1       3.627   9.766   1.757  1.00  0.00     0.014 A 
HETATM    5  C8  UNL     1       4.223   9.841   2.990  1.00  0.00    -0.009 A 
HETATM    6  C9  UNL     1       3.411   9.989   4.090  1.00  0.00     0.100 A 
HETATM    7  N3  UNL     1       3.969  10.095   5.309  1.00  0.00    -0.374 N 
ATOM      8  H3  UNL     1       3.384  10.205   6.138  1.00  0.00     0.164 HD
HETATM    9  C10 UNL     1       5.313  10.052   5.424  1.00  0.00     0.088 A 
HETATM   10  C11 UNL     1       6.152   9.903   4.344  1.00  0.00     0.031 A 
HETATM   11  C12 UNL     1       5.621   9.791   3.094  1.00  0.00     0.000 A 
ENDROOT
BRANCH   1  12
HETATM   12  S1  UNL     1       8.131   9.486   2.054  1.00  0.00     0.263 S 
HETATM   13  O1  UNL     1       8.406   8.046   2.513  1.00  0.00    -0.200 OA
HETATM   14  O2  UNL     1       8.758   9.531   0.677  1.00  0.00    -0.200 OA
BRANCH  12  15
HETATM   15  N2  UNL     1       8.837  10.521   3.152  1.00  0.00    -0.293 N 
ATOM     16  H2  UNL     1       8.405  11.433   3.306  1.00  0.00     0.177 HD
BRANCH  15  17
HETATM   17  C3  UNL     1       9.988  10.205   3.869  1.00  0.00     0.100 C 
BRANCH  17  18
HETATM   18  C2  UNL     1      11.249  10.176   3.009  1.00  0.00     0.277 C 
BRANCH  18  19
HETATM   19  N1  UNL     1      11.450   8.915   2.366  1.00  0.00    -0.075 N 
HETATM   20  C1  UNL     1      11.845   7.871   3.301  1.00  0.00     0.267 C 
ATOM     21  H12 UNL     1      12.119   8.995   1.600  1.00  0.00     0.277 HD
ATOM     22  H11 UNL     1      10.625   8.638   1.834  1.00  0.00     0.277 HD
ENDBRANCH  18  19
ENDBRANCH  17  18
ENDBRANCH  15  17
ENDBRANCH  12  15
ENDBRANCH   1  12
TORSDOF 5
ENDMDL
