MODEL 1
REMARK VINA RESULT: -7.409197752      0.000      0.000
REMARK  5 active torsions:
REMARK  status: ('A' for Active; 'I' for Inactive)
REMARK    1  A    between atoms: N1_2  and  C2_5 
REMARK    2  A    between atoms: C2_5  and  C3_6 
REMARK    3  A    between atoms: C3_6  and  N2_7 
REMARK    4  A    between atoms: N2_7  and  S1_9 
REMARK    5  A    between atoms: S1_9  and  C4_12 
ROOT
HETATM    1  C4  UNL     1       6.617   9.720   2.017  1.00  0.00     0.090 A 
HETATM    2  C5  UNL     1       6.029   9.639   0.753  1.00  0.00     0.026 A 
HETATM    3  C6  UNL     1       4.673   9.651   0.581  1.00  0.00     0.002 A 
HETATM    4  C7  UNL     1       3.843   9.745   1.654  1.00  0.00     0.014 A 
HETATM    5  C8  UNL     1       4.375   9.829   2.915  1.00  0.00    -0.009 A 
HETATM    6  C9  UNL     1       3.507   9.947   3.975  1.00  0.00     0.100 A 
HETATM    7  N3  UNL     1       4.001  10.060   5.221  1.00  0.00    -0.374 N 
ATOM      8  H3  UNL     1       3.373  10.149   6.020  1.00  0.00     0.164 HD
HETATM    9  C10 UNL     1       5.339  10.053   5.401  1.00  0.00     0.088 A 
HETATM   10  C11 UNL     1       6.234   9.935   4.363  1.00  0.00     0.031 A 
HETATM   11  C12 UNL     1       5.768   9.816   3.088  1.00  0.00     0.000 A 
ENDROOT
BRANCH   1  12
HETATM   12  S1  UNL     1       8.333   9.586   2.171  1.00  0.00     0.263 S 
HETATM   13  O1  UNL     1       8.932   9.992   0.816  1.00  0.00    -0.200 OA
HETATM   14  O2  UNL     1       8.896  10.625   3.119  1.00  0.00    -0.200 OA
BRANCH  12  15
HETATM   15  N2  UNL     1       8.824   8.029   2.507  1.00  0.00    -0.293 N 
ATOM     16  H2  UNL     1       8.656   7.307   1.807  1.00  0.00     0.177 HD
BRANCH  15  17
HETATM   17  C3  UNL     1       9.451   7.667   3.696  1.00  0.00     0.100 C 
BRANCH  17  18
HETATM   18  C2  UNL     1      10.945   7.977   3.712  1.00  0.00     0.277 C 
BRANCH  18  19
HETATM   19  N1  UNL     1      11.712   7.039   2.952  1.00  0.00    -0.075 N 
HETATM   20  C1  UNL     1      13.142   7.308   3.017  1.00  0.00     0.267 C 
ATOM     21  H12 UNL     1      11.389   6.998   1.985  1.00  0.00     0.277 HD
ATOM     22  H11 UNL     1      11.505   6.082   3.234  1.00  0.00     0.277 HD
ENDBRANCH  18  19
ENDBRANCH  17  18
ENDBRANCH  15  17
ENDBRANCH  12  15
ENDBRANCH   1  12
TORSDOF 5
ENDMDL
