MODEL 15
REMARK VINA RESULT: -6.989167308      1.674      2.322
REMARK  5 active torsions:
REMARK  status: ('A' for Active; 'I' for Inactive)
REMARK    1  A    between atoms: N1_2  and  C2_5 
REMARK    2  A    between atoms: C2_5  and  C3_6 
REMARK    3  A    between atoms: C3_6  and  N2_7 
REMARK    4  A    between atoms: N2_7  and  S1_9 
REMARK    5  A    between atoms: S1_9  and  C4_12 
ROOT
HETATM    1  C4  UNL     1       8.370  10.142   2.522  1.00  0.00     0.090 A 
HETATM    2  C5  UNL     1       8.992  10.058   1.275  1.00  0.00     0.026 A 
HETATM    3  C6  UNL     1       8.282   9.866   0.121  1.00  0.00     0.002 A 
HETATM    4  C7  UNL     1       6.928   9.750   0.157  1.00  0.00     0.014 A 
HETATM    5  C8  UNL     1       6.274   9.828   1.360  1.00  0.00    -0.009 A 
HETATM    6  C9  UNL     1       4.902   9.732   1.357  1.00  0.00     0.100 A 
HETATM    7  N3  UNL     1       4.232   9.833   2.518  1.00  0.00    -0.374 N 
ATOM      8  H3  UNL     1       3.215   9.765   2.536  1.00  0.00     0.164 HD
HETATM    9  C10 UNL     1       4.923  10.027   3.661  1.00  0.00     0.088 A 
HETATM   10  C11 UNL     1       6.295  10.126   3.700  1.00  0.00     0.031 A 
HETATM   11  C12 UNL     1       7.006  10.025   2.542  1.00  0.00     0.000 A 
ENDROOT
BRANCH   1  12
HETATM   12  S1  UNL     1       9.336  10.272   3.950  1.00  0.00     0.263 S 
HETATM   13  O1  UNL     1      10.643  10.968   3.539  1.00  0.00    -0.200 OA
HETATM   14  O2  UNL     1       8.735  11.238   4.950  1.00  0.00    -0.200 OA
BRANCH  12  15
HETATM   15  N2  UNL     1       9.724   8.786   4.596  1.00  0.00    -0.293 N 
ATOM     16  H2  UNL     1       9.660   8.665   5.607  1.00  0.00     0.177 HD
BRANCH  15  17
HETATM   17  C3  UNL     1      10.131   7.700   3.824  1.00  0.00     0.100 C 
BRANCH  17  18
HETATM   18  C2  UNL     1      11.640   7.646   3.605  1.00  0.00     0.277 C 
BRANCH  18  19
HETATM   19  N1  UNL     1      12.052   8.344   2.427  1.00  0.00    -0.075 N 
HETATM   20  C1  UNL     1      13.394   8.897   2.549  1.00  0.00     0.267 C 
ATOM     21  H12 UNL     1      11.379   9.066   2.173  1.00  0.00     0.277 HD
ATOM     22  H11 UNL     1      11.974   7.750   1.602  1.00  0.00     0.277 HD
ENDBRANCH  18  19
ENDBRANCH  17  18
ENDBRANCH  15  17
ENDBRANCH  12  15
ENDBRANCH   1  12
TORSDOF 5
ENDMDL
