MODEL 5
REMARK VINA RESULT: -7.154113367      1.722      1.923
REMARK  5 active torsions:
REMARK  status: ('A' for Active; 'I' for Inactive)
REMARK    1  A    between atoms: N1_2  and  C2_5 
REMARK    2  A    between atoms: C2_5  and  C3_6 
REMARK    3  A    between atoms: C3_6  and  N2_7 
REMARK    4  A    between atoms: N2_7  and  S1_9 
REMARK    5  A    between atoms: S1_9  and  C4_12 
ROOT
HETATM    1  C4  UNL     1       7.400  10.038   3.080  1.00  0.00     0.090 A 
HETATM    2  C5  UNL     1       7.641  10.010   1.705  1.00  0.00     0.026 A 
HETATM    3  C6  UNL     1       6.626   9.922   0.792  1.00  0.00     0.002 A 
HETATM    4  C7  UNL     1       5.331   9.858   1.205  1.00  0.00     0.014 A 
HETATM    5  C8  UNL     1       5.048   9.885   2.546  1.00  0.00    -0.009 A 
HETATM    6  C9  UNL     1       3.727   9.844   2.927  1.00  0.00     0.100 A 
HETATM    7  N3  UNL     1       3.417   9.897   4.234  1.00  0.00    -0.374 N 
ATOM      8  H3  UNL     1       2.443   9.869   4.536  1.00  0.00     0.164 HD
HETATM    9  C10 UNL     1       4.411   9.989   5.143  1.00  0.00     0.088 A 
HETATM   10  C11 UNL     1       5.741  10.030   4.796  1.00  0.00     0.031 A 
HETATM   11  C12 UNL     1       6.092   9.975   3.480  1.00  0.00     0.000 A 
ENDROOT
BRANCH   1  12
HETATM   12  S1  UNL     1       8.733  10.037   4.179  1.00  0.00     0.263 S 
HETATM   13  O1  UNL     1       8.635  11.334   4.997  1.00  0.00    -0.200 OA
HETATM   14  O2  UNL     1       8.593   8.958   5.233  1.00  0.00    -0.200 OA
BRANCH  12  15
HETATM   15  N2  UNL     1      10.205  10.030   3.398  1.00  0.00    -0.293 N 
ATOM     16  H2  UNL     1      10.276  10.498   2.494  1.00  0.00     0.177 HD
BRANCH  15  17
HETATM   17  C3  UNL     1      11.343   9.418   3.918  1.00  0.00     0.100 C 
BRANCH  17  18
HETATM   18  C2  UNL     1      11.623   8.046   3.312  1.00  0.00     0.277 C 
BRANCH  18  19
HETATM   19  N1  UNL     1      12.141   7.116   4.266  1.00  0.00    -0.075 N 
HETATM   20  C1  UNL     1      13.500   7.440   4.677  1.00  0.00     0.267 C 
ATOM     21  H12 UNL     1      12.081   6.160   3.918  1.00  0.00     0.277 HD
ATOM     22  H11 UNL     1      11.523   7.035   5.073  1.00  0.00     0.277 HD
ENDBRANCH  18  19
ENDBRANCH  17  18
ENDBRANCH  15  17
ENDBRANCH  12  15
ENDBRANCH   1  12
TORSDOF 5
ENDMDL
