MODEL 13
REMARK VINA RESULT: -8.967046437      4.945     10.070
REMARK  8 active torsions:
REMARK  status: ('A' for Active; 'I' for Inactive)
REMARK    1  A    between atoms: S1_2  and  N1_4 
REMARK    2  A    between atoms: S1_2  and  C12_21 
REMARK    3  A    between atoms: N1_4  and  C1_6 
REMARK    4  A    between atoms: C1_6  and  C2_7 
REMARK    5  A    between atoms: C2_7  and  N2_8 
REMARK    6  A    between atoms: N2_8  and  C3_11 
REMARK    7  A    between atoms: C3_11  and  C4_12 
REMARK    8  A    between atoms: C5_13  and  C6_14 
ROOT
HETATM    1  N1  UNL     1       8.781   8.718   4.801  1.00  0.00    -0.314 N 
ATOM      2  H1  UNL     1       8.805   8.594   5.813  1.00  0.00     0.172 HD
ENDROOT
BRANCH   1   3
HETATM    3  S1  UNL     1       8.750  10.248   4.014  1.00  0.00     0.259 S 
HETATM    4  O1  UNL     1      10.058  10.579   3.374  1.00  0.00    -0.201 OA
HETATM    5  O2  UNL     1       8.455  11.363   4.999  1.00  0.00    -0.201 OA
BRANCH   3   6
HETATM    6  C12 UNL     1       7.429  10.226   2.867  1.00  0.00     0.090 A 
HETATM    7  C13 UNL     1       7.628  10.311   1.498  1.00  0.00     0.026 A 
HETATM    8  C14 UNL     1       6.564  10.290   0.647  1.00  0.00     0.002 A 
HETATM    9  C15 UNL     1       5.292  10.184   1.159  1.00  0.00     0.014 A 
HETATM   10  C16 UNL     1       5.059  10.096   2.518  1.00  0.00    -0.009 A 
HETATM   11  C17 UNL     1       3.795   9.989   3.055  1.00  0.00     0.100 A 
HETATM   12  C20 UNL     1       6.145  10.118   3.371  1.00  0.00     0.000 A 
HETATM   13  N3  UNL     1       3.582   9.904   4.387  1.00  0.00    -0.374 N 
HETATM   14  C18 UNL     1       4.617   9.923   5.236  1.00  0.00     0.088 A 
ATOM     15  H3  UNL     1       2.630   9.826   4.745  1.00  0.00     0.164 HD
HETATM   16  C19 UNL     1       5.882  10.030   4.730  1.00  0.00     0.031 A 
ENDBRANCH   3   6
ENDBRANCH   1   3
BRANCH   1  17
HETATM   17  C1  UNL     1       8.769   7.625   3.847  1.00  0.00     0.159 C 
BRANCH  17  18
HETATM   18  C2  UNL     1      10.071   7.470   3.140  1.00  0.00     0.253 C 
BRANCH  18  19
HETATM   19  N2  UNL     1      11.202   7.609   4.063  1.00  0.00    -0.070 N 
ATOM     20  H22 UNL     1      11.148   8.490   4.575  1.00  0.00     0.277 HD
ATOM     21  H21 UNL     1      11.117   6.957   4.843  1.00  0.00     0.277 HD
BRANCH  19  22
HETATM   22  C3  UNL     1      12.466   7.470   3.418  1.00  0.00     0.259 C 
BRANCH  22  23
HETATM   23  C4  UNL     1      12.853   8.738   2.769  1.00  0.00     0.001 C 
HETATM   24  C5  UNL     1      12.990   8.861   1.464  1.00  0.00     0.009 C 
BRANCH  24  25
HETATM   25  C6  UNL     1      13.368  10.088   0.793  1.00  0.00    -0.036 A 
HETATM   26  C7  UNL     1      14.585  10.143   0.145  1.00  0.00     0.012 A 
HETATM   27  C8  UNL     1      15.023  11.262  -0.515  1.00  0.00     0.020 A 
HETATM   28  C9  UNL     1      14.224  12.374  -0.538  1.00  0.00     0.011 A 
HETATM   29 BR1  UNL     1      14.763  13.966  -1.435  1.00  0.00    -0.051 Br
HETATM   30  C10 UNL     1      13.000  12.371   0.091  1.00  0.00     0.020 A 
HETATM   31  C11 UNL     1      12.599  11.220   0.746  1.00  0.00     0.012 A 
ENDBRANCH  24  25
ENDBRANCH  22  23
ENDBRANCH  19  22
ENDBRANCH  18  19
ENDBRANCH  17  18
ENDBRANCH   1  17
TORSDOF 8
ENDMDL
