MODEL 1
REMARK VINA RESULT: -9.402519498      0.000      0.000
REMARK  8 active torsions:
REMARK  status: ('A' for Active; 'I' for Inactive)
REMARK    1  A    between atoms: S1_2  and  N1_4 
REMARK    2  A    between atoms: S1_2  and  C12_21 
REMARK    3  A    between atoms: N1_4  and  C1_6 
REMARK    4  A    between atoms: C1_6  and  C2_7 
REMARK    5  A    between atoms: C2_7  and  N2_8 
REMARK    6  A    between atoms: N2_8  and  C3_11 
REMARK    7  A    between atoms: C3_11  and  C4_12 
REMARK    8  A    between atoms: C5_13  and  C6_14 
ROOT
HETATM    1  N1  UNL     1      14.894   9.026  -0.243  1.00  0.00    -0.314 N 
ATOM      2  H1  UNL     1      15.296   8.139  -0.545  1.00  0.00     0.172 HD
ENDROOT
BRANCH   1   3
HETATM    3  S1  UNL     1      14.793  10.429  -1.233  1.00  0.00     0.259 S 
HETATM    4  O1  UNL     1      15.276  11.653  -0.527  1.00  0.00    -0.201 OA
HETATM    5  O2  UNL     1      13.361  10.705  -1.647  1.00  0.00    -0.201 OA
BRANCH   3   6
HETATM    6  C12 UNL     1      15.689  10.106  -2.701  1.00  0.00     0.090 A 
HETATM    7  C13 UNL     1      15.085  10.054  -3.948  1.00  0.00     0.026 A 
HETATM    8  C14 UNL     1      15.829   9.798  -5.061  1.00  0.00     0.002 A 
HETATM    9  C15 UNL     1      17.183   9.591  -4.935  1.00  0.00     0.014 A 
HETATM   10  C16 UNL     1      17.816   9.636  -3.707  1.00  0.00    -0.009 A 
HETATM   11  C17 UNL     1      19.169   9.433  -3.555  1.00  0.00     0.100 A 
HETATM   12  C20 UNL     1      17.052   9.897  -2.586  1.00  0.00     0.000 A 
HETATM   13  N3  UNL     1      19.775   9.480  -2.348  1.00  0.00    -0.374 N 
HETATM   14  C18 UNL     1      19.058   9.731  -1.245  1.00  0.00     0.088 A 
ATOM     15  H3  UNL     1      20.781   9.324  -2.277  1.00  0.00     0.164 HD
HETATM   16  C19 UNL     1      17.712   9.936  -1.367  1.00  0.00     0.031 A 
ENDBRANCH   3   6
ENDBRANCH   1   3
BRANCH   1  17
HETATM   17  C1  UNL     1      14.338   9.261   1.076  1.00  0.00     0.159 C 
BRANCH  17  18
HETATM   18  C2  UNL     1      13.543   8.103   1.574  1.00  0.00     0.253 C 
BRANCH  18  19
HETATM   19  N2  UNL     1      12.144   8.191   1.144  1.00  0.00    -0.070 N 
ATOM     20  H22 UNL     1      12.024   7.797   0.211  1.00  0.00     0.277 HD
ATOM     21  H21 UNL     1      11.559   7.544   1.675  1.00  0.00     0.277 HD
BRANCH  19  22
HETATM   22  C3  UNL     1      11.624   9.518   1.208  1.00  0.00     0.259 C 
BRANCH  22  23
HETATM   23  C4  UNL     1      10.250   9.506   1.745  1.00  0.00     0.001 C 
HETATM   24  C5  UNL     1       9.921  10.082   2.884  1.00  0.00     0.009 C 
BRANCH  24  25
HETATM   25  C6  UNL     1       8.584  10.091   3.441  1.00  0.00    -0.036 A 
HETATM   26  C7  UNL     1       7.508   9.938   2.590  1.00  0.00     0.012 A 
HETATM   27  C8  UNL     1       6.210   9.935   3.030  1.00  0.00     0.020 A 
HETATM   28  C9  UNL     1       5.963  10.089   4.368  1.00  0.00     0.011 A 
HETATM   29 BR1  UNL     1       4.185  10.095   5.055  1.00  0.00    -0.051 Br
HETATM   30  C10 UNL     1       7.000  10.245   5.259  1.00  0.00     0.020 A 
HETATM   31  C11 UNL     1       8.293  10.242   4.770  1.00  0.00     0.012 A 
ENDBRANCH  24  25
ENDBRANCH  22  23
ENDBRANCH  19  22
ENDBRANCH  18  19
ENDBRANCH  17  18
ENDBRANCH   1  17
TORSDOF 8
ENDMDL
