MODEL 2
REMARK VINA RESULT: -9.261233676      4.446     10.140
REMARK  8 active torsions:
REMARK  status: ('A' for Active; 'I' for Inactive)
REMARK    1  A    between atoms: S1_2  and  N1_4 
REMARK    2  A    between atoms: S1_2  and  C12_21 
REMARK    3  A    between atoms: N1_4  and  C1_6 
REMARK    4  A    between atoms: C1_6  and  C2_7 
REMARK    5  A    between atoms: C2_7  and  N2_8 
REMARK    6  A    between atoms: N2_8  and  C3_11 
REMARK    7  A    between atoms: C3_11  and  C4_12 
REMARK    8  A    between atoms: C5_13  and  C6_14 
ROOT
HETATM    1  N1  UNL     1      11.715   7.880   1.064  1.00  0.00    -0.314 N 
ATOM      2  H1  UNL     1      11.748   7.220   0.287  1.00  0.00     0.172 HD
ENDROOT
BRANCH   1   3
HETATM    3  S1  UNL     1      10.331   8.142   2.052  1.00  0.00     0.259 S 
HETATM    4  O1  UNL     1      10.686   8.754   3.367  1.00  0.00    -0.201 OA
HETATM    5  O2  UNL     1       9.624   6.836   2.359  1.00  0.00    -0.201 OA
BRANCH   3   6
HETATM    6  C12 UNL     1       9.207   9.122   1.138  1.00  0.00     0.090 A 
HETATM    7  C13 UNL     1       9.448   9.511  -0.171  1.00  0.00     0.026 A 
HETATM    8  C14 UNL     1       8.539  10.276  -0.838  1.00  0.00     0.002 A 
HETATM    9  C15 UNL     1       7.381  10.659  -0.201  1.00  0.00     0.014 A 
HETATM   10  C16 UNL     1       7.110  10.288   1.102  1.00  0.00    -0.009 A 
HETATM   11  C17 UNL     1       5.960  10.658   1.762  1.00  0.00     0.100 A 
HETATM   12  C20 UNL     1       8.039   9.512   1.769  1.00  0.00     0.000 A 
HETATM   13  N3  UNL     1       5.707  10.289   3.036  1.00  0.00    -0.374 N 
HETATM   14  C18 UNL     1       6.590   9.537   3.706  1.00  0.00     0.088 A 
ATOM     15  H3  UNL     1       4.842  10.583   3.490  1.00  0.00     0.164 HD
HETATM   16  C19 UNL     1       7.742   9.156   3.076  1.00  0.00     0.031 A 
ENDBRANCH   3   6
ENDBRANCH   1   3
BRANCH   1  17
HETATM   17  C1  UNL     1      12.829   8.714   1.471  1.00  0.00     0.159 C 
BRANCH  17  18
HETATM   18  C2  UNL     1      13.966   7.921   2.019  1.00  0.00     0.253 C 
BRANCH  18  19
HETATM   19  N2  UNL     1      14.594   7.098   0.980  1.00  0.00    -0.070 N 
ATOM     20  H22 UNL     1      14.586   6.113   1.242  1.00  0.00     0.277 HD
ATOM     21  H21 UNL     1      14.008   7.054   0.146  1.00  0.00     0.277 HD
BRANCH  19  22
HETATM   22  C3  UNL     1      15.914   7.528   0.652  1.00  0.00     0.259 C 
BRANCH  22  23
HETATM   23  C4  UNL     1      16.025   7.790  -0.795  1.00  0.00     0.001 C 
HETATM   24  C5  UNL     1      16.405   8.952  -1.285  1.00  0.00     0.009 C 
BRANCH  24  25
HETATM   25  C6  UNL     1      16.526   9.245  -2.699  1.00  0.00    -0.036 A 
HETATM   26  C7  UNL     1      15.380   9.300  -3.467  1.00  0.00     0.012 A 
HETATM   27  C8  UNL     1      15.401   9.570  -4.810  1.00  0.00     0.020 A 
HETATM   28  C9  UNL     1      16.605   9.797  -5.423  1.00  0.00     0.011 A 
HETATM   29 BR1  UNL     1      16.714  10.179  -7.287  1.00  0.00    -0.051 Br
HETATM   30  C10 UNL     1      17.777   9.755  -4.703  1.00  0.00     0.020 A 
HETATM   31  C11 UNL     1      17.708   9.478  -3.350  1.00  0.00     0.012 A 
ENDBRANCH  24  25
ENDBRANCH  22  23
ENDBRANCH  19  22
ENDBRANCH  18  19
ENDBRANCH  17  18
ENDBRANCH   1  17
TORSDOF 8
ENDMDL
