MODEL 4
REMARK VINA RESULT: -9.205416954      2.349      3.171
REMARK  8 active torsions:
REMARK  status: ('A' for Active; 'I' for Inactive)
REMARK    1  A    between atoms: S1_2  and  N1_4 
REMARK    2  A    between atoms: S1_2  and  C12_21 
REMARK    3  A    between atoms: N1_4  and  C1_6 
REMARK    4  A    between atoms: C1_6  and  C2_7 
REMARK    5  A    between atoms: C2_7  and  N2_8 
REMARK    6  A    between atoms: N2_8  and  C3_11 
REMARK    7  A    between atoms: C3_11  and  C4_12 
REMARK    8  A    between atoms: C5_13  and  C6_14 
ROOT
HETATM    1  N1  UNL     1      14.475   7.260   1.118  1.00  0.00    -0.314 N 
ATOM      2  H1  UNL     1      13.987   6.712   0.409  1.00  0.00     0.172 HD
ENDROOT
BRANCH   1   3
HETATM    3  S1  UNL     1      15.986   8.042   0.865  1.00  0.00     0.259 S 
HETATM    4  O1  UNL     1      17.117   7.070   0.788  1.00  0.00    -0.201 OA
HETATM    5  O2  UNL     1      16.308   8.991   2.003  1.00  0.00    -0.201 OA
BRANCH   3   6
HETATM    6  C12 UNL     1      15.841   9.017  -0.580  1.00  0.00     0.090 A 
HETATM    7  C13 UNL     1      16.403   8.645  -1.792  1.00  0.00     0.026 A 
HETATM    8  C14 UNL     1      16.261   9.442  -2.888  1.00  0.00     0.002 A 
HETATM    9  C15 UNL     1      15.557  10.619  -2.781  1.00  0.00     0.014 A 
HETATM   10  C16 UNL     1      14.984  11.019  -1.588  1.00  0.00    -0.009 A 
HETATM   11  C17 UNL     1      14.275  12.191  -1.455  1.00  0.00     0.100 A 
HETATM   12  C20 UNL     1      15.134  10.202  -0.484  1.00  0.00     0.000 A 
HETATM   13  N3  UNL     1      13.720  12.570  -0.283  1.00  0.00    -0.374 N 
HETATM   14  C18 UNL     1      13.850  11.798   0.803  1.00  0.00     0.088 A 
ATOM     15  H3  UNL     1      13.202  13.447  -0.226  1.00  0.00     0.164 HD
HETATM   16  C19 UNL     1      14.551  10.629   0.700  1.00  0.00     0.031 A 
ENDBRANCH   3   6
ENDBRANCH   1   3
BRANCH   1  17
HETATM   17  C1  UNL     1      13.980   7.473   2.464  1.00  0.00     0.159 C 
BRANCH  17  18
HETATM   18  C2  UNL     1      12.594   8.020   2.482  1.00  0.00     0.253 C 
BRANCH  18  19
HETATM   19  N2  UNL     1      11.979   7.964   1.152  1.00  0.00    -0.070 N 
ATOM     20  H22 UNL     1      12.688   7.851   0.428  1.00  0.00     0.277 HD
ATOM     21  H21 UNL     1      11.467   7.091   1.023  1.00  0.00     0.277 HD
BRANCH  19  22
HETATM   22  C3  UNL     1      11.145   9.089   0.878  1.00  0.00     0.259 C 
BRANCH  22  23
HETATM   23  C4  UNL     1      10.004   9.122   1.813  1.00  0.00     0.001 C 
HETATM   24  C5  UNL     1       8.911   9.821   1.582  1.00  0.00     0.009 C 
BRANCH  24  25
HETATM   25  C6  UNL     1       7.772   9.878   2.476  1.00  0.00    -0.036 A 
HETATM   26  C7  UNL     1       6.519  10.101   1.942  1.00  0.00     0.012 A 
HETATM   27  C8  UNL     1       5.387  10.171   2.712  1.00  0.00     0.020 A 
HETATM   28  C9  UNL     1       5.497  10.011   4.068  1.00  0.00     0.011 A 
HETATM   29 BR1  UNL     1       3.969  10.094   5.204  1.00  0.00    -0.051 Br
HETATM   30  C10 UNL     1       6.723   9.786   4.650  1.00  0.00     0.020 A 
HETATM   31  C11 UNL     1       7.837   9.724   3.835  1.00  0.00     0.012 A 
ENDBRANCH  24  25
ENDBRANCH  22  23
ENDBRANCH  19  22
ENDBRANCH  18  19
ENDBRANCH  17  18
ENDBRANCH   1  17
TORSDOF 8
ENDMDL
