MODEL 12
REMARK VINA RESULT: -8.171081419      2.351      8.174
REMARK  9 active torsions:
REMARK  status: ('A' for Active; 'I' for Inactive)
REMARK    1  A    between atoms: C1_2  and  C2_4 
REMARK    2  A    between atoms: C2_4  and  N1_5 
REMARK       I    between atoms: N1_5  and  C3_7 
REMARK    3  A    between atoms: C3_7  and  C4_9 
REMARK    4  A    between atoms: C4_9  and  C5_10 
REMARK    5  A    between atoms: C5_10  and  C6_11 
REMARK    6  A    between atoms: C6_11  and  P1_12 
REMARK    7  A    between atoms: P1_12  and  O6_15 
REMARK    8  A    between atoms: O6_15  and  C7_16 
REMARK    9  A    between atoms: C10_19  and  N2_20 
ROOT
HETATM    1  P1  UNL     1      14.765  38.674  61.351  1.00  0.00     0.254 P 
HETATM    2  O4  UNL     1      14.936  38.394  62.959  1.00  0.00    -0.646 OA
HETATM    3  O5  UNL     1      14.543  40.216  60.812  1.00  0.00    -0.646 OA
ENDROOT
BRANCH   1   4
HETATM    4  C6  UNL     1      13.161  38.328  61.351  1.00  0.00     0.136 C 
BRANCH   4   5
HETATM    5  C5  UNL     1      12.760  37.389  62.512  1.00  0.00     0.022 C 
BRANCH   5   6
HETATM    6  C4  UNL     1      11.620  36.588  61.974  1.00  0.00     0.103 C 
BRANCH   6   7
HETATM    7  C3  UNL     1      10.346  37.155  62.456  1.00  0.00     0.218 C 
HETATM    8  N1  UNL     1       9.552  38.034  61.663  1.00  0.00    -0.351 N 
ATOM      9  H1  UNL     1       9.860  38.289  60.724  1.00  0.00     0.163 HD
HETATM   10  O3  UNL     1       9.919  36.873  63.603  1.00  0.00    -0.274 OA
BRANCH   8  11
HETATM   11  C2  UNL     1       8.317  38.564  62.176  1.00  0.00     0.235 C 
BRANCH  11  12
HETATM   12  C1  UNL     1       8.275  40.029  61.995  1.00  0.00     0.191 C 
HETATM   13  O1  UNL     1       9.202  40.612  61.379  1.00  0.00    -0.647 OA
HETATM   14  O2  UNL     1       7.248  40.824  62.473  1.00  0.00    -0.647 OA
ENDBRANCH  11  12
ENDBRANCH   8  11
ENDBRANCH   6   7
ENDBRANCH   5   6
ENDBRANCH   4   5
ENDBRANCH   1   4
BRANCH   1  15
HETATM   15  O6  UNL     1      15.093  37.457  60.231  1.00  0.00    -0.270 OA
BRANCH  15  16
HETATM   16  C7  UNL     1      16.412  37.212  59.986  1.00  0.00     0.079 A 
HETATM   17  C8  UNL     1      17.096  36.319  60.807  1.00  0.00     0.040 A 
HETATM   18  C9  UNL     1      18.424  36.034  60.609  1.00  0.00     0.039 A 
HETATM   19  C10 UNL     1      19.112  36.634  59.580  1.00  0.00     0.103 A 
HETATM   20  C11 UNL     1      18.432  37.507  58.782  1.00  0.00     0.039 A 
HETATM   21  C12 UNL     1      17.089  37.817  58.956  1.00  0.00     0.040 A 
BRANCH  19  22
HETATM   22  N2  UNL     1      20.497  36.364  59.340  1.00  0.00    -0.116 N 
HETATM   23  O7  UNL     1      20.908  35.994  58.230  1.00  0.00    -0.532 OA
HETATM   24  O8  UNL     1      21.403  36.514  60.359  1.00  0.00    -0.532 OA
ENDBRANCH  19  22
ENDBRANCH  15  16
ENDBRANCH   1  15
TORSDOF 9
ENDMDL
