MODEL 2
REMARK VINA RESULT: -9.142264550      2.034      3.588
REMARK  9 active torsions:
REMARK  status: ('A' for Active; 'I' for Inactive)
REMARK    1  A    between atoms: C1_2  and  C2_4 
REMARK    2  A    between atoms: C2_4  and  N1_5 
REMARK       I    between atoms: N1_5  and  C3_7 
REMARK    3  A    between atoms: C3_7  and  C4_9 
REMARK    4  A    between atoms: C4_9  and  C5_10 
REMARK    5  A    between atoms: C5_10  and  C6_11 
REMARK    6  A    between atoms: C6_11  and  P1_12 
REMARK    7  A    between atoms: P1_12  and  O6_15 
REMARK    8  A    between atoms: O6_15  and  C7_16 
REMARK    9  A    between atoms: C10_19  and  N2_20 
ROOT
HETATM    1  P1  UNL     1      13.759  37.238  62.836  1.00  0.00     0.254 P 
HETATM    2  O4  UNL     1      14.529  38.686  62.773  1.00  0.00    -0.646 OA
HETATM    3  O5  UNL     1      13.985  36.252  64.137  1.00  0.00    -0.646 OA
ENDROOT
BRANCH   1   4
HETATM    4  C6  UNL     1      14.890  36.475  61.925  1.00  0.00     0.136 C 
BRANCH   4   5
HETATM    5  C5  UNL     1      16.180  37.311  61.764  1.00  0.00     0.022 C 
BRANCH   5   6
HETATM    6  C4  UNL     1      17.147  36.391  61.094  1.00  0.00     0.103 C 
BRANCH   6   7
HETATM    7  C3  UNL     1      16.973  36.471  59.631  1.00  0.00     0.218 C 
HETATM    8  N1  UNL     1      17.004  35.317  58.793  1.00  0.00    -0.351 N 
ATOM      9  H1  UNL     1      17.148  34.395  59.205  1.00  0.00     0.163 HD
HETATM   10  O3  UNL     1      16.792  37.581  59.073  1.00  0.00    -0.274 OA
BRANCH   8  11
HETATM   11  C2  UNL     1      16.833  35.445  57.371  1.00  0.00     0.235 C 
BRANCH  11  12
HETATM   12  C1  UNL     1      16.743  34.111  56.745  1.00  0.00     0.191 C 
HETATM   13  O1  UNL     1      17.787  33.523  56.367  1.00  0.00    -0.647 OA
HETATM   14  O2  UNL     1      15.545  33.445  56.543  1.00  0.00    -0.647 OA
ENDBRANCH  11  12
ENDBRANCH   8  11
ENDBRANCH   6   7
ENDBRANCH   5   6
ENDBRANCH   4   5
ENDBRANCH   1   4
BRANCH   1  15
HETATM   15  O6  UNL     1      12.533  36.871  61.737  1.00  0.00    -0.270 OA
BRANCH  15  16
HETATM   16  C7  UNL     1      11.377  37.582  61.874  1.00  0.00     0.079 A 
HETATM   17  C8  UNL     1      11.299  38.857  61.318  1.00  0.00     0.040 A 
HETATM   18  C9  UNL     1      10.162  39.618  61.425  1.00  0.00     0.039 A 
HETATM   19  C10 UNL     1       9.064  39.128  62.093  1.00  0.00     0.103 A 
HETATM   20  C11 UNL     1       9.152  37.878  62.634  1.00  0.00     0.039 A 
HETATM   21  C12 UNL     1      10.288  37.083  62.543  1.00  0.00     0.040 A 
BRANCH  19  22
HETATM   22  N2  UNL     1       7.860  39.890  62.227  1.00  0.00    -0.116 N 
HETATM   23  O7  UNL     1       6.901  39.486  62.902  1.00  0.00    -0.532 OA
HETATM   24  O8  UNL     1       7.752  41.102  61.594  1.00  0.00    -0.532 OA
ENDBRANCH  19  22
ENDBRANCH  15  16
ENDBRANCH   1  15
TORSDOF 9
ENDMDL
