MODEL 5
REMARK VINA RESULT: -8.950946470      1.811      2.878
REMARK  9 active torsions:
REMARK  status: ('A' for Active; 'I' for Inactive)
REMARK    1  A    between atoms: C1_2  and  C2_4 
REMARK    2  A    between atoms: C2_4  and  N1_5 
REMARK       I    between atoms: N1_5  and  C3_7 
REMARK    3  A    between atoms: C3_7  and  C4_9 
REMARK    4  A    between atoms: C4_9  and  C5_10 
REMARK    5  A    between atoms: C5_10  and  C6_11 
REMARK    6  A    between atoms: C6_11  and  P1_12 
REMARK    7  A    between atoms: P1_12  and  O6_15 
REMARK    8  A    between atoms: O6_15  and  C7_16 
REMARK    9  A    between atoms: C10_19  and  N2_20 
ROOT
HETATM    1  P1  UNL     1      14.148  37.904  61.675  1.00  0.00     0.254 P 
HETATM    2  O4  UNL     1      14.811  38.460  60.280  1.00  0.00    -0.646 OA
HETATM    3  O5  UNL     1      14.669  38.503  63.119  1.00  0.00    -0.646 OA
ENDROOT
BRANCH   1   4
HETATM    4  C6  UNL     1      15.128  36.590  61.744  1.00  0.00     0.136 C 
BRANCH   4   5
HETATM    5  C5  UNL     1      16.626  36.970  61.737  1.00  0.00     0.022 C 
BRANCH   5   6
HETATM    6  C4  UNL     1      17.248  36.040  60.749  1.00  0.00     0.103 C 
BRANCH   6   7
HETATM    7  C3  UNL     1      17.879  36.818  59.664  1.00  0.00     0.218 C 
HETATM    8  N1  UNL     1      17.118  37.569  58.721  1.00  0.00    -0.351 N 
ATOM      9  H1  UNL     1      16.100  37.582  58.785  1.00  0.00     0.163 HD
HETATM   10  O3  UNL     1      19.128  36.838  59.542  1.00  0.00    -0.274 OA
BRANCH   8  11
HETATM   11  C2  UNL     1      17.778  38.310  57.680  1.00  0.00     0.235 C 
BRANCH  11  12
HETATM   12  C1  UNL     1      17.783  37.533  56.425  1.00  0.00     0.191 C 
HETATM   13  O1  UNL     1      16.778  37.551  55.670  1.00  0.00    -0.647 OA
HETATM   14  O2  UNL     1      18.858  36.762  56.014  1.00  0.00    -0.647 OA
ENDBRANCH  11  12
ENDBRANCH   8  11
ENDBRANCH   6   7
ENDBRANCH   5   6
ENDBRANCH   4   5
ENDBRANCH   1   4
BRANCH   1  15
HETATM   15  O6  UNL     1      12.760  36.947  61.641  1.00  0.00    -0.270 OA
BRANCH  15  16
HETATM   16  C7  UNL     1      11.577  37.608  61.802  1.00  0.00     0.079 A 
HETATM   17  C8  UNL     1      11.447  38.894  61.286  1.00  0.00     0.040 A 
HETATM   18  C9  UNL     1      10.281  39.607  61.419  1.00  0.00     0.039 A 
HETATM   19  C10 UNL     1       9.206  39.053  62.074  1.00  0.00     0.103 A 
HETATM   20  C11 UNL     1       9.344  37.792  62.575  1.00  0.00     0.039 A 
HETATM   21  C12 UNL     1      10.510  37.045  62.458  1.00  0.00     0.040 A 
BRANCH  19  22
HETATM   22  N2  UNL     1       7.972  39.763  62.233  1.00  0.00    -0.116 N 
HETATM   23  O7  UNL     1       7.740  40.816  61.622  1.00  0.00    -0.532 OA
HETATM   24  O8  UNL     1       7.015  39.272  63.084  1.00  0.00    -0.532 OA
ENDBRANCH  19  22
ENDBRANCH  15  16
ENDBRANCH   1  15
TORSDOF 9
ENDMDL
