MODEL 11
REMARK VINA RESULT: -8.245356287      2.341      8.204
REMARK  9 active torsions:
REMARK  status: ('A' for Active; 'I' for Inactive)
REMARK    1  A    between atoms: C1_2  and  C2_4 
REMARK    2  A    between atoms: C2_4  and  N1_5 
REMARK       I    between atoms: N1_5  and  C3_7 
REMARK    3  A    between atoms: C3_7  and  C4_9 
REMARK    4  A    between atoms: C4_9  and  C5_10 
REMARK    5  A    between atoms: C5_10  and  C6_11 
REMARK    6  A    between atoms: C6_11  and  P1_12 
REMARK    7  A    between atoms: P1_12  and  O6_15 
REMARK    8  A    between atoms: O6_15  and  C7_16 
REMARK    9  A    between atoms: C10_19  and  N2_20 
ROOT
HETATM    1  P1  UNL     1      14.746  38.675  61.367  1.00  0.00     0.254 P 
HETATM    2  O4  UNL     1      14.926  38.401  62.975  1.00  0.00    -0.646 OA
HETATM    3  O5  UNL     1      14.518  40.215  60.825  1.00  0.00    -0.646 OA
ENDROOT
BRANCH   1   4
HETATM    4  C6  UNL     1      13.143  38.326  61.376  1.00  0.00     0.136 C 
BRANCH   4   5
HETATM    5  C5  UNL     1      12.765  37.321  62.488  1.00  0.00     0.022 C 
BRANCH   5   6
HETATM    6  C4  UNL     1      11.598  36.569  61.938  1.00  0.00     0.103 C 
BRANCH   6   7
HETATM    7  C3  UNL     1      10.345  37.152  62.455  1.00  0.00     0.218 C 
HETATM    8  N1  UNL     1       9.546  38.050  61.688  1.00  0.00    -0.351 N 
ATOM      9  H1  UNL     1       9.836  38.307  60.744  1.00  0.00     0.163 HD
HETATM   10  O3  UNL     1       9.941  36.867  63.610  1.00  0.00    -0.274 OA
BRANCH   8  11
HETATM   11  C2  UNL     1       8.333  38.594  62.236  1.00  0.00     0.235 C 
BRANCH  11  12
HETATM   12  C1  UNL     1       8.279  40.052  62.009  1.00  0.00     0.191 C 
HETATM   13  O1  UNL     1       9.209  40.626  61.388  1.00  0.00    -0.647 OA
HETATM   14  O2  UNL     1       7.238  40.852  62.449  1.00  0.00    -0.647 OA
ENDBRANCH  11  12
ENDBRANCH   8  11
ENDBRANCH   6   7
ENDBRANCH   5   6
ENDBRANCH   4   5
ENDBRANCH   1   4
BRANCH   1  15
HETATM   15  O6  UNL     1      15.072  37.456  60.248  1.00  0.00    -0.270 OA
BRANCH  15  16
HETATM   16  C7  UNL     1      16.389  37.157  60.059  1.00  0.00     0.079 A 
HETATM   17  C8  UNL     1      17.064  37.732  58.985  1.00  0.00     0.040 A 
HETATM   18  C9  UNL     1      18.390  37.467  58.745  1.00  0.00     0.039 A 
HETATM   19  C10 UNL     1      19.084  36.617  59.574  1.00  0.00     0.103 A 
HETATM   20  C11 UNL     1      18.413  36.060  60.623  1.00  0.00     0.039 A 
HETATM   21  C12 UNL     1      17.072  36.307  60.893  1.00  0.00     0.040 A 
BRANCH  19  22
HETATM   22  N2  UNL     1      20.467  36.316  59.358  1.00  0.00    -0.116 N 
HETATM   23  O7  UNL     1      21.291  36.330  60.284  1.00  0.00    -0.532 OA
HETATM   24  O8  UNL     1      20.902  36.002  58.096  1.00  0.00    -0.532 OA
ENDBRANCH  19  22
ENDBRANCH  15  16
ENDBRANCH   1  15
TORSDOF 9
ENDMDL
