MODEL 9
REMARK VINA RESULT: -8.782985525      2.293      3.641
REMARK  9 active torsions:
REMARK  status: ('A' for Active; 'I' for Inactive)
REMARK    1  A    between atoms: C1_2  and  C2_4 
REMARK    2  A    between atoms: C2_4  and  N1_5 
REMARK       I    between atoms: N1_5  and  C3_7 
REMARK    3  A    between atoms: C3_7  and  C4_9 
REMARK    4  A    between atoms: C4_9  and  C5_10 
REMARK    5  A    between atoms: C5_10  and  C6_11 
REMARK    6  A    between atoms: C6_11  and  P1_12 
REMARK    7  A    between atoms: P1_12  and  O6_15 
REMARK    8  A    between atoms: O6_15  and  C7_16 
REMARK    9  A    between atoms: C10_19  and  N2_20 
ROOT
HETATM    1  P1  UNL     1      14.173  38.054  61.622  1.00  0.00     0.254 P 
HETATM    2  O4  UNL     1      14.810  38.960  60.411  1.00  0.00    -0.646 OA
HETATM    3  O5  UNL     1      14.614  38.354  63.182  1.00  0.00    -0.646 OA
ENDROOT
BRANCH   1   4
HETATM    4  C6  UNL     1      15.261  36.840  61.434  1.00  0.00     0.136 C 
BRANCH   4   5
HETATM    5  C5  UNL     1      16.485  37.271  60.593  1.00  0.00     0.022 C 
BRANCH   5   6
HETATM    6  C4  UNL     1      17.545  36.275  60.930  1.00  0.00     0.103 C 
BRANCH   6   7
HETATM    7  C3  UNL     1      17.912  35.514  59.720  1.00  0.00     0.218 C 
HETATM    8  N1  UNL     1      17.001  35.301  58.645  1.00  0.00    -0.351 N 
ATOM      9  H1  UNL     1      16.057  35.684  58.697  1.00  0.00     0.163 HD
HETATM   10  O3  UNL     1      19.062  35.022  59.605  1.00  0.00    -0.274 OA
BRANCH   8  11
HETATM   11  C2  UNL     1      17.404  34.550  57.487  1.00  0.00     0.235 C 
BRANCH  11  12
HETATM   12  C1  UNL     1      16.291  34.466  56.520  1.00  0.00     0.191 C 
HETATM   13  O1  UNL     1      15.586  33.427  56.463  1.00  0.00    -0.647 OA
HETATM   14  O2  UNL     1      15.965  35.489  55.646  1.00  0.00    -0.647 OA
ENDBRANCH  11  12
ENDBRANCH   8  11
ENDBRANCH   6   7
ENDBRANCH   5   6
ENDBRANCH   4   5
ENDBRANCH   1   4
BRANCH   1  15
HETATM   15  O6  UNL     1      12.873  37.021  61.326  1.00  0.00    -0.270 OA
BRANCH  15  16
HETATM   16  C7  UNL     1      11.645  37.486  61.698  1.00  0.00     0.079 A 
HETATM   17  C8  UNL     1      11.257  38.761  61.296  1.00  0.00     0.040 A 
HETATM   18  C9  UNL     1      10.034  39.282  61.641  1.00  0.00     0.039 A 
HETATM   19  C10 UNL     1       9.160  38.541  62.400  1.00  0.00     0.103 A 
HETATM   20  C11 UNL     1       9.550  37.293  62.788  1.00  0.00     0.039 A 
HETATM   21  C12 UNL     1      10.780  36.737  62.456  1.00  0.00     0.040 A 
BRANCH  19  22
HETATM   22  N2  UNL     1       7.875  39.047  62.780  1.00  0.00    -0.116 N 
HETATM   23  O7  UNL     1       7.202  38.515  63.676  1.00  0.00    -0.532 OA
HETATM   24  O8  UNL     1       7.367  40.150  62.143  1.00  0.00    -0.532 OA
ENDBRANCH  19  22
ENDBRANCH  15  16
ENDBRANCH   1  15
TORSDOF 9
ENDMDL
