MODEL 3
REMARK VINA RESULT: -8.978594529      1.838      2.347
REMARK  9 active torsions:
REMARK  status: ('A' for Active; 'I' for Inactive)
REMARK    1  A    between atoms: C1_2  and  C2_4 
REMARK    2  A    between atoms: C2_4  and  N1_5 
REMARK       I    between atoms: N1_5  and  C3_7 
REMARK    3  A    between atoms: C3_7  and  C4_9 
REMARK    4  A    between atoms: C4_9  and  C5_10 
REMARK    5  A    between atoms: C5_10  and  C6_11 
REMARK    6  A    between atoms: C6_11  and  P1_12 
REMARK    7  A    between atoms: P1_12  and  O6_15 
REMARK    8  A    between atoms: O6_15  and  C7_16 
REMARK    9  A    between atoms: C10_19  and  N2_20 
ROOT
HETATM    1  P1  UNL     1      13.552  37.414  62.556  1.00  0.00     0.254 P 
HETATM    2  O4  UNL     1      14.244  38.887  62.339  1.00  0.00    -0.646 OA
HETATM    3  O5  UNL     1      14.011  36.481  63.835  1.00  0.00    -0.646 OA
ENDROOT
BRANCH   1   4
HETATM    4  C6  UNL     1      14.564  36.663  61.506  1.00  0.00     0.136 C 
BRANCH   4   5
HETATM    5  C5  UNL     1      15.832  37.497  61.211  1.00  0.00     0.022 C 
BRANCH   5   6
HETATM    6  C4  UNL     1      16.957  36.520  61.302  1.00  0.00     0.103 C 
BRANCH   6   7
HETATM    7  C3  UNL     1      17.662  36.453  60.007  1.00  0.00     0.218 C 
HETATM    8  N1  UNL     1      16.972  36.469  58.759  1.00  0.00    -0.351 N 
ATOM      9  H1  UNL     1      15.953  36.530  58.744  1.00  0.00     0.163 HD
HETATM   10  O3  UNL     1      18.915  36.378  59.969  1.00  0.00    -0.274 OA
BRANCH   8  11
HETATM   11  C2  UNL     1      17.701  36.399  57.523  1.00  0.00     0.235 C 
BRANCH  11  12
HETATM   12  C1  UNL     1      17.486  37.628  56.733  1.00  0.00     0.191 C 
HETATM   13  O1  UNL     1      17.837  38.742  57.195  1.00  0.00    -0.647 OA
HETATM   14  O2  UNL     1      16.904  37.630  55.476  1.00  0.00    -0.647 OA
ENDBRANCH  11  12
ENDBRANCH   8  11
ENDBRANCH   6   7
ENDBRANCH   5   6
ENDBRANCH   4   5
ENDBRANCH   1   4
BRANCH   1  15
HETATM   15  O6  UNL     1      12.192  36.967  61.665  1.00  0.00    -0.270 OA
BRANCH  15  16
HETATM   16  C7  UNL     1      11.096  37.767  61.809  1.00  0.00     0.079 A 
HETATM   17  C8  UNL     1      10.006  37.293  62.536  1.00  0.00     0.040 A 
HETATM   18  C9  UNL     1       8.876  38.052  62.713  1.00  0.00     0.039 A 
HETATM   19  C10 UNL     1       8.801  39.312  62.168  1.00  0.00     0.103 A 
HETATM   20  C11 UNL     1       9.874  39.767  61.458  1.00  0.00     0.039 A 
HETATM   21  C12 UNL     1      11.031  39.023  61.260  1.00  0.00     0.040 A 
BRANCH  19  22
HETATM   22  N2  UNL     1       7.641  40.136  62.330  1.00  0.00    -0.116 N 
HETATM   23  O7  UNL     1       6.678  39.781  63.027  1.00  0.00    -0.532 OA
HETATM   24  O8  UNL     1       7.582  41.354  61.701  1.00  0.00    -0.532 OA
ENDBRANCH  19  22
ENDBRANCH  15  16
ENDBRANCH   1  15
TORSDOF 9
ENDMDL
