MODEL 14
REMARK VINA RESULT: -7.722179043      2.413      8.531
REMARK  9 active torsions:
REMARK  status: ('A' for Active; 'I' for Inactive)
REMARK    1  A    between atoms: C1_2  and  C2_4 
REMARK    2  A    between atoms: C2_4  and  N1_5 
REMARK       I    between atoms: N1_5  and  C3_7 
REMARK    3  A    between atoms: C3_7  and  C4_9 
REMARK    4  A    between atoms: C4_9  and  C5_10 
REMARK    5  A    between atoms: C5_10  and  C6_11 
REMARK    6  A    between atoms: C6_11  and  P1_12 
REMARK    7  A    between atoms: P1_12  and  O6_15 
REMARK    8  A    between atoms: O6_15  and  C7_16 
REMARK    9  A    between atoms: C10_19  and  N2_20 
ROOT
HETATM    1  P1  UNL     1      14.961  37.803  61.644  1.00  0.00     0.254 P 
HETATM    2  O4  UNL     1      15.334  37.026  63.041  1.00  0.00    -0.646 OA
HETATM    3  O5  UNL     1      14.457  39.371  61.694  1.00  0.00    -0.646 OA
ENDROOT
BRANCH   1   4
HETATM    4  C6  UNL     1      13.435  37.201  61.590  1.00  0.00     0.136 C 
BRANCH   4   5
HETATM    5  C5  UNL     1      12.362  38.313  61.599  1.00  0.00     0.022 C 
BRANCH   5   6
HETATM    6  C4  UNL     1      11.119  37.636  62.076  1.00  0.00     0.103 C 
BRANCH   6   7
HETATM    7  C3  UNL     1       9.940  38.435  61.688  1.00  0.00     0.218 C 
HETATM    8  N1  UNL     1       8.612  38.062  62.048  1.00  0.00    -0.351 N 
ATOM      9  H1  UNL     1       8.454  37.215  62.594  1.00  0.00     0.163 HD
HETATM   10  O3  UNL     1      10.080  39.487  61.017  1.00  0.00    -0.274 OA
BRANCH   8  11
HETATM   11  C2  UNL     1       7.494  38.872  61.645  1.00  0.00     0.235 C 
BRANCH  11  12
HETATM   12  C1  UNL     1       7.116  39.797  62.732  1.00  0.00     0.191 C 
HETATM   13  O1  UNL     1       7.313  41.031  62.603  1.00  0.00    -0.647 OA
HETATM   14  O2  UNL     1       6.541  39.379  63.920  1.00  0.00    -0.647 OA
ENDBRANCH  11  12
ENDBRANCH   8  11
ENDBRANCH   6   7
ENDBRANCH   5   6
ENDBRANCH   4   5
ENDBRANCH   1   4
BRANCH   1  15
HETATM   15  O6  UNL     1      15.353  37.119  60.154  1.00  0.00    -0.270 OA
BRANCH  15  16
HETATM   16  C7  UNL     1      16.683  37.057  59.857  1.00  0.00     0.079 A 
HETATM   17  C8  UNL     1      17.482  36.136  60.531  1.00  0.00     0.040 A 
HETATM   18  C9  UNL     1      18.827  36.030  60.274  1.00  0.00     0.039 A 
HETATM   19  C10 UNL     1      19.416  36.843  59.335  1.00  0.00     0.103 A 
HETATM   20  C11 UNL     1      18.623  37.741  58.681  1.00  0.00     0.039 A 
HETATM   21  C12 UNL     1      17.261  37.874  58.917  1.00  0.00     0.040 A 
BRANCH  19  22
HETATM   22  N2  UNL     1      20.814  36.763  59.038  1.00  0.00    -0.116 N 
HETATM   23  O7  UNL     1      21.670  37.262  59.783  1.00  0.00    -0.532 OA
HETATM   24  O8  UNL     1      21.229  36.118  57.900  1.00  0.00    -0.532 OA
ENDBRANCH  19  22
ENDBRANCH  15  16
ENDBRANCH   1  15
TORSDOF 9
ENDMDL
