MODEL 1
REMARK VINA RESULT: -9.035871818      0.000      0.000
REMARK  13 active torsions:
REMARK  status: ('A' for Active; 'I' for Inactive)
REMARK    1  A    between atoms: C1_2  and  C2_4 
REMARK    2  A    between atoms: C2_4  and  C3_5 
REMARK    3  A    between atoms: C3_5  and  C4_6 
REMARK    4  A    between atoms: C4_6  and  C5_7 
REMARK    5  A    between atoms: C5_7  and  C6_8 
REMARK    6  A    between atoms: C6_8  and  N1_9 
REMARK       I    between atoms: N1_9  and  C7_11 
REMARK    7  A    between atoms: C7_11  and  C8_13 
REMARK    8  A    between atoms: C8_13  and  C9_14 
REMARK    9  A    between atoms: C9_14  and  C10_15 
REMARK   10  A    between atoms: C10_15  and  P1_16 
REMARK   11  A    between atoms: P1_16  and  O6_19 
REMARK   12  A    between atoms: O6_19  and  C11_20 
REMARK   13  A    between atoms: C14_23  and  N2_24 
ROOT
HETATM    1  C9  UNL     1      14.859  38.876  61.241  1.00  0.00     0.022 C 
ENDROOT
BRANCH   1   2
HETATM    2  C8  UNL     1      14.385  39.808  60.142  1.00  0.00     0.103 C 
BRANCH   2   3
HETATM    3  C7  UNL     1      15.507  40.105  59.188  1.00  0.00     0.217 C 
HETATM    4  N1  UNL     1      16.425  39.082  58.852  1.00  0.00    -0.361 N 
ATOM      5  H1  UNL     1      16.305  38.159  59.267  1.00  0.00     0.162 HD
HETATM    6  O3  UNL     1      15.663  41.238  58.672  1.00  0.00    -0.274 OA
BRANCH   4   7
HETATM    7  C6  UNL     1      17.546  39.303  57.926  1.00  0.00     0.122 C 
BRANCH   7   8
HETATM    8  C5  UNL     1      18.525  38.176  57.946  1.00  0.00     0.020 C 
BRANCH   8   9
HETATM    9  C4  UNL     1      17.886  36.937  58.500  1.00  0.00     0.002 C 
BRANCH   9  10
HETATM   10  C3  UNL     1      18.702  36.418  59.651  1.00  0.00     0.010 C 
BRANCH  10  11
HETATM   11  C2  UNL     1      19.419  35.126  59.268  1.00  0.00     0.113 C 
BRANCH  11  12
HETATM   12  C1  UNL     1      20.822  35.500  58.926  1.00  0.00     0.172 C 
HETATM   13  O1  UNL     1      21.219  35.547  57.722  1.00  0.00    -0.648 OA
HETATM   14  O2  UNL     1      21.765  35.817  59.889  1.00  0.00    -0.648 OA
ENDBRANCH  11  12
ENDBRANCH  10  11
ENDBRANCH   9  10
ENDBRANCH   8   9
ENDBRANCH   7   8
ENDBRANCH   4   7
ENDBRANCH   2   3
ENDBRANCH   1   2
BRANCH   1  15
HETATM   15  C10 UNL     1      14.458  37.469  60.842  1.00  0.00     0.136 C 
BRANCH  15  16
HETATM   16  P1  UNL     1      13.630  36.695  62.153  1.00  0.00     0.254 P 
HETATM   17  O4  UNL     1      13.211  37.648  63.477  1.00  0.00    -0.646 OA
HETATM   18  O5  UNL     1      14.837  36.263  63.059  1.00  0.00    -0.646 OA
BRANCH  16  19
HETATM   19  O6  UNL     1      12.178  36.878  61.652  1.00  0.00    -0.270 OA
BRANCH  19  20
HETATM   20  C11 UNL     1      11.114  37.730  61.714  1.00  0.00     0.079 A 
HETATM   21  C12 UNL     1      11.138  38.977  61.137  1.00  0.00     0.040 A 
HETATM   22  C13 UNL     1      10.021  39.813  61.228  1.00  0.00     0.039 A 
HETATM   23  C14 UNL     1       8.871  39.422  61.892  1.00  0.00     0.103 A 
HETATM   24  C15 UNL     1       8.858  38.171  62.468  1.00  0.00     0.039 A 
HETATM   25  C16 UNL     1       9.969  37.342  62.376  1.00  0.00     0.040 A 
BRANCH  23  26
HETATM   26  N2  UNL     1       7.738  40.294  61.972  1.00  0.00    -0.116 N 
HETATM   27  O7  UNL     1       7.671  41.355  61.327  1.00  0.00    -0.532 OA
HETATM   28  O8  UNL     1       6.691  39.961  62.780  1.00  0.00    -0.532 OA
ENDBRANCH  23  26
ENDBRANCH  19  20
ENDBRANCH  16  19
ENDBRANCH  15  16
ENDBRANCH   1  15
TORSDOF 13
ENDMDL
