MODEL 16
REMARK VINA RESULT: -8.482197563      3.210      3.837
REMARK  13 active torsions:
REMARK  status: ('A' for Active; 'I' for Inactive)
REMARK    1  A    between atoms: C1_2  and  C2_4 
REMARK    2  A    between atoms: C2_4  and  C3_5 
REMARK    3  A    between atoms: C3_5  and  C4_6 
REMARK    4  A    between atoms: C4_6  and  C5_7 
REMARK    5  A    between atoms: C5_7  and  C6_8 
REMARK    6  A    between atoms: C6_8  and  N1_9 
REMARK       I    between atoms: N1_9  and  C7_11 
REMARK    7  A    between atoms: C7_11  and  C8_13 
REMARK    8  A    between atoms: C8_13  and  C9_14 
REMARK    9  A    between atoms: C9_14  and  C10_15 
REMARK   10  A    between atoms: C10_15  and  P1_16 
REMARK   11  A    between atoms: P1_16  and  O6_19 
REMARK   12  A    between atoms: O6_19  and  C11_20 
REMARK   13  A    between atoms: C14_23  and  N2_24 
ROOT
HETATM    1  C9  UNL     1      16.009  37.294  61.609  1.00  0.00     0.022 C 
ENDROOT
BRANCH   1   2
HETATM    2  C8  UNL     1      16.991  36.400  60.876  1.00  0.00     0.103 C 
BRANCH   2   3
HETATM    3  C7  UNL     1      16.984  36.709  59.405  1.00  0.00     0.217 C 
HETATM    4  N1  UNL     1      17.130  35.657  58.471  1.00  0.00    -0.361 N 
ATOM      5  H1  UNL     1      17.238  34.704  58.818  1.00  0.00     0.162 HD
HETATM    6  O3  UNL     1      16.852  37.878  58.970  1.00  0.00    -0.274 OA
BRANCH   4   7
HETATM    7  C6  UNL     1      17.133  35.887  57.019  1.00  0.00     0.122 C 
BRANCH   7   8
HETATM    8  C5  UNL     1      16.306  34.882  56.286  1.00  0.00     0.020 C 
BRANCH   8   9
HETATM    9  C4  UNL     1      16.528  35.000  54.807  1.00  0.00     0.002 C 
BRANCH   9  10
HETATM   10  C3  UNL     1      17.075  33.705  54.274  1.00  0.00     0.010 C 
BRANCH  10  11
HETATM   11  C2  UNL     1      16.793  32.559  55.240  1.00  0.00     0.113 C 
BRANCH  11  12
HETATM   12  C1  UNL     1      17.064  31.295  54.496  1.00  0.00     0.172 C 
HETATM   13  O1  UNL     1      16.129  30.637  53.946  1.00  0.00    -0.648 OA
HETATM   14  O2  UNL     1      18.338  30.769  54.358  1.00  0.00    -0.648 OA
ENDBRANCH  11  12
ENDBRANCH  10  11
ENDBRANCH   9  10
ENDBRANCH   8   9
ENDBRANCH   7   8
ENDBRANCH   4   7
ENDBRANCH   2   3
ENDBRANCH   1   2
BRANCH   1  15
HETATM   15  C10 UNL     1      14.647  37.077  60.979  1.00  0.00     0.136 C 
BRANCH  15  16
HETATM   16  P1  UNL     1      13.492  36.649  62.198  1.00  0.00     0.254 P 
HETATM   17  O4  UNL     1      13.139  37.802  63.374  1.00  0.00    -0.646 OA
HETATM   18  O5  UNL     1      14.430  36.051  63.306  1.00  0.00    -0.646 OA
BRANCH  16  19
HETATM   19  O6  UNL     1      12.205  37.102  61.469  1.00  0.00    -0.270 OA
BRANCH  19  20
HETATM   20  C11 UNL     1      11.072  37.843  61.640  1.00  0.00     0.079 A 
HETATM   21  C12 UNL     1       9.988  37.374  62.341  1.00  0.00     0.040 A 
HETATM   22  C13 UNL     1       8.850  38.172  62.489  1.00  0.00     0.039 A 
HETATM   23  C14 UNL     1       8.775  39.443  61.945  1.00  0.00     0.103 A 
HETATM   24  C15 UNL     1       9.868  39.903  61.242  1.00  0.00     0.039 A 
HETATM   25  C16 UNL     1      10.997  39.107  61.097  1.00  0.00     0.040 A 
BRANCH  23  26
HETATM   26  N2  UNL     1       7.601  40.244  62.109  1.00  0.00    -0.116 N 
HETATM   27  O7  UNL     1       6.623  39.858  62.774  1.00  0.00    -0.532 OA
HETATM   28  O8  UNL     1       7.539  41.474  61.523  1.00  0.00    -0.532 OA
ENDBRANCH  23  26
ENDBRANCH  19  20
ENDBRANCH  16  19
ENDBRANCH  15  16
ENDBRANCH   1  15
TORSDOF 13
ENDMDL
