MODEL 18
REMARK VINA RESULT: -8.476267120      3.732      4.288
REMARK  13 active torsions:
REMARK  status: ('A' for Active; 'I' for Inactive)
REMARK    1  A    between atoms: C1_2  and  C2_4 
REMARK    2  A    between atoms: C2_4  and  C3_5 
REMARK    3  A    between atoms: C3_5  and  C4_6 
REMARK    4  A    between atoms: C4_6  and  C5_7 
REMARK    5  A    between atoms: C5_7  and  C6_8 
REMARK    6  A    between atoms: C6_8  and  N1_9 
REMARK       I    between atoms: N1_9  and  C7_11 
REMARK    7  A    between atoms: C7_11  and  C8_13 
REMARK    8  A    between atoms: C8_13  and  C9_14 
REMARK    9  A    between atoms: C9_14  and  C10_15 
REMARK   10  A    between atoms: C10_15  and  P1_16 
REMARK   11  A    between atoms: P1_16  and  O6_19 
REMARK   12  A    between atoms: O6_19  and  C11_20 
REMARK   13  A    between atoms: C14_23  and  N2_24 
ROOT
HETATM    1  C9  UNL     1      16.731  37.042  61.141  1.00  0.00     0.022 C 
ENDROOT
BRANCH   1   2
HETATM    2  C8  UNL     1      17.447  35.943  60.379  1.00  0.00     0.103 C 
BRANCH   2   3
HETATM    3  C7  UNL     1      17.488  36.263  58.912  1.00  0.00     0.217 C 
HETATM    4  N1  UNL     1      16.851  35.396  57.992  1.00  0.00    -0.361 N 
ATOM      5  H1  UNL     1      16.375  34.567  58.347  1.00  0.00     0.162 HD
HETATM    6  O3  UNL     1      18.071  37.281  58.466  1.00  0.00    -0.274 OA
BRANCH   4   7
HETATM    7  C6  UNL     1      16.851  35.648  56.543  1.00  0.00     0.122 C 
BRANCH   7   8
HETATM    8  C5  UNL     1      16.061  34.627  55.793  1.00  0.00     0.020 C 
BRANCH   8   9
HETATM    9  C4  UNL     1      16.968  33.782  54.946  1.00  0.00     0.002 C 
BRANCH   9  10
HETATM   10  C3  UNL     1      16.761  32.330  55.277  1.00  0.00     0.010 C 
BRANCH  10  11
HETATM   11  C2  UNL     1      17.253  31.440  54.140  1.00  0.00     0.113 C 
BRANCH  11  12
HETATM   12  C1  UNL     1      16.551  30.132  54.286  1.00  0.00     0.172 C 
HETATM   13  O1  UNL     1      16.952  29.254  55.109  1.00  0.00    -0.648 OA
HETATM   14  O2  UNL     1      15.431  29.800  53.542  1.00  0.00    -0.648 OA
ENDBRANCH  11  12
ENDBRANCH  10  11
ENDBRANCH   9  10
ENDBRANCH   8   9
ENDBRANCH   7   8
ENDBRANCH   4   7
ENDBRANCH   2   3
ENDBRANCH   1   2
BRANCH   1  15
HETATM   15  C10 UNL     1      15.310  37.101  60.615  1.00  0.00     0.136 C 
BRANCH  15  16
HETATM   16  P1  UNL     1      14.187  36.967  61.928  1.00  0.00     0.254 P 
HETATM   17  O4  UNL     1      14.143  38.229  63.044  1.00  0.00    -0.646 OA
HETATM   18  O5  UNL     1      15.075  36.262  63.014  1.00  0.00    -0.646 OA
BRANCH  16  19
HETATM   19  O6  UNL     1      12.959  37.618  61.250  1.00  0.00    -0.270 OA
BRANCH  19  20
HETATM   20  C11 UNL     1      11.672  38.004  61.491  1.00  0.00     0.079 A 
HETATM   21  C12 UNL     1      11.178  39.214  61.069  1.00  0.00     0.040 A 
HETATM   22  C13 UNL     1       9.852  39.563  61.340  1.00  0.00     0.039 A 
HETATM   23  C14 UNL     1       9.002  38.716  62.031  1.00  0.00     0.103 A 
HETATM   24  C15 UNL     1       9.508  37.505  62.451  1.00  0.00     0.039 A 
HETATM   25  C16 UNL     1      10.826  37.161  62.180  1.00  0.00     0.040 A 
BRANCH  23  26
HETATM   26  N2  UNL     1       7.646  39.092  62.297  1.00  0.00    -0.116 N 
HETATM   27  O7  UNL     1       6.922  39.615  61.432  1.00  0.00    -0.532 OA
HETATM   28  O8  UNL     1       7.120  38.875  63.536  1.00  0.00    -0.532 OA
ENDBRANCH  23  26
ENDBRANCH  19  20
ENDBRANCH  16  19
ENDBRANCH  15  16
ENDBRANCH   1  15
TORSDOF 13
ENDMDL
