MODEL 1
REMARK VINA RESULT: -5.878627974      0.000      0.000
REMARK  8 active torsions:
REMARK  status: ('A' for Active; 'I' for Inactive)
REMARK    1  A    between atoms: O1_2  and  C2_3 
REMARK    2  A    between atoms: C8_9  and  O2_10 
REMARK    3  A    between atoms: C10_12  and  O3_13 
REMARK    4  A    between atoms: C16_20  and  O4_21 
REMARK    5  A    between atoms: O4_21  and  C17_22 
REMARK    6  A    between atoms: C18_25  and  O6_26 
REMARK    7  A    between atoms: C25_33  and  O7_34 
REMARK    8  A    between atoms: C29_42  and  O9_43 
ROOT
HETATM    1  C2  UNL     1      45.761 -46.338  66.690  1.00  0.00     0.127 A 
HETATM    2  C3  UNL     1      45.486 -47.636  66.987  1.00  0.00     0.015 A 
HETATM    3  C4  UNL     1      46.398 -48.124  68.059  1.00  0.00     0.049 C 
HETATM    4  C5  UNL     1      45.818 -48.249  69.439  1.00  0.00    -0.012 C 
HETATM    5  C6  UNL     1      46.754 -47.876  70.540  1.00  0.00     0.010 C 
HETATM    6  C7  UNL     1      44.442 -47.655  69.574  1.00  0.00     0.039 C 
HETATM    7  C8  UNL     1      43.894 -47.733  70.968  1.00  0.00     0.150 C 
HETATM    8  C10 UNL     1      43.005 -46.578  71.339  1.00  0.00     0.154 C 
HETATM    9  C11 UNL     1      41.551 -46.916  71.426  1.00  0.00     0.035 C 
HETATM   10  C12 UNL     1      41.148 -47.183  72.901  1.00  0.00     0.017 C 
HETATM   11  C13 UNL     1      40.766 -45.736  71.011  1.00  0.00    -0.014 C 
HETATM   12  C14 UNL     1      40.263 -45.399  69.873  1.00  0.00    -0.051 C 
HETATM   13  C15 UNL     1      39.498 -44.079  69.833  1.00  0.00     0.046 C 
HETATM   14  C16 UNL     1      40.333 -46.113  68.541  1.00  0.00     0.218 C 
HETATM   15  C18 UNL     1      41.070 -45.271  67.546  1.00  0.00     0.079 C 
HETATM   16  C20 UNL     1      40.556 -45.176  66.179  1.00  0.00     0.035 C 
HETATM   17  C21 UNL     1      39.983 -46.028  65.378  1.00  0.00     0.003 C 
HETATM   18  C22 UNL     1      39.615 -47.415  65.480  1.00  0.00     0.011 C 
HETATM   19  C23 UNL     1      40.227 -48.517  65.117  1.00  0.00    -0.011 C 
HETATM   20  C24 UNL     1      39.468 -49.823  65.424  1.00  0.00     0.052 C 
HETATM   21  C25 UNL     1      41.475 -48.745  64.418  1.00  0.00     0.146 C 
HETATM   22  N2  UNL     1      42.649 -47.976  64.335  1.00  0.00    -0.334 N 
ATOM     23  H2  UNL     1      42.790 -47.598  63.398  1.00  0.00     0.168 HD
HETATM   24  C26 UNL     1      43.695 -47.588  65.230  1.00  0.00     0.072 A 
HETATM   25  C27 UNL     1      44.025 -46.290  64.983  1.00  0.00     0.090 A 
HETATM   26  C28 UNL     1      45.068 -45.570  65.682  1.00  0.00     0.207 A 
HETATM   27  O8  UNL     1      45.350 -44.367  65.432  1.00  0.00    -0.285 OA
HETATM   28  C29 UNL     1      44.426 -48.320  66.258  1.00  0.00     0.101 A 
ENDROOT
BRANCH  14  29
HETATM   29  O4  UNL     1      40.923 -47.372  68.640  1.00  0.00    -0.290 OA
BRANCH  29  30
HETATM   30  C17 UNL     1      40.241 -48.587  68.693  1.00  0.00     0.373 C 
HETATM   31  N1  UNL     1      38.850 -48.527  69.004  1.00  0.00    -0.032 NA
HETATM   32  O5  UNL     1      40.860 -49.632  68.474  1.00  0.00    -0.242 OA
ENDBRANCH  29  30
ENDBRANCH  14  29
BRANCH  15  33
HETATM   33  O6  UNL     1      42.469 -45.420  67.626  1.00  0.00    -0.357 OA
HETATM   34  C19 UNL     1      43.059 -44.458  68.443  1.00  0.00     0.209 C 
ENDBRANCH  15  33
BRANCH   8  35
HETATM   35  O3  UNL     1      43.382 -46.108  72.596  1.00  0.00    -0.392 OA
ATOM     36  H3  UNL     1      42.999 -45.249  72.728  1.00  0.00     0.210 HD
ENDBRANCH   8  35
BRANCH   7  37
HETATM   37  O2  UNL     1      43.230 -48.885  71.261  1.00  0.00    -0.388 OA
HETATM   38  C9  UNL     1      43.864 -49.771  72.088  1.00  0.00     0.202 C 
ENDBRANCH   7  37
BRANCH  21  39
HETATM   39  O7  UNL     1      41.565 -49.863  63.719  1.00  0.00    -0.346 OA
ATOM     40  H7  UNL     1      41.079 -50.611  64.048  1.00  0.00     0.219 HD
ENDBRANCH  21  39
BRANCH  28  41
HETATM   41  O9  UNL     1      44.131 -49.601  66.533  1.00  0.00    -0.358 OA
ATOM     42  H9  UNL     1      43.229 -49.867  66.671  1.00  0.00     0.217 HD
ENDBRANCH  28  41
BRANCH   1  43
HETATM   43  O1  UNL     1      46.793 -45.659  67.400  1.00  0.00    -0.351 OA
HETATM   44  C1  UNL     1      48.048 -45.522  66.717  1.00  0.00     0.210 C 
ENDBRANCH   1  43
TORSDOF 8
ENDMDL
