MODEL 2
REMARK VINA RESULT: -5.850117483      2.163      5.860
REMARK  8 active torsions:
REMARK  status: ('A' for Active; 'I' for Inactive)
REMARK    1  A    between atoms: O1_2  and  C2_3 
REMARK    2  A    between atoms: C8_9  and  O2_10 
REMARK    3  A    between atoms: C10_12  and  O3_13 
REMARK    4  A    between atoms: C16_20  and  O4_21 
REMARK    5  A    between atoms: O4_21  and  C17_22 
REMARK    6  A    between atoms: C18_25  and  O6_26 
REMARK    7  A    between atoms: C25_33  and  O7_34 
REMARK    8  A    between atoms: C29_42  and  O9_43 
ROOT
HETATM    1  C2  UNL     1      39.567 -46.684  69.693  1.00  0.00     0.127 A 
HETATM    2  C3  UNL     1      39.889 -45.497  69.112  1.00  0.00     0.015 A 
HETATM    3  C4  UNL     1      39.996 -44.429  70.144  1.00  0.00     0.049 C 
HETATM    4  C5  UNL     1      41.381 -43.997  70.532  1.00  0.00    -0.012 C 
HETATM    5  C6  UNL     1      41.548 -43.681  71.981  1.00  0.00     0.010 C 
HETATM    6  C7  UNL     1      42.469 -44.868  69.964  1.00  0.00     0.039 C 
HETATM    7  C8  UNL     1      43.845 -44.464  70.402  1.00  0.00     0.150 C 
HETATM    8  C10 UNL     1      44.802 -45.616  70.549  1.00  0.00     0.154 C 
HETATM    9  C11 UNL     1      45.849 -45.693  69.486  1.00  0.00     0.035 C 
HETATM   10  C12 UNL     1      47.171 -45.051  69.985  1.00  0.00     0.017 C 
HETATM   11  C13 UNL     1      46.170 -47.114  69.240  1.00  0.00    -0.014 C 
HETATM   12  C14 UNL     1      45.721 -47.955  68.372  1.00  0.00    -0.051 C 
HETATM   13  C15 UNL     1      46.307 -49.364  68.428  1.00  0.00     0.046 C 
HETATM   14  C16 UNL     1      44.671 -47.765  67.301  1.00  0.00     0.218 C 
HETATM   15  C18 UNL     1      43.499 -48.658  67.568  1.00  0.00     0.079 C 
HETATM   16  C20 UNL     1      42.879 -49.366  66.447  1.00  0.00     0.035 C 
HETATM   17  C21 UNL     1      42.646 -49.048  65.206  1.00  0.00     0.003 C 
HETATM   18  C22 UNL     1      42.886 -47.876  64.405  1.00  0.00     0.011 C 
HETATM   19  C23 UNL     1      42.131 -46.847  64.104  1.00  0.00    -0.011 C 
HETATM   20  C24 UNL     1      42.794 -45.786  63.203  1.00  0.00     0.052 C 
HETATM   21  C25 UNL     1      40.750 -46.537  64.411  1.00  0.00     0.146 C 
HETATM   22  N2  UNL     1      39.926 -46.923  65.483  1.00  0.00    -0.334 N 
ATOM     23  H2  UNL     1      39.179 -47.548  65.182  1.00  0.00     0.168 HD
HETATM   24  C26 UNL     1      39.869 -46.661  66.887  1.00  0.00     0.072 A 
HETATM   25  C27 UNL     1      39.546 -47.814  67.536  1.00  0.00     0.090 A 
HETATM   26  C28 UNL     1      39.372 -47.918  68.969  1.00  0.00     0.207 A 
HETATM   27  O8  UNL     1      39.074 -49.001  69.542  1.00  0.00    -0.285 OA
HETATM   28  C29 UNL     1      40.055 -45.441  67.665  1.00  0.00     0.101 A 
ENDROOT
BRANCH  14  29
HETATM   29  O4  UNL     1      44.253 -46.439  67.191  1.00  0.00    -0.290 OA
BRANCH  29  30
HETATM   30  C17 UNL     1      44.676 -45.531  66.221  1.00  0.00     0.373 C 
HETATM   31  N1  UNL     1      45.918 -45.814  65.578  1.00  0.00    -0.032 NA
HETATM   32  O5  UNL     1      43.972 -44.549  65.973  1.00  0.00    -0.242 OA
ENDBRANCH  29  30
ENDBRANCH  14  29
BRANCH  15  33
HETATM   33  O6  UNL     1      42.578 -48.103  68.478  1.00  0.00    -0.357 OA
HETATM   34  C19 UNL     1      42.734 -48.610  69.766  1.00  0.00     0.209 C 
ENDBRANCH  15  33
BRANCH   8  35
HETATM   35  O3  UNL     1      45.473 -45.489  71.764  1.00  0.00    -0.392 OA
ATOM     36  H3  UNL     1      46.320 -45.913  71.690  1.00  0.00     0.210 HD
ENDBRANCH   8  35
BRANCH   7  37
HETATM   37  O2  UNL     1      44.442 -43.519  69.625  1.00  0.00    -0.388 OA
HETATM   38  C9  UNL     1      44.750 -42.329  70.225  1.00  0.00     0.202 C 
ENDBRANCH   7  37
BRANCH  21  39
HETATM   39  O7  UNL     1      40.114 -45.757  63.553  1.00  0.00    -0.346 OA
ATOM     40  H7  UNL     1      39.201 -45.575  63.741  1.00  0.00     0.219 HD
ENDBRANCH  21  39
BRANCH  28  41
HETATM   41  O9  UNL     1      40.376 -44.283  67.064  1.00  0.00    -0.358 OA
ATOM     42  H9  UNL     1      40.481 -44.245  66.120  1.00  0.00     0.217 HD
ENDBRANCH  28  41
BRANCH   1  43
HETATM   43  O1  UNL     1      39.406 -46.750  71.107  1.00  0.00    -0.351 OA
HETATM   44  C1  UNL     1      38.054 -46.796  71.590  1.00  0.00     0.210 C 
ENDBRANCH   1  43
TORSDOF 8
ENDMDL
