MODEL 3
REMARK VINA RESULT: -5.632562033      1.785      2.303
REMARK  8 active torsions:
REMARK  status: ('A' for Active; 'I' for Inactive)
REMARK    1  A    between atoms: O1_2  and  C2_3 
REMARK    2  A    between atoms: C8_9  and  O2_10 
REMARK    3  A    between atoms: C10_12  and  O3_13 
REMARK    4  A    between atoms: C16_20  and  O4_21 
REMARK    5  A    between atoms: O4_21  and  C17_22 
REMARK    6  A    between atoms: C18_25  and  O6_26 
REMARK    7  A    between atoms: C25_33  and  O7_34 
REMARK    8  A    between atoms: C29_42  and  O9_43 
ROOT
HETATM    1  C2  UNL     1      44.824 -46.594  64.999  1.00  0.00     0.127 A 
HETATM    2  C3  UNL     1      45.064 -47.482  66.001  1.00  0.00     0.015 A 
HETATM    3  C4  UNL     1      46.295 -47.098  66.747  1.00  0.00     0.049 C 
HETATM    4  C5  UNL     1      46.102 -46.457  68.091  1.00  0.00    -0.012 C 
HETATM    5  C6  UNL     1      47.077 -45.372  68.405  1.00  0.00     0.010 C 
HETATM    6  C7  UNL     1      44.671 -46.105  68.394  1.00  0.00     0.039 C 
HETATM    7  C8  UNL     1      44.494 -45.414  69.714  1.00  0.00     0.150 C 
HETATM    8  C10 UNL     1      43.376 -44.408  69.731  1.00  0.00     0.154 C 
HETATM    9  C11 UNL     1      42.171 -44.831  70.507  1.00  0.00     0.035 C 
HETATM   10  C12 UNL     1      42.208 -44.221  71.934  1.00  0.00     0.017 C 
HETATM   11  C13 UNL     1      40.970 -44.259  69.865  1.00  0.00    -0.014 C 
HETATM   12  C14 UNL     1      40.151 -44.744  68.996  1.00  0.00    -0.051 C 
HETATM   13  C15 UNL     1      39.003 -43.834  68.564  1.00  0.00     0.046 C 
HETATM   14  C16 UNL     1      40.162 -46.091  68.309  1.00  0.00     0.218 C 
HETATM   15  C18 UNL     1      40.347 -45.913  66.834  1.00  0.00     0.079 C 
HETATM   16  C20 UNL     1      39.547 -46.727  65.917  1.00  0.00     0.035 C 
HETATM   17  C21 UNL     1      39.129 -47.959  65.948  1.00  0.00     0.003 C 
HETATM   18  C22 UNL     1      39.270 -49.048  66.879  1.00  0.00     0.011 C 
HETATM   19  C23 UNL     1      40.118 -50.046  66.942  1.00  0.00    -0.011 C 
HETATM   20  C24 UNL     1      39.918 -51.004  68.134  1.00  0.00     0.052 C 
HETATM   21  C25 UNL     1      41.188 -50.464  66.061  1.00  0.00     0.146 C 
HETATM   22  N2  UNL     1      41.995 -49.738  65.168  1.00  0.00    -0.334 N 
ATOM     23  H2  UNL     1      41.798 -49.977  64.197  1.00  0.00     0.168 HD
HETATM   24  C26 UNL     1      43.022 -48.748  65.275  1.00  0.00     0.072 A 
HETATM   25  C27 UNL     1      42.844 -47.822  64.292  1.00  0.00     0.090 A 
HETATM   26  C28 UNL     1      43.716 -46.687  64.078  1.00  0.00     0.207 A 
HETATM   27  O8  UNL     1      43.524 -45.846  63.159  1.00  0.00    -0.285 OA
HETATM   28  C29 UNL     1      44.158 -48.608  66.180  1.00  0.00     0.101 A 
ENDROOT
BRANCH  14  29
HETATM   29  O4  UNL     1      41.141 -46.943  68.820  1.00  0.00    -0.290 OA
BRANCH  29  30
HETATM   30  C17 UNL     1      40.960 -47.864  69.850  1.00  0.00     0.373 C 
HETATM   31  N1  UNL     1      39.626 -48.039  70.324  1.00  0.00    -0.032 NA
HETATM   32  O5  UNL     1      41.940 -48.469  70.292  1.00  0.00    -0.242 OA
ENDBRANCH  29  30
ENDBRANCH  14  29
BRANCH  15  33
HETATM   33  O6  UNL     1      41.699 -45.783  66.458  1.00  0.00    -0.357 OA
HETATM   34  C19 UNL     1      41.992 -44.514  65.963  1.00  0.00     0.209 C 
ENDBRANCH  15  33
BRANCH   8  35
HETATM   35  O3  UNL     1      43.840 -43.233  70.321  1.00  0.00    -0.392 OA
ATOM     36  H3  UNL     1      44.524 -42.866  69.774  1.00  0.00     0.210 HD
ENDBRANCH   8  35
BRANCH   7  37
HETATM   37  O2  UNL     1      44.328 -46.245  70.780  1.00  0.00    -0.388 OA
HETATM   38  C9  UNL     1      45.348 -46.295  71.690  1.00  0.00     0.202 C 
ENDBRANCH   7  37
BRANCH  21  39
HETATM   39  O7  UNL     1      41.490 -51.751  66.065  1.00  0.00    -0.346 OA
ATOM     40  H7  UNL     1      41.332 -52.228  65.258  1.00  0.00     0.219 HD
ENDBRANCH  21  39
BRANCH  28  41
HETATM   41  O9  UNL     1      44.369 -49.499  67.163  1.00  0.00    -0.358 OA
ATOM     42  H9  UNL     1      45.062 -50.146  67.084  1.00  0.00     0.217 HD
ENDBRANCH  28  41
BRANCH   1  43
HETATM   43  O1  UNL     1      45.702 -45.487  64.818  1.00  0.00    -0.351 OA
HETATM   44  C1  UNL     1      46.667 -45.608  63.762  1.00  0.00     0.210 C 
ENDBRANCH   1  43
TORSDOF 8
ENDMDL
