MODEL 1
REMARK VINA RESULT: -8.310514130      0.000      0.000
REMARK  6 active torsions:
REMARK  status: ('A' for Active; 'I' for Inactive)
REMARK    1  A    between atoms: N4_13  and  C6_14 
REMARK    2  A    between atoms: C7_16  and  C8_17 
REMARK    3  A    between atoms: C8_17  and  O3_18 
REMARK    4  A    between atoms: O3_18  and  P1_19 
REMARK    5  A    between atoms: C9_23  and  O7_24 
REMARK    6  A    between atoms: C10_26  and  O8_27 
ROOT
HETATM    1  C6  UNL     1      41.208  34.952  60.901  1.00  0.00     0.262 C 
HETATM    2  O2  UNL     1      42.203  34.962  61.871  1.00  0.00    -0.353 OA
HETATM    3  C7  UNL     1      41.561  35.181  63.068  1.00  0.00     0.180 C 
HETATM    4  C9  UNL     1      40.161  34.642  62.947  1.00  0.00     0.182 C 
HETATM    5  C10 UNL     1      40.182  34.040  61.552  1.00  0.00     0.198 C 
ENDROOT
BRANCH   1   6
HETATM    6  N4  UNL     1      41.690  34.420  59.649  1.00  0.00    -0.297 N 
HETATM    7  C3  UNL     1      41.274  34.866  58.450  1.00  0.00     0.144 A 
HETATM    8  N2  UNL     1      40.403  35.813  58.042  1.00  0.00    -0.336 N 
HETATM    9  C4  UNL     1      41.903  34.175  57.423  1.00  0.00     0.146 A 
HETATM   10  C2  UNL     1      40.156  36.074  56.757  1.00  0.00     0.185 A 
ATOM     11  H2  UNL     1      39.909  36.356  58.751  1.00  0.00     0.168 HD
HETATM   12  N1  UNL     1      40.771  35.398  55.777  1.00  0.00    -0.318 N 
HETATM   13  C1  UNL     1      41.650  34.444  56.103  1.00  0.00     0.277 A 
ATOM     14  H1  UNL     1      40.572  35.608  54.798  1.00  0.00     0.169 HD
HETATM   15  O1  UNL     1      42.225  33.813  55.193  1.00  0.00    -0.266 OA
HETATM   16  N3  UNL     1      42.719  33.291  58.067  1.00  0.00    -0.345 N 
HETATM   17  C5  UNL     1      42.574  33.456  59.395  1.00  0.00     0.188 A 
ATOM     18  H3  UNL     1      43.337  32.616  57.617  1.00  0.00     0.167 HD
ENDBRANCH   1   6
BRANCH   5  19
HETATM   19  O8  UNL     1      38.959  34.095  60.928  1.00  0.00    -0.388 OA
ATOM     20  H8  UNL     1      38.854  34.881  60.404  1.00  0.00     0.210 HD
ENDBRANCH   5  19
BRANCH   3  21
HETATM   21  C8  UNL     1      42.260  34.386  64.151  1.00  0.00     0.217 C 
BRANCH  21  22
HETATM   22  O3  UNL     1      41.554  34.491  65.321  1.00  0.00    -0.280 OA
BRANCH  22  23
HETATM   23  P1  UNL     1      41.976  35.947  66.037  1.00  0.00     0.422 P 
HETATM   24  O4  UNL     1      43.399  35.363  66.056  1.00  0.00    -0.617 OA
HETATM   25  O5  UNL     1      41.823  36.096  67.644  1.00  0.00    -0.617 OA
HETATM   26  O6  UNL     1      40.565  36.456  65.714  1.00  0.00    -0.617 OA
ENDBRANCH  22  23
ENDBRANCH  21  22
ENDBRANCH   3  21
BRANCH   4  27
HETATM   27  O7  UNL     1      39.240  35.704  62.892  1.00  0.00    -0.390 OA
ATOM     28  H7  UNL     1      38.799  35.794  63.729  1.00  0.00     0.210 HD
ENDBRANCH   4  27
TORSDOF 6
ENDMDL
