MODEL 2
REMARK VINA RESULT: -7.871864549      2.635      3.008
REMARK  6 active torsions:
REMARK  status: ('A' for Active; 'I' for Inactive)
REMARK    1  A    between atoms: N4_13  and  C6_14 
REMARK    2  A    between atoms: C7_16  and  C8_17 
REMARK    3  A    between atoms: C8_17  and  O3_18 
REMARK    4  A    between atoms: O3_18  and  P1_19 
REMARK    5  A    between atoms: C9_23  and  O7_24 
REMARK    6  A    between atoms: C10_26  and  O8_27 
ROOT
HETATM    1  C6  UNL     1      42.166  36.089  60.552  1.00  0.00     0.262 C 
HETATM    2  O2  UNL     1      43.302  36.780  60.956  1.00  0.00    -0.353 OA
HETATM    3  C7  UNL     1      43.021  37.264  62.213  1.00  0.00     0.180 C 
HETATM    4  C9  UNL     1      42.022  36.338  62.853  1.00  0.00     0.182 C 
HETATM    5  C10 UNL     1      41.877  35.260  61.792  1.00  0.00     0.198 C 
ENDROOT
BRANCH   1   6
HETATM    6  N4  UNL     1      42.427  35.264  59.397  1.00  0.00    -0.297 N 
HETATM    7  C3  UNL     1      41.765  35.395  58.232  1.00  0.00     0.144 A 
HETATM    8  N2  UNL     1      40.781  36.206  57.789  1.00  0.00    -0.336 N 
HETATM    9  C4  UNL     1      42.222  34.473  57.300  1.00  0.00     0.146 A 
HETATM   10  C2  UNL     1      40.279  36.137  56.554  1.00  0.00     0.185 A 
ATOM     11  H2  UNL     1      40.404  36.906  58.428  1.00  0.00     0.168 HD
HETATM   12  N1  UNL     1      40.731  35.241  55.666  1.00  0.00    -0.318 N 
HETATM   13  C1  UNL     1      41.706  34.403  56.032  1.00  0.00     0.277 A 
ATOM     14  H1  UNL     1      40.336  35.200  54.726  1.00  0.00     0.169 HD
HETATM   15  O1  UNL     1      42.129  33.568  55.208  1.00  0.00    -0.266 OA
HETATM   16  N3  UNL     1      43.193  33.782  57.965  1.00  0.00    -0.345 N 
HETATM   17  C5  UNL     1      43.297  34.272  59.214  1.00  0.00     0.188 A 
ATOM     18  H3  UNL     1      43.749  33.019  57.578  1.00  0.00     0.167 HD
ENDBRANCH   1   6
BRANCH   5  19
HETATM   19  O8  UNL     1      40.623  34.699  61.768  1.00  0.00    -0.388 OA
ATOM     20  H8  UNL     1      40.068  35.019  62.471  1.00  0.00     0.210 HD
ENDBRANCH   5  19
BRANCH   3  21
HETATM   21  C8  UNL     1      44.283  37.215  63.049  1.00  0.00     0.217 C 
BRANCH  21  22
HETATM   22  O3  UNL     1      45.169  38.157  62.596  1.00  0.00    -0.280 OA
BRANCH  22  23
HETATM   23  P1  UNL     1      46.132  38.611  63.891  1.00  0.00     0.422 P 
HETATM   24  O4  UNL     1      45.984  37.143  64.331  1.00  0.00    -0.617 OA
HETATM   25  O5  UNL     1      45.422  39.260  65.196  1.00  0.00    -0.617 OA
HETATM   26  O6  UNL     1      46.370  39.948  63.180  1.00  0.00    -0.617 OA
ENDBRANCH  22  23
ENDBRANCH  21  22
ENDBRANCH   3  21
BRANCH   4  27
HETATM   27  O7  UNL     1      40.766  36.968  62.934  1.00  0.00    -0.390 OA
ATOM     28  H7  UNL     1      40.306  36.676  63.712  1.00  0.00     0.210 HD
ENDBRANCH   4  27
TORSDOF 6
ENDMDL
