MODEL 3
REMARK VINA RESULT: -7.850720697      1.613      1.934
REMARK  6 active torsions:
REMARK  status: ('A' for Active; 'I' for Inactive)
REMARK    1  A    between atoms: N4_13  and  C6_14 
REMARK    2  A    between atoms: C7_16  and  C8_17 
REMARK    3  A    between atoms: C8_17  and  O3_18 
REMARK    4  A    between atoms: O3_18  and  P1_19 
REMARK    5  A    between atoms: C9_23  and  O7_24 
REMARK    6  A    between atoms: C10_26  and  O8_27 
ROOT
HETATM    1  C6  UNL     1      42.084  36.475  61.228  1.00  0.00     0.262 C 
HETATM    2  O2  UNL     1      43.046  36.786  62.182  1.00  0.00    -0.353 OA
HETATM    3  C7  UNL     1      42.390  36.793  63.391  1.00  0.00     0.180 C 
HETATM    4  C9  UNL     1      41.220  35.851  63.288  1.00  0.00     0.182 C 
HETATM    5  C10 UNL     1      41.398  35.290  61.887  1.00  0.00     0.198 C 
ENDROOT
BRANCH   1   6
HETATM    6  N4  UNL     1      42.682  36.121  59.963  1.00  0.00    -0.297 N 
HETATM    7  C3  UNL     1      41.983  36.034  58.816  1.00  0.00     0.144 A 
HETATM    8  N2  UNL     1      40.689  36.215  58.480  1.00  0.00    -0.336 N 
HETATM    9  C4  UNL     1      42.813  35.676  57.761  1.00  0.00     0.146 A 
HETATM   10  C2  UNL     1      40.229  36.064  57.236  1.00  0.00     0.185 A 
ATOM     11  H2  UNL     1      40.030  36.480  59.213  1.00  0.00     0.168 HD
HETATM   12  N1  UNL     1      41.042  35.718  56.229  1.00  0.00    -0.318 N 
HETATM   13  C1  UNL     1      42.340  35.522  56.484  1.00  0.00     0.277 A 
ATOM     14  H1  UNL     1      40.676  35.606  55.283  1.00  0.00     0.169 HD
HETATM   15  O1  UNL     1      43.100  35.200  55.549  1.00  0.00    -0.266 OA
HETATM   16  N3  UNL     1      44.045  35.553  58.334  1.00  0.00    -0.345 N 
HETATM   17  C5  UNL     1      43.942  35.823  59.648  1.00  0.00     0.188 A 
ATOM     18  H3  UNL     1      44.904  35.298  57.846  1.00  0.00     0.167 HD
ENDBRANCH   1   6
BRANCH   5  19
HETATM   19  O8  UNL     1      40.205  34.971  61.284  1.00  0.00    -0.388 OA
ATOM     20  H8  UNL     1      39.455  35.190  61.825  1.00  0.00     0.210 HD
ENDBRANCH   5  19
BRANCH   3  21
HETATM   21  C8  UNL     1      43.319  36.245  64.454  1.00  0.00     0.217 C 
BRANCH  21  22
HETATM   22  O3  UNL     1      42.933  36.715  65.683  1.00  0.00    -0.280 OA
BRANCH  22  23
HETATM   23  P1  UNL     1      42.801  35.396  66.710  1.00  0.00     0.422 P 
HETATM   24  O4  UNL     1      41.838  36.293  67.508  1.00  0.00    -0.617 OA
HETATM   25  O5  UNL     1      43.899  35.219  67.890  1.00  0.00    -0.617 OA
HETATM   26  O6  UNL     1      43.577  34.576  65.672  1.00  0.00    -0.617 OA
ENDBRANCH  22  23
ENDBRANCH  21  22
ENDBRANCH   3  21
BRANCH   4  27
HETATM   27  O7  UNL     1      40.017  36.581  63.259  1.00  0.00    -0.390 OA
ATOM     28  H7  UNL     1      40.032  37.257  63.926  1.00  0.00     0.210 HD
ENDBRANCH   4  27
TORSDOF 6
ENDMDL
