MODEL 4
REMARK VINA RESULT: -8.669846178      4.477      7.809
REMARK  10 active torsions:
REMARK  status: ('A' for Active; 'I' for Inactive)
REMARK    1  A    between atoms: N5_13  and  C6_14 
REMARK    2  A    between atoms: C7_16  and  C8_17 
REMARK    3  A    between atoms: C8_17  and  O2_18 
REMARK    4  A    between atoms: O2_18  and  P1_19 
REMARK    5  A    between atoms: P1_19  and  O5_22 
REMARK    6  A    between atoms: O5_22  and  P2_23 
REMARK    7  A    between atoms: P2_23  and  O8_26 
REMARK    8  A    between atoms: O8_26  and  P3_27 
REMARK    9  A    between atoms: C9_31  and  O12_32 
REMARK   10  A    between atoms: C10_34  and  O13_35 
ROOT
HETATM    1  C6  UNL     1      76.098 -12.686   4.022  1.00  0.00     0.159 C 
HETATM    2  O1  UNL     1      75.028 -11.812   3.764  1.00  0.00    -0.326 OA
HETATM    3  C7  UNL     1      73.965 -12.607   3.886  1.00  0.00     0.186 C 
HETATM    4  C9  UNL     1      74.325 -14.004   4.407  1.00  0.00     0.186 C 
HETATM    5  C10 UNL     1      75.614 -13.536   5.142  1.00  0.00     0.224 C 
ENDROOT
BRANCH   3   6
HETATM    6  C8  UNL     1      72.690 -12.264   4.543  1.00  0.00     0.216 C 
BRANCH   6   7
HETATM    7  O2  UNL     1      72.841 -11.038   5.237  1.00  0.00    -0.287 OA
BRANCH   7   8
HETATM    8  P1  UNL     1      71.594 -11.183   6.449  1.00  0.00     0.417 P 
HETATM    9  O3  UNL     1      70.453 -10.388   6.065  1.00  0.00    -0.624 OA
HETATM   10  O4  UNL     1      71.226 -12.916   6.309  1.00  0.00    -0.624 OA
BRANCH   8  11
HETATM   11  O5  UNL     1      72.194 -10.997   7.997  1.00  0.00    -0.180 OA
BRANCH  11  12
HETATM   12  P2  UNL     1      73.412  -9.758   7.954  1.00  0.00     0.428 P 
HETATM   13  O6  UNL     1      72.807  -8.612   7.200  1.00  0.00    -0.624 OA
HETATM   14  O7  UNL     1      74.841 -10.280   7.285  1.00  0.00    -0.624 OA
BRANCH  12  15
HETATM   15  O8  UNL     1      73.645  -9.267   9.578  1.00  0.00    -0.173 OA
BRANCH  15  16
HETATM   16  P3  UNL     1      75.149  -8.543   9.735  1.00  0.00     0.431 P 
HETATM   17  O9  UNL     1      76.273  -9.518   9.699  1.00  0.00    -0.616 OA
HETATM   18  O10 UNL     1      75.323  -7.455   8.440  1.00  0.00    -0.616 OA
HETATM   19  O11 UNL     1      75.151  -7.704  11.210  1.00  0.00    -0.616 OA
ENDBRANCH  15  16
ENDBRANCH  12  15
ENDBRANCH  11  12
ENDBRANCH   8  11
ENDBRANCH   7   8
ENDBRANCH   6   7
ENDBRANCH   3   6
BRANCH   4  20
HETATM   20  O12 UNL     1      74.632 -14.796   3.348  1.00  0.00    -0.390 OA
ATOM     21  H12 UNL     1      75.565 -14.970   3.360  1.00  0.00     0.210 HD
ENDBRANCH   4  20
BRANCH   1  22
HETATM   22  N5  UNL     1      77.382 -12.183   4.000  1.00  0.00    -0.273 N 
HETATM   23  C3  UNL     1      77.994 -11.507   4.985  1.00  0.00     0.146 A 
HETATM   24  N3  UNL     1      77.504 -11.005   6.108  1.00  0.00    -0.336 N 
HETATM   25  C4  UNL     1      79.313 -11.351   4.714  1.00  0.00     0.120 A 
HETATM   26  C2  UNL     1      78.320 -10.354   6.956  1.00  0.00     0.183 A 
ATOM     27  H3  UNL     1      76.514 -11.110   6.329  1.00  0.00     0.168 HD
HETATM   28  N2  UNL     1      79.634 -10.199   6.710  1.00  0.00    -0.339 N 
HETATM   29  C1  UNL     1      80.145 -10.696   5.585  1.00  0.00     0.148 A 
ATOM     30  H2  UNL     1      80.230  -9.708   7.376  1.00  0.00     0.167 HD
HETATM   31  N1  UNL     1      81.546 -10.655   5.401  1.00  0.00    -0.080 NA
HETATM   32  N4  UNL     1      79.515 -11.933   3.516  1.00  0.00    -0.346 N 
HETATM   33  C5  UNL     1      78.340 -12.431   3.087  1.00  0.00     0.192 A 
ATOM     34  H4  UNL     1      80.404 -11.987   3.019  1.00  0.00     0.167 HD
ENDBRANCH   1  22
BRANCH   5  35
HETATM   35  O13 UNL     1      76.281 -14.738   5.338  1.00  0.00    -0.385 OA
ATOM     36  H13 UNL     1      75.754 -15.527   5.291  1.00  0.00     0.210 HD
ENDBRANCH   5  35
TORSDOF 10
ENDMDL
