MODEL 2
REMARK VINA RESULT: -8.767330862      6.428      8.674
REMARK  10 active torsions:
REMARK  status: ('A' for Active; 'I' for Inactive)
REMARK    1  A    between atoms: N5_13  and  C6_14 
REMARK    2  A    between atoms: C7_16  and  C8_17 
REMARK    3  A    between atoms: C8_17  and  O2_18 
REMARK    4  A    between atoms: O2_18  and  P1_19 
REMARK    5  A    between atoms: P1_19  and  O5_22 
REMARK    6  A    between atoms: O5_22  and  P2_23 
REMARK    7  A    between atoms: P2_23  and  O8_26 
REMARK    8  A    between atoms: O8_26  and  P3_27 
REMARK    9  A    between atoms: C9_31  and  O12_32 
REMARK   10  A    between atoms: C10_34  and  O13_35 
ROOT
HETATM    1  C6  UNL     1      77.175  -9.921   8.067  1.00  0.00     0.159 C 
HETATM    2  O1  UNL     1      76.234 -10.722   7.397  1.00  0.00    -0.326 OA
HETATM    3  C7  UNL     1      76.985 -11.378   6.513  1.00  0.00     0.186 C 
HETATM    4  C9  UNL     1      78.487 -11.136   6.714  1.00  0.00     0.186 C 
HETATM    5  C10 UNL     1      78.360 -10.804   8.229  1.00  0.00     0.224 C 
ENDROOT
BRANCH   3   6
HETATM    6  C8  UNL     1      76.868 -12.803   6.154  1.00  0.00     0.216 C 
BRANCH   6   7
HETATM    7  O2  UNL     1      77.172 -12.961   4.778  1.00  0.00    -0.287 OA
BRANCH   7   8
HETATM    8  P1  UNL     1      76.828 -14.657   4.553  1.00  0.00     0.417 P 
HETATM    9  O3  UNL     1      77.126 -15.376   5.768  1.00  0.00    -0.624 OA
HETATM   10  O4  UNL     1      75.073 -14.584   4.280  1.00  0.00    -0.624 OA
BRANCH   8  11
HETATM   11  O5  UNL     1      77.459 -15.243   3.120  1.00  0.00    -0.180 OA
BRANCH  11  12
HETATM   12  P2  UNL     1      77.010 -14.147   1.848  1.00  0.00     0.428 P 
HETATM   13  O6  UNL     1      78.138 -13.167   1.732  1.00  0.00    -0.624 OA
HETATM   14  O7  UNL     1      75.546 -13.407   2.121  1.00  0.00    -0.624 OA
BRANCH  12  15
HETATM   15  O8  UNL     1      76.961 -15.082   0.415  1.00  0.00    -0.173 OA
BRANCH  15  16
HETATM   16  P3  UNL     1      75.480 -15.860   0.304  1.00  0.00     0.431 P 
HETATM   17  O9  UNL     1      74.356 -14.935  -0.008  1.00  0.00    -0.616 OA
HETATM   18  O10 UNL     1      75.606 -17.012  -0.941  1.00  0.00    -0.616 OA
HETATM   19  O11 UNL     1      75.206 -16.631   1.791  1.00  0.00    -0.616 OA
ENDBRANCH  15  16
ENDBRANCH  12  15
ENDBRANCH  11  12
ENDBRANCH   8  11
ENDBRANCH   7   8
ENDBRANCH   6   7
ENDBRANCH   3   6
BRANCH   4  20
HETATM   20  O12 UNL     1      78.846 -10.034   6.006  1.00  0.00    -0.390 OA
ATOM     21  H12 UNL     1      79.262  -9.417   6.596  1.00  0.00     0.210 HD
ENDBRANCH   4  20
BRANCH   1  22
HETATM   22  N5  UNL     1      76.737  -9.104   9.089  1.00  0.00    -0.273 N 
HETATM   23  C3  UNL     1      75.506  -9.080   9.624  1.00  0.00     0.146 A 
HETATM   24  N3  UNL     1      74.388  -9.664   9.220  1.00  0.00    -0.336 N 
HETATM   25  C4  UNL     1      75.483  -8.316  10.744  1.00  0.00     0.120 A 
HETATM   26  C2  UNL     1      73.257  -9.492   9.925  1.00  0.00     0.183 A 
ATOM     27  H3  UNL     1      74.386 -10.241   8.378  1.00  0.00     0.168 HD
HETATM   28  N2  UNL     1      73.217  -8.748  11.045  1.00  0.00    -0.339 N 
HETATM   29  C1  UNL     1      74.330  -8.151  11.467  1.00  0.00     0.148 A 
ATOM     30  H2  UNL     1      72.345  -8.642  11.564  1.00  0.00     0.167 HD
HETATM   31  N1  UNL     1      74.313  -7.492  12.717  1.00  0.00    -0.080 NA
HETATM   32  N4  UNL     1      76.735  -7.842  10.893  1.00  0.00    -0.346 N 
HETATM   33  C5  UNL     1      77.489  -8.319   9.885  1.00  0.00     0.192 A 
ATOM     34  H4  UNL     1      77.056  -7.227  11.640  1.00  0.00     0.167 HD
ENDBRANCH   1  22
BRANCH   5  35
HETATM   35  O13 UNL     1      79.570 -10.174   8.484  1.00  0.00    -0.385 OA
ATOM     36  H13 UNL     1      80.301 -10.421   7.929  1.00  0.00     0.210 HD
ENDBRANCH   5  35
TORSDOF 10
ENDMDL
