MODEL 3
REMARK VINA RESULT: -8.713550910      2.295      4.354
REMARK  10 active torsions:
REMARK  status: ('A' for Active; 'I' for Inactive)
REMARK    1  A    between atoms: N5_13  and  C6_14 
REMARK    2  A    between atoms: C7_16  and  C8_17 
REMARK    3  A    between atoms: C8_17  and  O2_18 
REMARK    4  A    between atoms: O2_18  and  P1_19 
REMARK    5  A    between atoms: P1_19  and  O5_22 
REMARK    6  A    between atoms: O5_22  and  P2_23 
REMARK    7  A    between atoms: P2_23  and  O8_26 
REMARK    8  A    between atoms: O8_26  and  P3_27 
REMARK    9  A    between atoms: C9_31  and  O12_32 
REMARK   10  A    between atoms: C10_34  and  O13_35 
ROOT
HETATM    1  C6  UNL     1      75.214 -14.369   2.038  1.00  0.00     0.159 C 
HETATM    2  O1  UNL     1      74.309 -13.351   1.695  1.00  0.00    -0.326 OA
HETATM    3  C7  UNL     1      73.670 -13.869   0.646  1.00  0.00     0.186 C 
HETATM    4  C9  UNL     1      74.040 -15.336   0.391  1.00  0.00     0.186 C 
HETATM    5  C10 UNL     1      74.437 -15.625   1.868  1.00  0.00     0.224 C 
ENDROOT
BRANCH   3   6
HETATM    6  C8  UNL     1      72.223 -13.782   0.374  1.00  0.00     0.216 C 
BRANCH   6   7
HETATM    7  O2  UNL     1      71.524 -13.703   1.606  1.00  0.00    -0.287 OA
BRANCH   7   8
HETATM    8  P1  UNL     1      70.034 -14.514   1.197  1.00  0.00     0.417 P 
HETATM    9  O3  UNL     1      68.919 -13.777   1.740  1.00  0.00    -0.624 OA
HETATM   10  O4  UNL     1      70.078 -14.371  -0.574  1.00  0.00    -0.624 OA
BRANCH   8  11
HETATM   11  O5  UNL     1      70.108 -16.157   1.494  1.00  0.00    -0.180 OA
BRANCH  11  12
HETATM   12  P2  UNL     1      69.891 -16.403   3.201  1.00  0.00     0.428 P 
HETATM   13  O6  UNL     1      68.416 -16.295   3.448  1.00  0.00    -0.624 OA
HETATM   14  O7  UNL     1      70.773 -15.339   4.124  1.00  0.00    -0.624 OA
BRANCH  12  15
HETATM   15  O8  UNL     1      70.369 -18.018   3.510  1.00  0.00    -0.173 OA
BRANCH  15  16
HETATM   16  P3  UNL     1      69.121 -19.059   3.100  1.00  0.00     0.431 P 
HETATM   17  O9  UNL     1      68.271 -18.545   1.991  1.00  0.00    -0.616 OA
HETATM   18  O10 UNL     1      69.826 -20.529   2.616  1.00  0.00    -0.616 OA
HETATM   19  O11 UNL     1      68.182 -19.291   4.495  1.00  0.00    -0.616 OA
ENDBRANCH  15  16
ENDBRANCH  12  15
ENDBRANCH  11  12
ENDBRANCH   8  11
ENDBRANCH   7   8
ENDBRANCH   6   7
ENDBRANCH   3   6
BRANCH   4  20
HETATM   20  O12 UNL     1      75.129 -15.373  -0.419  1.00  0.00    -0.390 OA
ATOM     21  H12 UNL     1      74.914 -14.939  -1.236  1.00  0.00     0.210 HD
ENDBRANCH   4  20
BRANCH   1  22
HETATM   22  N5  UNL     1      76.045 -14.175   3.122  1.00  0.00    -0.273 N 
HETATM   23  C3  UNL     1      75.720 -13.589   4.286  1.00  0.00     0.146 A 
HETATM   24  N3  UNL     1      74.635 -12.909   4.625  1.00  0.00    -0.336 N 
HETATM   25  C4  UNL     1      76.705 -13.758   5.202  1.00  0.00     0.120 A 
HETATM   26  C2  UNL     1      74.530 -12.404   5.866  1.00  0.00     0.183 A 
ATOM     27  H3  UNL     1      73.885 -12.770   3.949  1.00  0.00     0.168 HD
HETATM   28  N2  UNL     1      75.492 -12.571   6.793  1.00  0.00    -0.339 N 
HETATM   29  C1  UNL     1      76.591 -13.250   6.470  1.00  0.00     0.148 A 
ATOM     30  H2  UNL     1      75.380 -12.183   7.729  1.00  0.00     0.167 HD
HETATM   31  N1  UNL     1      77.528 -13.544   7.486  1.00  0.00    -0.080 NA
HETATM   32  N4  UNL     1      77.674 -14.455   4.577  1.00  0.00    -0.346 N 
HETATM   33  C5  UNL     1      77.270 -14.701   3.316  1.00  0.00     0.192 A 
ATOM     34  H4  UNL     1      78.561 -14.746   4.988  1.00  0.00     0.167 HD
ENDBRANCH   1  22
BRANCH   5  35
HETATM   35  O13 UNL     1      75.174 -16.795   1.740  1.00  0.00    -0.385 OA
ATOM     36  H13 UNL     1      75.144 -17.396   2.475  1.00  0.00     0.210 HD
ENDBRANCH   5  35
TORSDOF 10
ENDMDL
