MODEL 2
REMARK VINA RESULT: -8.974228081      0.671      1.331
REMARK  4 active torsions:
REMARK  status: ('A' for Active; 'I' for Inactive)
REMARK    1  A    between atoms: C1_2  and  C2_6 
REMARK    2  A    between atoms: C5_9  and  C6_10 
REMARK    3  A    between atoms: N3_14  and  C9_15 
REMARK    4  A    between atoms: C9_15  and  C10_16 
ROOT
HETATM    1  C6  UNL     1      12.913  70.023  12.931  1.00  0.00     0.269 C 
HETATM    2  C7  UNL     1      12.681  69.286  14.213  1.00  0.00     0.123 C 
HETATM    3  C8  UNL     1      12.853  67.841  14.140  1.00  0.00     0.227 C 
HETATM    4  O1  UNL     1      12.222  67.028  13.425  1.00  0.00    -0.273 OA
HETATM    5  N3  UNL     1      13.887  67.474  15.035  1.00  0.00    -0.347 N 
HETATM    6  C17 UNL     1      14.278  68.590  15.881  1.00  0.00     0.134 C 
HETATM    7  C18 UNL     1      13.790  69.792  15.100  1.00  0.00     0.052 C 
HETATM    8  C19 UNL     1      14.890  70.200  14.167  1.00  0.00     0.230 C 
HETATM    9  C20 UNL     1      15.629  71.365  14.750  1.00  0.00     0.038 C 
HETATM   10  C21 UNL     1      14.929  72.557  14.147  1.00  0.00     0.032 C 
HETATM   11  C22 UNL     1      14.184  72.060  12.949  1.00  0.00     0.274 C 
HETATM   12  N4  UNL     1      14.220  70.617  12.979  1.00  0.00     0.103 N 
ENDROOT
BRANCH   1  13
HETATM   13  C5  UNL     1      12.691  69.215  11.730  1.00  0.00    -0.024 A 
HETATM   14  C4  UNL     1      11.441  69.152  11.161  1.00  0.00     0.010 A 
HETATM   15  C3  UNL     1      11.150  68.414  10.032  1.00  0.00     0.015 A 
HETATM   16  C2  UNL     1      12.149  67.692   9.423  1.00  0.00     0.004 A 
HETATM   17  C24 UNL     1      13.425  67.750   9.996  1.00  0.00     0.015 A 
HETATM   18  C23 UNL     1      13.695  68.492  11.123  1.00  0.00     0.010 A 
BRANCH  16  19
HETATM   19  C1  UNL     1      11.906  66.894   8.229  1.00  0.00     0.120 C 
HETATM   20  N1  UNL     1      13.052  66.471   7.484  1.00  0.00    -0.082 NA
HETATM   21  N2  UNL     1      10.742  66.551   7.809  1.00  0.00    -0.387 N 
ATOM     22  H22 UNL     1      10.572  65.993   6.973  1.00  0.00     0.157 HD
ATOM     23  H21 UNL     1       9.925  66.853   8.341  1.00  0.00     0.157 HD
ENDBRANCH  16  19
ENDBRANCH   1  13
BRANCH   5  24
HETATM   24  C9  UNL     1      14.534  66.160  15.162  1.00  0.00     0.164 C 
BRANCH  24  25
HETATM   25  C10 UNL     1      15.377  66.071  16.361  1.00  0.00    -0.037 A 
HETATM   26  C11 UNL     1      16.623  66.651  16.397  1.00  0.00     0.012 A 
HETATM   27  C12 UNL     1      17.445  66.582  17.524  1.00  0.00     0.040 A 
HETATM   28  C13 UNL     1      16.999  65.915  18.641  1.00  0.00     0.105 A 
HETATM   29  C14 UNL     1      15.751  65.323  18.636  1.00  0.00     0.105 A 
HETATM   30  O3  UNL     1      17.585  65.683  19.896  1.00  0.00    -0.323 OA
HETATM   31  C15 UNL     1      14.950  65.405  17.497  1.00  0.00     0.048 A 
HETATM   32  O2  UNL     1      15.606  64.743  19.887  1.00  0.00    -0.323 OA
HETATM   33  C16 UNL     1      16.549  65.274  20.801  1.00  0.00     0.352 C 
ENDBRANCH  24  25
ENDBRANCH   5  24
TORSDOF 4
ENDMDL
