MODEL 1
REMARK VINA RESULT: -9.027924520      0.000      0.000
REMARK  4 active torsions:
REMARK  status: ('A' for Active; 'I' for Inactive)
REMARK    1  A    between atoms: C1_2  and  C2_6 
REMARK    2  A    between atoms: C5_9  and  C6_10 
REMARK    3  A    between atoms: N3_14  and  C9_15 
REMARK    4  A    between atoms: C9_15  and  C10_16 
ROOT
HETATM    1  C6  UNL     1      12.868  70.092  12.892  1.00  0.00     0.269 C 
HETATM    2  C7  UNL     1      12.629  69.376  14.185  1.00  0.00     0.123 C 
HETATM    3  C8  UNL     1      12.809  67.932  14.138  1.00  0.00     0.227 C 
HETATM    4  O1  UNL     1      12.187  67.103  13.432  1.00  0.00    -0.273 OA
HETATM    5  N3  UNL     1      13.837  67.585  15.047  1.00  0.00    -0.347 N 
HETATM    6  C17 UNL     1      14.217  68.717  15.876  1.00  0.00     0.134 C 
HETATM    7  C18 UNL     1      13.729  69.903  15.071  1.00  0.00     0.052 C 
HETATM    8  C19 UNL     1      14.835  70.300  14.139  1.00  0.00     0.230 C 
HETATM    9  C20 UNL     1      15.564  71.478  14.708  1.00  0.00     0.038 C 
HETATM   10  C21 UNL     1      14.862  72.657  14.078  1.00  0.00     0.032 C 
HETATM   11  C22 UNL     1      14.128  72.135  12.884  1.00  0.00     0.274 C 
HETATM   12  N4  UNL     1      14.171  70.694  12.939  1.00  0.00     0.103 N 
ENDROOT
BRANCH   1  13
HETATM   13  C5  UNL     1      12.658  69.262  11.704  1.00  0.00    -0.024 A 
HETATM   14  C4  UNL     1      11.406  69.157  11.146  1.00  0.00     0.010 A 
HETATM   15  C3  UNL     1      11.126  68.396  10.030  1.00  0.00     0.015 A 
HETATM   16  C2  UNL     1      12.141  67.694   9.421  1.00  0.00     0.004 A 
HETATM   17  C24 UNL     1      13.419  67.796   9.982  1.00  0.00     0.015 A 
HETATM   18  C23 UNL     1      13.677  68.560  11.097  1.00  0.00     0.010 A 
BRANCH  16  19
HETATM   19  C1  UNL     1      11.910  66.875   8.240  1.00  0.00     0.120 C 
HETATM   20  N1  UNL     1      13.065  66.407   7.536  1.00  0.00    -0.082 NA
HETATM   21  N2  UNL     1      10.750  66.550   7.796  1.00  0.00    -0.387 N 
ATOM     22  H22 UNL     1      10.589  65.976   6.969  1.00  0.00     0.157 HD
ATOM     23  H21 UNL     1       9.926  66.884   8.298  1.00  0.00     0.157 HD
ENDBRANCH  16  19
ENDBRANCH   1  13
BRANCH   5  24
HETATM   24  C9  UNL     1      14.491  66.276  15.201  1.00  0.00     0.164 C 
BRANCH  24  25
HETATM   25  C10 UNL     1      15.345  66.221  16.394  1.00  0.00    -0.037 A 
HETATM   26  C11 UNL     1      14.982  65.478  17.492  1.00  0.00     0.012 A 
HETATM   27  C12 UNL     1      15.775  65.407  18.640  1.00  0.00     0.040 A 
HETATM   28  C13 UNL     1      16.962  66.102  18.679  1.00  0.00     0.105 A 
HETATM   29  C14 UNL     1      17.354  66.856  17.592  1.00  0.00     0.105 A 
HETATM   30  O3  UNL     1      17.950  66.222  19.670  1.00  0.00    -0.323 OA
HETATM   31  C15 UNL     1      16.543  66.911  16.458  1.00  0.00     0.048 A 
HETATM   32  O2  UNL     1      18.571  67.420  17.945  1.00  0.00    -0.323 OA
HETATM   33  C16 UNL     1      19.135  66.745  19.054  1.00  0.00     0.352 C 
ENDBRANCH  24  25
ENDBRANCH   5  24
TORSDOF 4
ENDMDL
