MODEL 4
REMARK VINA RESULT: -8.772318777      3.244      6.966
REMARK  4 active torsions:
REMARK  status: ('A' for Active; 'I' for Inactive)
REMARK    1  A    between atoms: C1_2  and  C2_6 
REMARK    2  A    between atoms: C5_9  and  C6_10 
REMARK    3  A    between atoms: N3_14  and  C9_15 
REMARK    4  A    between atoms: C9_15  and  C10_16 
ROOT
HETATM    1  C6  UNL     1      14.049  68.007  13.148  1.00  0.00     0.269 C 
HETATM    2  C7  UNL     1      14.269  69.469  13.382  1.00  0.00     0.123 C 
HETATM    3  C8  UNL     1      13.378  70.357  12.648  1.00  0.00     0.227 C 
HETATM    4  O1  UNL     1      13.248  70.459  11.406  1.00  0.00    -0.273 OA
HETATM    5  N3  UNL     1      12.646  71.123  13.588  1.00  0.00    -0.347 N 
HETATM    6  C17 UNL     1      13.164  70.946  14.935  1.00  0.00     0.134 C 
HETATM    7  C18 UNL     1      13.916  69.635  14.838  1.00  0.00     0.052 C 
HETATM    8  C19 UNL     1      12.943  68.534  15.138  1.00  0.00     0.230 C 
HETATM    9  C20 UNL     1      13.123  68.087  16.556  1.00  0.00     0.038 C 
HETATM   10  C21 UNL     1      14.096  66.940  16.438  1.00  0.00     0.032 C 
HETATM   11  C22 UNL     1      14.064  66.493  15.011  1.00  0.00     0.274 C 
HETATM   12  N4  UNL     1      13.316  67.473  14.261  1.00  0.00     0.103 N 
ENDROOT
BRANCH   1  13
HETATM   13  C5  UNL     1      13.439  67.696  11.853  1.00  0.00    -0.024 A 
HETATM   14  C4  UNL     1      14.212  67.657  10.717  1.00  0.00     0.010 A 
HETATM   15  C3  UNL     1      13.715  67.373   9.462  1.00  0.00     0.015 A 
HETATM   16  C2  UNL     1      12.373  67.111   9.312  1.00  0.00     0.004 A 
HETATM   17  C24 UNL     1      11.579  67.148  10.464  1.00  0.00     0.015 A 
HETATM   18  C23 UNL     1      12.094  67.434  11.707  1.00  0.00     0.010 A 
BRANCH  16  19
HETATM   19  C1  UNL     1      11.787  66.804   8.015  1.00  0.00     0.120 C 
HETATM   20  N1  UNL     1      12.687  66.657   6.912  1.00  0.00    -0.082 NA
HETATM   21  N2  UNL     1      10.529  66.659   7.802  1.00  0.00    -0.387 N 
ATOM     22  H22 UNL     1      10.119  66.444   6.893  1.00  0.00     0.157 HD
ATOM     23  H21 UNL     1       9.887  66.763   8.588  1.00  0.00     0.157 HD
ENDBRANCH  16  19
ENDBRANCH   1  13
BRANCH   5  24
HETATM   24  C9  UNL     1      11.502  72.008  13.322  1.00  0.00     0.164 C 
BRANCH  24  25
HETATM   25  C10 UNL     1      11.868  73.142  12.464  1.00  0.00    -0.037 A 
HETATM   26  C11 UNL     1      11.085  73.501  11.392  1.00  0.00     0.012 A 
HETATM   27  C12 UNL     1      11.408  74.576  10.560  1.00  0.00     0.040 A 
HETATM   28  C13 UNL     1      12.547  75.304  10.816  1.00  0.00     0.105 A 
HETATM   29  C14 UNL     1      13.352  74.968  11.885  1.00  0.00     0.105 A 
HETATM   30  O3  UNL     1      13.120  76.413  10.171  1.00  0.00    -0.323 OA
HETATM   31  C15 UNL     1      13.008  73.891  12.701  1.00  0.00     0.048 A 
HETATM   32  O2  UNL     1      14.398  75.879  11.867  1.00  0.00    -0.323 OA
HETATM   33  C16 UNL     1      14.077  76.999  11.064  1.00  0.00     0.352 C 
ENDBRANCH  24  25
ENDBRANCH   5  24
TORSDOF 4
ENDMDL
