MODEL 3
REMARK VINA RESULT: -8.928089180      1.997      2.307
REMARK  4 active torsions:
REMARK  status: ('A' for Active; 'I' for Inactive)
REMARK    1  A    between atoms: C1_2  and  C2_6 
REMARK    2  A    between atoms: C5_9  and  C6_10 
REMARK    3  A    between atoms: N3_14  and  C9_15 
REMARK    4  A    between atoms: C9_15  and  C10_16 
ROOT
HETATM    1  C6  UNL     1      13.155  70.576  13.060  1.00  0.00     0.269 C 
HETATM    2  C7  UNL     1      13.167  69.981  14.434  1.00  0.00     0.123 C 
HETATM    3  C8  UNL     1      13.557  68.579  14.501  1.00  0.00     0.227 C 
HETATM    4  O1  UNL     1      12.996  67.599  13.957  1.00  0.00    -0.273 OA
HETATM    5  N3  UNL     1      14.717  68.482  15.307  1.00  0.00    -0.347 N 
HETATM    6  C17 UNL     1      15.007  69.741  15.974  1.00  0.00     0.134 C 
HETATM    7  C18 UNL     1      14.262  70.751  15.127  1.00  0.00     0.052 C 
HETATM    8  C19 UNL     1      15.189  71.193  14.034  1.00  0.00     0.230 C 
HETATM    9  C20 UNL     1      15.788  72.517  14.397  1.00  0.00     0.038 C 
HETATM   10  C21 UNL     1      14.853  73.510  13.750  1.00  0.00     0.032 C 
HETATM   11  C22 UNL     1      14.083  72.761  12.708  1.00  0.00     0.274 C 
HETATM   12  N4  UNL     1      14.349  71.355  12.892  1.00  0.00     0.103 N 
ENDROOT
BRANCH   1  13
HETATM   13  C5  UNL     1      12.948  69.599  11.990  1.00  0.00    -0.024 A 
HETATM   14  C4  UNL     1      11.691  69.398  11.470  1.00  0.00     0.010 A 
HETATM   15  C3  UNL     1      11.413  68.497  10.463  1.00  0.00     0.015 A 
HETATM   16  C2  UNL     1      12.435  67.745   9.931  1.00  0.00     0.004 A 
HETATM   17  C24 UNL     1      13.718  67.943  10.454  1.00  0.00     0.015 A 
HETATM   18  C23 UNL     1      13.974  68.847  11.460  1.00  0.00     0.010 A 
BRANCH  16  19
HETATM   19  C1  UNL     1      12.207  66.779   8.866  1.00  0.00     0.120 C 
HETATM   20  N1  UNL     1      13.324  65.980   8.461  1.00  0.00    -0.082 NA
HETATM   21  N2  UNL     1      11.081  66.601   8.275  1.00  0.00    -0.387 N 
ATOM     22  H22 UNL     1      10.922  65.924   7.530  1.00  0.00     0.157 HD
ATOM     23  H21 UNL     1      10.285  67.170   8.564  1.00  0.00     0.157 HD
ENDBRANCH  16  19
ENDBRANCH   1  13
BRANCH   5  24
HETATM   24  C9  UNL     1      15.574  67.303  15.502  1.00  0.00     0.164 C 
BRANCH  24  25
HETATM   25  C10 UNL     1      15.050  66.404  16.539  1.00  0.00    -0.037 A 
HETATM   26  C11 UNL     1      14.415  66.902  17.653  1.00  0.00     0.012 A 
HETATM   27  C12 UNL     1      13.907  66.071  18.655  1.00  0.00     0.040 A 
HETATM   28  C13 UNL     1      14.042  64.707  18.529  1.00  0.00     0.105 A 
HETATM   29  C14 UNL     1      14.674  64.179  17.421  1.00  0.00     0.105 A 
HETATM   30  O3  UNL     1      13.643  63.642  19.352  1.00  0.00    -0.323 OA
HETATM   31  C15 UNL     1      15.173  65.030  16.436  1.00  0.00     0.048 A 
HETATM   32  O2  UNL     1      14.647  62.803  17.595  1.00  0.00    -0.323 OA
HETATM   33  C16 UNL     1      13.690  62.438  18.573  1.00  0.00     0.352 C 
ENDBRANCH  24  25
ENDBRANCH   5  24
TORSDOF 4
ENDMDL
