MODEL 12
REMARK VINA RESULT: -8.443963583      1.850      2.489
REMARK  5 active torsions:
REMARK  status: ('A' for Active; 'I' for Inactive)
REMARK    1  A    between atoms: C2_2  and  C3_3 
REMARK    2  A    between atoms: N1_8  and  C7_9 
REMARK    3  A    between atoms: C7_9  and  C8_10 
REMARK    4  A    between atoms: C15_19  and  C16_20 
REMARK    5  A    between atoms: C19_23  and  C20_24 
ROOT
HETATM    1  C3  UNL     1      18.281 -13.309  19.966  1.00  0.00     0.094 C 
HETATM    2  C4  UNL     1      17.596 -12.665  18.792  1.00  0.00     0.057 C 
HETATM    3  C5  UNL     1      16.638 -11.649  19.351  1.00  0.00     0.124 C 
HETATM    4  C6  UNL     1      16.973 -11.623  20.768  1.00  0.00     0.227 C 
HETATM    5  O1  UNL     1      16.292 -11.092  21.681  1.00  0.00    -0.273 OA
HETATM    6  N1  UNL     1      18.223 -12.310  20.984  1.00  0.00    -0.342 N 
HETATM    7  C15 UNL     1      15.271 -12.174  19.031  1.00  0.00     0.270 C 
HETATM    8  N4  UNL     1      15.395 -13.549  18.638  1.00  0.00     0.103 N 
HETATM    9  C23 UNL     1      14.421 -13.805  17.589  1.00  0.00     0.274 C 
HETATM   10  C24 UNL     1      15.064 -13.333  16.328  1.00  0.00     0.032 C 
HETATM   11  C25 UNL     1      16.512 -13.052  16.631  1.00  0.00     0.038 C 
HETATM   12  C26 UNL     1      16.706 -13.602  18.025  1.00  0.00     0.231 C 
ENDROOT
BRANCH   7  13
HETATM   13  C16 UNL     1      14.280 -11.935  20.077  1.00  0.00    -0.024 A 
HETATM   14  C17 UNL     1      13.977 -12.904  21.000  1.00  0.00     0.010 A 
HETATM   15  C18 UNL     1      13.044 -12.693  22.011  1.00  0.00     0.015 A 
HETATM   16  C19 UNL     1      12.391 -11.495  22.115  1.00  0.00     0.004 A 
HETATM   17  C21 UNL     1      12.685 -10.493  21.184  1.00  0.00     0.015 A 
HETATM   18  C22 UNL     1      13.606 -10.741  20.209  1.00  0.00     0.010 A 
BRANCH  16  19
HETATM   19  C20 UNL     1      11.409 -11.188  23.132  1.00  0.00     0.120 C 
HETATM   20  N2  UNL     1      11.557 -10.031  23.928  1.00  0.00    -0.082 NA
HETATM   21  N3  UNL     1      10.409 -11.950  23.319  1.00  0.00    -0.387 N 
ATOM     22  H32 UNL     1      10.303 -12.785  22.743  1.00  0.00     0.157 HD
ATOM     23  H31 UNL     1       9.717 -11.733  24.035  1.00  0.00     0.157 HD
ENDBRANCH  16  19
ENDBRANCH   7  13
BRANCH   1  24
HETATM   24  C2  UNL     1      19.668 -13.791  19.623  1.00  0.00     0.021 C 
HETATM   25  C1  UNL     1      20.482 -12.774  18.899  1.00  0.00     0.007 C 
ENDBRANCH   1  24
BRANCH   6  26
HETATM   26  C7  UNL     1      19.208 -12.037  21.999  1.00  0.00     0.165 C 
BRANCH  26  27
HETATM   27  C8  UNL     1      19.461 -13.158  22.928  1.00  0.00    -0.037 A 
HETATM   28  C9  UNL     1      18.491 -13.777  23.680  1.00  0.00     0.012 A 
HETATM   29  C10 UNL     1      18.814 -14.830  24.546  1.00  0.00     0.040 A 
HETATM   30  C11 UNL     1      20.110 -15.276  24.669  1.00  0.00     0.105 A 
HETATM   31  C12 UNL     1      21.082 -14.658  23.916  1.00  0.00     0.105 A 
HETATM   32  O3  UNL     1      20.710 -16.293  25.443  1.00  0.00    -0.323 OA
HETATM   33  C13 UNL     1      20.753 -13.622  23.068  1.00  0.00     0.048 A 
HETATM   34  O2  UNL     1      22.280 -15.300  24.234  1.00  0.00    -0.323 OA
HETATM   35  C14 UNL     1      22.112 -15.973  25.495  1.00  0.00     0.352 C 
ENDBRANCH  26  27
ENDBRANCH   6  26
TORSDOF 5
ENDMDL
