MODEL 9
REMARK VINA RESULT: -8.479830214      2.540      7.499
REMARK  5 active torsions:
REMARK  status: ('A' for Active; 'I' for Inactive)
REMARK    1  A    between atoms: C2_2  and  C3_3 
REMARK    2  A    between atoms: N1_8  and  C7_9 
REMARK    3  A    between atoms: C7_9  and  C8_10 
REMARK    4  A    between atoms: C15_19  and  C16_20 
REMARK    5  A    between atoms: C19_23  and  C20_24 
ROOT
HETATM    1  C3  UNL     1      15.505 -14.068  19.294  1.00  0.00     0.094 C 
HETATM    2  C4  UNL     1      15.230 -15.184  20.264  1.00  0.00     0.057 C 
HETATM    3  C5  UNL     1      15.916 -14.820  21.552  1.00  0.00     0.124 C 
HETATM    4  C6  UNL     1      16.358 -13.453  21.317  1.00  0.00     0.227 C 
HETATM    5  O1  UNL     1      17.172 -12.805  22.022  1.00  0.00    -0.273 OA
HETATM    6  N1  UNL     1      15.717 -12.933  20.134  1.00  0.00    -0.342 N 
HETATM    7  C15 UNL     1      17.017 -15.824  21.713  1.00  0.00     0.270 C 
HETATM    8  N4  UNL     1      17.199 -16.501  20.460  1.00  0.00     0.103 N 
HETATM    9  C23 UNL     1      17.529 -17.889  20.744  1.00  0.00     0.274 C 
HETATM   10  C24 UNL     1      16.221 -18.566  20.979  1.00  0.00     0.032 C 
HETATM   11  C25 UNL     1      15.131 -17.612  20.566  1.00  0.00     0.038 C 
HETATM   12  C26 UNL     1      15.872 -16.488  19.881  1.00  0.00     0.231 C 
ENDROOT
BRANCH   7  13
HETATM   13  C16 UNL     1      18.245 -15.277  22.283  1.00  0.00    -0.024 A 
HETATM   14  C17 UNL     1      18.377 -15.089  23.636  1.00  0.00     0.010 A 
HETATM   15  C18 UNL     1      19.543 -14.579  24.200  1.00  0.00     0.015 A 
HETATM   16  C19 UNL     1      20.609 -14.244  23.409  1.00  0.00     0.004 A 
HETATM   17  C21 UNL     1      20.496 -14.428  22.027  1.00  0.00     0.015 A 
HETATM   18  C22 UNL     1      19.336 -14.930  21.515  1.00  0.00     0.010 A 
BRANCH  16  19
HETATM   19  C20 UNL     1      21.856 -13.710  23.908  1.00  0.00     0.120 C 
HETATM   20  N2  UNL     1      21.944 -13.253  25.242  1.00  0.00    -0.082 NA
HETATM   21  N3  UNL     1      22.880 -13.647  23.158  1.00  0.00    -0.387 N 
ATOM     22  H32 UNL     1      22.817 -13.977  22.195  1.00  0.00     0.157 HD
ATOM     23  H31 UNL     1      23.760 -13.270  23.510  1.00  0.00     0.157 HD
ENDBRANCH  16  19
ENDBRANCH   7  13
BRANCH   1  24
HETATM   24  C2  UNL     1      14.403 -13.913  18.276  1.00  0.00     0.021 C 
HETATM   25  C1  UNL     1      13.077 -14.383  18.769  1.00  0.00     0.007 C 
ENDBRANCH   1  24
BRANCH   6  26
HETATM   26  C7  UNL     1      15.355 -11.565  19.863  1.00  0.00     0.165 C 
BRANCH  26  27
HETATM   27  C8  UNL     1      14.380 -10.987  20.811  1.00  0.00    -0.037 A 
HETATM   28  C9  UNL     1      14.348  -9.664  21.182  1.00  0.00     0.012 A 
HETATM   29  C10 UNL     1      13.394  -9.194  22.095  1.00  0.00     0.040 A 
HETATM   30  C11 UNL     1      12.462 -10.043  22.647  1.00  0.00     0.105 A 
HETATM   31  C12 UNL     1      12.492 -11.368  22.277  1.00  0.00     0.105 A 
HETATM   32  O3  UNL     1      11.410  -9.851  23.569  1.00  0.00    -0.323 OA
HETATM   33  C13 UNL     1      13.435 -11.819  21.378  1.00  0.00     0.048 A 
HETATM   34  O2  UNL     1      11.455 -11.986  22.976  1.00  0.00    -0.323 OA
HETATM   35  C14 UNL     1      11.107 -11.155  24.098  1.00  0.00     0.352 C 
ENDBRANCH  26  27
ENDBRANCH   6  26
TORSDOF 5
ENDMDL
