MODEL 5
REMARK VINA RESULT: -8.718900638      2.607      7.386
REMARK  5 active torsions:
REMARK  status: ('A' for Active; 'I' for Inactive)
REMARK    1  A    between atoms: C2_2  and  C3_3 
REMARK    2  A    between atoms: N1_8  and  C7_9 
REMARK    3  A    between atoms: C7_9  and  C8_10 
REMARK    4  A    between atoms: C15_19  and  C16_20 
REMARK    5  A    between atoms: C19_23  and  C20_24 
ROOT
HETATM    1  C3  UNL     1      16.496 -14.025  19.482  1.00  0.00     0.094 C 
HETATM    2  C4  UNL     1      16.125 -15.190  20.358  1.00  0.00     0.057 C 
HETATM    3  C5  UNL     1      16.417 -14.779  21.775  1.00  0.00     0.124 C 
HETATM    4  C6  UNL     1      16.734 -13.363  21.651  1.00  0.00     0.227 C 
HETATM    5  O1  UNL     1      17.261 -12.641  22.534  1.00  0.00    -0.273 OA
HETATM    6  N1  UNL     1      16.352 -12.894  20.342  1.00  0.00    -0.342 N 
HETATM    7  C15 UNL     1      17.557 -15.649  22.214  1.00  0.00     0.270 C 
HETATM    8  N4  UNL     1      18.127 -16.267  21.050  1.00  0.00     0.103 N 
HETATM    9  C23 UNL     1      18.541 -17.613  21.416  1.00  0.00     0.274 C 
HETATM   10  C24 UNL     1      17.308 -18.447  21.319  1.00  0.00     0.032 C 
HETATM   11  C25 UNL     1      16.249 -17.619  20.639  1.00  0.00     0.038 C 
HETATM   12  C26 UNL     1      16.996 -16.398  20.156  1.00  0.00     0.231 C 
ENDROOT
BRANCH   7  13
HETATM   13  C16 UNL     1      18.527 -14.974  23.071  1.00  0.00    -0.024 A 
HETATM   14  C17 UNL     1      18.321 -14.861  24.423  1.00  0.00     0.010 A 
HETATM   15  C18 UNL     1      19.239 -14.232  25.259  1.00  0.00     0.015 A 
HETATM   16  C19 UNL     1      20.391 -13.698  24.749  1.00  0.00     0.004 A 
HETATM   17  C21 UNL     1      20.621 -13.801  23.373  1.00  0.00     0.015 A 
HETATM   18  C22 UNL     1      19.696 -14.426  22.589  1.00  0.00     0.010 A 
BRANCH  16  19
HETATM   19  C20 UNL     1      21.399 -13.028  25.541  1.00  0.00     0.120 C 
HETATM   20  N2  UNL     1      22.768 -13.244  25.269  1.00  0.00    -0.082 NA
HETATM   21  N3  UNL     1      21.067 -12.244  26.484  1.00  0.00    -0.387 N 
ATOM     22  H32 UNL     1      20.078 -12.088  26.681  1.00  0.00     0.157 HD
ATOM     23  H31 UNL     1      21.777 -11.771  27.042  1.00  0.00     0.157 HD
ENDBRANCH  16  19
ENDBRANCH   7  13
BRANCH   1  24
HETATM   24  C2  UNL     1      15.673 -13.976  18.219  1.00  0.00     0.021 C 
HETATM   25  C1  UNL     1      14.284 -14.483  18.402  1.00  0.00     0.007 C 
ENDBRANCH   1  24
BRANCH   6  26
HETATM   26  C7  UNL     1      15.906 -11.573  19.981  1.00  0.00     0.165 C 
BRANCH  26  27
HETATM   27  C8  UNL     1      14.782 -11.059  20.792  1.00  0.00    -0.037 A 
HETATM   28  C9  UNL     1      14.592  -9.734  21.105  1.00  0.00     0.012 A 
HETATM   29  C10 UNL     1      13.504  -9.328  21.888  1.00  0.00     0.040 A 
HETATM   30  C11 UNL     1      12.593 -10.242  22.367  1.00  0.00     0.105 A 
HETATM   31  C12 UNL     1      12.782 -11.569  22.055  1.00  0.00     0.105 A 
HETATM   32  O3  UNL     1      11.431 -10.121  23.159  1.00  0.00    -0.323 OA
HETATM   33  C13 UNL     1      13.857 -11.957  21.284  1.00  0.00     0.048 A 
HETATM   34  O2  UNL     1      11.731 -12.259  22.660  1.00  0.00    -0.323 OA
HETATM   35  C14 UNL     1      11.185 -11.431  23.702  1.00  0.00     0.352 C 
ENDBRANCH  26  27
ENDBRANCH   6  26
TORSDOF 5
ENDMDL
