MODEL 2
REMARK VINA RESULT: -8.951831155      4.114      7.972
REMARK  5 active torsions:
REMARK  status: ('A' for Active; 'I' for Inactive)
REMARK    1  A    between atoms: C2_2  and  C3_3 
REMARK    2  A    between atoms: N1_8  and  C7_9 
REMARK    3  A    between atoms: C7_9  and  C8_10 
REMARK    4  A    between atoms: C15_19  and  C16_20 
REMARK    5  A    between atoms: C19_23  and  C20_24 
ROOT
HETATM    1  C3  UNL     1      16.200 -13.522  20.070  1.00  0.00     0.094 C 
HETATM    2  C4  UNL     1      17.220 -12.417  20.074  1.00  0.00     0.057 C 
HETATM    3  C5  UNL     1      16.841 -11.471  18.967  1.00  0.00     0.124 C 
HETATM    4  C6  UNL     1      15.540 -11.966  18.540  1.00  0.00     0.227 C 
HETATM    5  O1  UNL     1      14.929 -11.638  17.493  1.00  0.00    -0.273 OA
HETATM    6  N1  UNL     1      15.039 -12.911  19.508  1.00  0.00    -0.342 N 
HETATM    7  C15 UNL     1      17.933 -11.595  17.948  1.00  0.00     0.270 C 
HETATM    8  N4  UNL     1      18.703 -12.768  18.251  1.00  0.00     0.103 N 
HETATM    9  C23 UNL     1      20.095 -12.483  17.939  1.00  0.00     0.274 C 
HETATM   10  C24 UNL     1      20.628 -11.762  19.132  1.00  0.00     0.032 C 
HETATM   11  C25 UNL     1      19.602 -11.875  20.230  1.00  0.00     0.038 C 
HETATM   12  C26 UNL     1      18.601 -12.870  19.692  1.00  0.00     0.231 C 
ENDROOT
BRANCH   7  13
HETATM   13  C16 UNL     1      17.470 -11.521  16.565  1.00  0.00    -0.024 A 
HETATM   14  C17 UNL     1      17.320 -12.655  15.806  1.00  0.00     0.010 A 
HETATM   15  C18 UNL     1      16.870 -12.606  14.490  1.00  0.00     0.015 A 
HETATM   16  C19 UNL     1      16.559 -11.409  13.905  1.00  0.00     0.004 A 
HETATM   17  C21 UNL     1      16.705 -10.241  14.661  1.00  0.00     0.015 A 
HETATM   18  C22 UNL     1      17.149 -10.332  15.947  1.00  0.00     0.010 A 
BRANCH  16  19
HETATM   19  C20 UNL     1      16.085 -11.265  12.547  1.00  0.00     0.120 C 
HETATM   20  N2  UNL     1      14.968 -12.011  12.108  1.00  0.00    -0.082 NA
HETATM   21  N3  UNL     1      16.662 -10.473  11.738  1.00  0.00    -0.387 N 
ATOM     22  H32 UNL     1      17.469  -9.935  12.055  1.00  0.00     0.157 HD
ATOM     23  H31 UNL     1      16.327 -10.371  10.781  1.00  0.00     0.157 HD
ENDBRANCH  16  19
ENDBRANCH   7  13
BRANCH   1  24
HETATM   24  C2  UNL     1      16.006 -14.123  21.440  1.00  0.00     0.021 C 
HETATM   25  C1  UNL     1      16.443 -15.545  21.526  1.00  0.00     0.007 C 
ENDBRANCH   1  24
BRANCH   6  26
HETATM   26  C7  UNL     1      13.663 -13.171  19.847  1.00  0.00     0.165 C 
BRANCH  26  27
HETATM   27  C8  UNL     1      13.026 -12.129  20.680  1.00  0.00    -0.037 A 
HETATM   28  C9  UNL     1      12.895 -10.812  20.309  1.00  0.00     0.012 A 
HETATM   29  C10 UNL     1      12.285  -9.881  21.160  1.00  0.00     0.040 A 
HETATM   30  C11 UNL     1      11.800 -10.258  22.392  1.00  0.00     0.105 A 
HETATM   31  C12 UNL     1      11.930 -11.576  22.765  1.00  0.00     0.105 A 
HETATM   32  O3  UNL     1      11.154  -9.552  23.431  1.00  0.00    -0.323 OA
HETATM   33  C13 UNL     1      12.532 -12.483  21.918  1.00  0.00     0.048 A 
HETATM   34  O2  UNL     1      11.362 -11.674  24.036  1.00  0.00    -0.323 OA
HETATM   35  C14 UNL     1      11.314 -10.356  24.613  1.00  0.00     0.352 C 
ENDBRANCH  26  27
ENDBRANCH   6  26
TORSDOF 5
ENDMDL
