MODEL 12
REMARK VINA RESULT: -9.009716751      3.858      7.707
REMARK  5 active torsions:
REMARK  status: ('A' for Active; 'I' for Inactive)
REMARK    1  A    between atoms: C1_2  and  C2_6 
REMARK    2  A    between atoms: C5_9  and  C6_10 
REMARK    3  A    between atoms: N3_14  and  C9_15 
REMARK    4  A    between atoms: C9_15  and  C10_16 
REMARK    5  A    between atoms: C17_25  and  C18_26 
ROOT
HETATM    1  C6  UNL     1      16.058 -14.089  16.493  1.00  0.00     0.270 C 
HETATM    2  C7  UNL     1      16.678 -13.352  17.665  1.00  0.00     0.124 C 
HETATM    3  C8  UNL     1      15.969 -12.125  18.031  1.00  0.00     0.227 C 
HETATM    4  O1  UNL     1      15.402 -11.248  17.336  1.00  0.00    -0.273 OA
HETATM    5  N3  UNL     1      16.010 -12.052  19.468  1.00  0.00    -0.342 N 
HETATM    6  C17 UNL     1      16.346 -13.358  19.994  1.00  0.00     0.098 C 
HETATM    7  C21 UNL     1      16.223 -14.284  18.805  1.00  0.00     0.058 C 
HETATM    8  C22 UNL     1      14.795 -14.514  18.400  1.00  0.00     0.231 C 
HETATM    9  C23 UNL     1      14.213 -15.816  18.821  1.00  0.00     0.038 C 
HETATM   10  C24 UNL     1      14.451 -16.726  17.664  1.00  0.00     0.032 C 
HETATM   11  C25 UNL     1      14.464 -15.785  16.483  1.00  0.00     0.274 C 
HETATM   12  N4  UNL     1      14.761 -14.466  16.953  1.00  0.00     0.103 N 
ENDROOT
BRANCH   1  13
HETATM   13  C5  UNL     1      16.107 -13.311  15.251  1.00  0.00    -0.024 A 
HETATM   14  C4  UNL     1      17.304 -12.905  14.713  1.00  0.00     0.010 A 
HETATM   15  C3  UNL     1      17.355 -12.160  13.534  1.00  0.00     0.015 A 
HETATM   16  C2  UNL     1      16.205 -11.800  12.860  1.00  0.00     0.004 A 
HETATM   17  C27 UNL     1      15.004 -12.202  13.390  1.00  0.00     0.015 A 
HETATM   18  C26 UNL     1      14.962 -12.950  14.574  1.00  0.00     0.010 A 
BRANCH  16  19
HETATM   19  C1  UNL     1      16.322 -11.014  11.613  1.00  0.00     0.120 C 
HETATM   20  N1  UNL     1      17.618 -10.601  11.206  1.00  0.00    -0.082 NA
HETATM   21  N2  UNL     1      15.304 -10.698  10.899  1.00  0.00    -0.387 N 
ATOM     22  H22 UNL     1      15.384 -10.156  10.039  1.00  0.00     0.157 HD
ATOM     23  H21 UNL     1      14.373 -10.995  11.191  1.00  0.00     0.157 HD
ENDBRANCH  16  19
ENDBRANCH   1  13
BRANCH   5  24
HETATM   24  C9  UNL     1      15.755 -10.874  20.262  1.00  0.00     0.165 C 
BRANCH  24  25
HETATM   25  C10 UNL     1      14.522 -11.018  21.117  1.00  0.00    -0.037 A 
HETATM   26  C11 UNL     1      13.892 -12.224  21.258  1.00  0.00     0.012 A 
HETATM   27  C12 UNL     1      12.775 -12.326  22.044  1.00  0.00     0.040 A 
HETATM   28  C13 UNL     1      12.304 -11.201  22.683  1.00  0.00     0.105 A 
HETATM   29  C14 UNL     1      12.946  -9.969  22.539  1.00  0.00     0.105 A 
HETATM   30  O3  UNL     1      11.228 -11.014  23.513  1.00  0.00    -0.323 OA
HETATM   31  C15 UNL     1      14.066  -9.885  21.746  1.00  0.00     0.048 A 
HETATM   32  O2  UNL     1      12.268  -9.012  23.284  1.00  0.00    -0.323 OA
HETATM   33  C16 UNL     1      11.122  -9.648  23.803  1.00  0.00     0.352 C 
ENDBRANCH  24  25
ENDBRANCH   5  24
BRANCH   6  34
HETATM   34  C18 UNL     1      17.695 -13.389  20.625  1.00  0.00     0.009 A 
HETATM   35  C19 UNL     1      18.269 -14.600  21.232  1.00  0.00     0.007 A 
HETATM   36  C20 UNL     1      17.663 -13.565  22.152  1.00  0.00     0.007 A 
ENDBRANCH   6  34
TORSDOF 5
ENDMDL
