MODEL 11
REMARK VINA RESULT: -9.050487535      2.811      7.571
REMARK  5 active torsions:
REMARK  status: ('A' for Active; 'I' for Inactive)
REMARK    1  A    between atoms: C1_2  and  C2_6 
REMARK    2  A    between atoms: C5_9  and  C6_10 
REMARK    3  A    between atoms: N3_14  and  C9_15 
REMARK    4  A    between atoms: C9_15  and  C10_16 
REMARK    5  A    between atoms: C17_25  and  C18_26 
ROOT
HETATM    1  C6  UNL     1      16.873 -13.850  18.973  1.00  0.00     0.270 C 
HETATM    2  C7  UNL     1      15.642 -14.558  19.506  1.00  0.00     0.124 C 
HETATM    3  C8  UNL     1      14.975 -13.840  20.594  1.00  0.00     0.227 C 
HETATM    4  O1  UNL     1      15.427 -13.169  21.553  1.00  0.00    -0.273 OA
HETATM    5  N3  UNL     1      13.562 -14.027  20.392  1.00  0.00    -0.342 N 
HETATM    6  C17 UNL     1      13.339 -14.469  19.031  1.00  0.00     0.098 C 
HETATM    7  C21 UNL     1      14.671 -14.262  18.346  1.00  0.00     0.058 C 
HETATM    8  C22 UNL     1      14.978 -12.810  18.113  1.00  0.00     0.231 C 
HETATM    9  C23 UNL     1      14.770 -12.329  16.721  1.00  0.00     0.038 C 
HETATM   10  C24 UNL     1      16.102 -12.483  16.067  1.00  0.00     0.032 C 
HETATM   11  C25 UNL     1      17.070 -12.335  17.217  1.00  0.00     0.274 C 
HETATM   12  N4  UNL     1      16.378 -12.624  18.437  1.00  0.00     0.103 N 
ENDROOT
BRANCH   1  13
HETATM   13  C5  UNL     1      17.935 -13.738  19.977  1.00  0.00    -0.024 A 
HETATM   14  C4  UNL     1      18.362 -14.835  20.687  1.00  0.00     0.010 A 
HETATM   15  C3  UNL     1      19.369 -14.732  21.648  1.00  0.00     0.015 A 
HETATM   16  C2  UNL     1      19.978 -13.524  21.925  1.00  0.00     0.004 A 
HETATM   17  C27 UNL     1      19.559 -12.423  21.221  1.00  0.00     0.015 A 
HETATM   18  C26 UNL     1      18.547 -12.536  20.258  1.00  0.00     0.010 A 
BRANCH  16  19
HETATM   19  C1  UNL     1      21.042 -13.478  22.950  1.00  0.00     0.120 C 
HETATM   20  N1  UNL     1      20.652 -13.377  24.311  1.00  0.00    -0.082 NA
HETATM   21  N2  UNL     1      22.290 -13.526  22.652  1.00  0.00    -0.387 N 
ATOM     22  H22 UNL     1      23.025 -13.493  23.359  1.00  0.00     0.157 HD
ATOM     23  H21 UNL     1      22.570 -13.598  21.674  1.00  0.00     0.157 HD
ENDBRANCH  16  19
ENDBRANCH   1  13
BRANCH   5  24
HETATM   24  C9  UNL     1      12.531 -13.808  21.376  1.00  0.00     0.165 C 
BRANCH  24  25
HETATM   25  C10 UNL     1      12.362 -12.348  21.711  1.00  0.00    -0.037 A 
HETATM   26  C11 UNL     1      12.592 -11.373  20.778  1.00  0.00     0.012 A 
HETATM   27  C12 UNL     1      12.428 -10.055  21.110  1.00  0.00     0.040 A 
HETATM   28  C13 UNL     1      12.032  -9.733  22.388  1.00  0.00     0.105 A 
HETATM   29  C14 UNL     1      11.798 -10.726  23.342  1.00  0.00     0.105 A 
HETATM   30  O3  UNL     1      11.796  -8.520  22.985  1.00  0.00    -0.323 OA
HETATM   31  C15 UNL     1      11.967 -12.045  22.992  1.00  0.00     0.048 A 
HETATM   32  O2  UNL     1      11.413 -10.130  24.536  1.00  0.00    -0.323 OA
HETATM   33  C16 UNL     1      11.524  -8.738  24.341  1.00  0.00     0.352 C 
ENDBRANCH  24  25
ENDBRANCH   5  24
BRANCH   6  34
HETATM   34  C18 UNL     1      12.856 -15.877  18.961  1.00  0.00     0.009 A 
HETATM   35  C19 UNL     1      12.602 -16.575  17.691  1.00  0.00     0.007 A 
HETATM   36  C20 UNL     1      11.415 -16.014  18.441  1.00  0.00     0.007 A 
ENDBRANCH   6  34
TORSDOF 5
ENDMDL
