MODEL 1
REMARK VINA RESULT: -10.799217020      0.000      0.000
REMARK  5 active torsions:
REMARK  status: ('A' for Active; 'I' for Inactive)
REMARK    1  A    between atoms: C1_2  and  C2_6 
REMARK    2  A    between atoms: C5_9  and  C6_10 
REMARK    3  A    between atoms: N3_14  and  C9_15 
REMARK    4  A    between atoms: C9_15  and  C10_16 
REMARK    5  A    between atoms: C17_25  and  C18_26 
ROOT
HETATM    1  C6  UNL     1      15.366 -11.693  19.485  1.00  0.00     0.270 C 
HETATM    2  C7  UNL     1      16.710 -12.021  20.107  1.00  0.00     0.124 C 
HETATM    3  C8  UNL     1      16.714 -13.266  20.877  1.00  0.00     0.227 C 
HETATM    4  O1  UNL     1      15.853 -13.788  21.625  1.00  0.00    -0.273 OA
HETATM    5  N3  UNL     1      17.988 -13.886  20.630  1.00  0.00    -0.342 N 
HETATM    6  C17 UNL     1      18.578 -13.291  19.448  1.00  0.00     0.098 C 
HETATM    7  C21 UNL     1      17.457 -12.479  18.839  1.00  0.00     0.058 C 
HETATM    8  C22 UNL     1      16.400 -13.340  18.209  1.00  0.00     0.231 C 
HETATM    9  C23 UNL     1      16.449 -13.430  16.726  1.00  0.00     0.038 C 
HETATM   10  C24 UNL     1      15.533 -12.353  16.253  1.00  0.00     0.032 C 
HETATM   11  C25 UNL     1      14.533 -12.232  17.379  1.00  0.00     0.274 C 
HETATM   12  N4  UNL     1      15.122 -12.761  18.571  1.00  0.00     0.103 N 
ENDROOT
BRANCH   1  13
HETATM   13  C5  UNL     1      14.327 -11.447  20.490  1.00  0.00    -0.024 A 
HETATM   14  C4  UNL     1      14.284 -10.269  21.196  1.00  0.00     0.010 A 
HETATM   15  C3  UNL     1      13.300 -10.034  22.158  1.00  0.00     0.015 A 
HETATM   16  C2  UNL     1      12.330 -10.975  22.439  1.00  0.00     0.004 A 
HETATM   17  C27 UNL     1      12.364 -12.155  21.738  1.00  0.00     0.015 A 
HETATM   18  C26 UNL     1      13.355 -12.382  20.775  1.00  0.00     0.010 A 
BRANCH  16  19
HETATM   19  C1  UNL     1      11.311 -10.667  23.465  1.00  0.00     0.120 C 
HETATM   20  N1  UNL     1      11.320  -9.371  24.046  1.00  0.00    -0.082 NA
HETATM   21  N2  UNL     1      10.430 -11.522  23.841  1.00  0.00    -0.387 N 
ATOM     22  H22 UNL     1       9.727 -11.310  24.550  1.00  0.00     0.157 HD
ATOM     23  H21 UNL     1      10.423 -12.452  23.424  1.00  0.00     0.157 HD
ENDBRANCH  16  19
ENDBRANCH   1  13
BRANCH   5  24
HETATM   24  C9  UNL     1      18.586 -14.934  21.421  1.00  0.00     0.165 C 
BRANCH  24  25
HETATM   25  C10 UNL     1      19.536 -14.394  22.460  1.00  0.00    -0.037 A 
HETATM   26  C11 UNL     1      19.086 -13.637  23.508  1.00  0.00     0.012 A 
HETATM   27  C12 UNL     1      19.971 -13.162  24.439  1.00  0.00     0.040 A 
HETATM   28  C13 UNL     1      21.308 -13.458  24.300  1.00  0.00     0.105 A 
HETATM   29  C14 UNL     1      21.769 -14.231  23.231  1.00  0.00     0.105 A 
HETATM   30  O3  UNL     1      22.396 -13.121  25.066  1.00  0.00    -0.323 OA
HETATM   31  C15 UNL     1      20.866 -14.700  22.306  1.00  0.00     0.048 A 
HETATM   32  O2  UNL     1      23.146 -14.376  23.333  1.00  0.00    -0.323 OA
HETATM   33  C16 UNL     1      23.552 -13.581  24.424  1.00  0.00     0.352 C 
ENDBRANCH  24  25
ENDBRANCH   5  24
BRANCH   6  34
HETATM   34  C18 UNL     1      19.787 -12.479  19.762  1.00  0.00     0.009 A 
HETATM   35  C19 UNL     1      20.632 -11.865  18.726  1.00  0.00     0.007 A 
HETATM   36  C20 UNL     1      21.109 -13.152  19.360  1.00  0.00     0.007 A 
ENDBRANCH   6  34
TORSDOF 5
ENDMDL
