MODEL 8
REMARK VINA RESULT: -9.694497466      3.837      7.352
REMARK  5 active torsions:
REMARK  status: ('A' for Active; 'I' for Inactive)
REMARK    1  A    between atoms: C1_2  and  C2_6 
REMARK    2  A    between atoms: C5_9  and  C6_10 
REMARK    3  A    between atoms: N3_14  and  C9_15 
REMARK    4  A    between atoms: C9_15  and  C10_16 
REMARK    5  A    between atoms: C17_25  and  C18_26 
ROOT
HETATM    1  C6  UNL     1      15.657 -12.484  19.742  1.00  0.00     0.270 C 
HETATM    2  C7  UNL     1      15.061 -12.965  18.433  1.00  0.00     0.124 C 
HETATM    3  C8  UNL     1      14.477 -11.895  17.623  1.00  0.00     0.227 C 
HETATM    4  O1  UNL     1      13.829 -10.867  17.937  1.00  0.00    -0.273 OA
HETATM    5  N3  UNL     1      14.784 -12.215  16.254  1.00  0.00    -0.342 N 
HETATM    6  C17 UNL     1      15.856 -13.189  16.230  1.00  0.00     0.098 C 
HETATM    7  C21 UNL     1      16.365 -13.221  17.653  1.00  0.00     0.058 C 
HETATM    8  C22 UNL     1      17.133 -11.982  18.016  1.00  0.00     0.231 C 
HETATM    9  C23 UNL     1      18.613 -12.129  18.028  1.00  0.00     0.038 C 
HETATM   10  C24 UNL     1      18.946 -12.476  19.440  1.00  0.00     0.032 C 
HETATM   11  C25 UNL     1      17.835 -11.821  20.227  1.00  0.00     0.274 C 
HETATM   12  N4  UNL     1      16.719 -11.613  19.354  1.00  0.00     0.103 N 
ENDROOT
BRANCH   1  13
HETATM   13  C5  UNL     1      14.648 -11.917  20.643  1.00  0.00    -0.024 A 
HETATM   14  C4  UNL     1      13.656 -12.700  21.182  1.00  0.00     0.010 A 
HETATM   15  C3  UNL     1      12.690 -12.163  22.036  1.00  0.00     0.015 A 
HETATM   16  C2  UNL     1      12.693 -10.825  22.374  1.00  0.00     0.004 A 
HETATM   17  C27 UNL     1      13.681 -10.034  21.841  1.00  0.00     0.015 A 
HETATM   18  C26 UNL     1      14.646 -10.582  20.984  1.00  0.00     0.010 A 
BRANCH  16  19
HETATM   19  C1  UNL     1      11.647 -10.315  23.287  1.00  0.00     0.120 C 
HETATM   20  N1  UNL     1      11.760  -8.977  23.748  1.00  0.00    -0.082 NA
HETATM   21  N2  UNL     1      10.655 -11.034  23.669  1.00  0.00    -0.387 N 
ATOM     22  H22 UNL     1       9.934 -10.683  24.299  1.00  0.00     0.157 HD
ATOM     23  H21 UNL     1      10.574 -11.995  23.338  1.00  0.00     0.157 HD
ENDBRANCH  16  19
ENDBRANCH   1  13
BRANCH   5  24
HETATM   24  C9  UNL     1      14.139 -11.657  15.090  1.00  0.00     0.165 C 
BRANCH  24  25
HETATM   25  C10 UNL     1      15.027 -11.695  13.872  1.00  0.00    -0.037 A 
HETATM   26  C11 UNL     1      14.780 -12.557  12.839  1.00  0.00     0.012 A 
HETATM   27  C12 UNL     1      15.601 -12.567  11.743  1.00  0.00     0.040 A 
HETATM   28  C13 UNL     1      16.670 -11.701  11.703  1.00  0.00     0.105 A 
HETATM   29  C14 UNL     1      16.924 -10.820  12.757  1.00  0.00     0.105 A 
HETATM   30  O3  UNL     1      17.639 -11.499  10.752  1.00  0.00    -0.323 OA
HETATM   31  C15 UNL     1      16.089 -10.823  13.849  1.00  0.00     0.048 A 
HETATM   32  O2  UNL     1      18.053 -10.067  12.460  1.00  0.00    -0.323 OA
HETATM   33  C16 UNL     1      18.566 -10.576  11.250  1.00  0.00     0.352 C 
ENDBRANCH  24  25
ENDBRANCH   5  24
BRANCH   6  34
HETATM   34  C18 UNL     1      15.404 -14.521  15.739  1.00  0.00     0.009 A 
HETATM   35  C19 UNL     1      16.061 -15.781  16.120  1.00  0.00     0.007 A 
HETATM   36  C20 UNL     1      16.388 -15.192  14.766  1.00  0.00     0.007 A 
ENDBRANCH   6  34
TORSDOF 5
ENDMDL
