MODEL 9
REMARK VINA RESULT: -8.962709651      3.108      7.743
REMARK  5 active torsions:
REMARK  status: ('A' for Active; 'I' for Inactive)
REMARK    1  A    between atoms: C2_2  and  C3_3 
REMARK    2  A    between atoms: N1_8  and  C7_9 
REMARK    3  A    between atoms: C7_9  and  C8_10 
REMARK    4  A    between atoms: C15_19  and  C16_20 
REMARK    5  A    between atoms: C19_23  and  C20_24 
ROOT
HETATM    1  C3  UNL     1      13.688 -14.997  19.189  1.00  0.00     0.094 C 
HETATM    2  C4  UNL     1      14.511 -16.115  19.728  1.00  0.00     0.062 C 
HETATM    3  C5  UNL     1      15.310 -15.462  20.836  1.00  0.00     0.124 C 
HETATM    4  C6  UNL     1      15.459 -14.086  20.384  1.00  0.00     0.227 C 
HETATM    5  O1  UNL     1      16.378 -13.248  20.571  1.00  0.00    -0.273 OA
HETATM    6  N1  UNL     1      14.307 -13.761  19.613  1.00  0.00    -0.342 N 
HETATM    7  C15 UNL     1      16.553 -16.291  20.867  1.00  0.00     0.270 C 
HETATM    8  N4  UNL     1      16.730 -16.925  19.604  1.00  0.00     0.103 N 
HETATM    9  C23 UNL     1      16.969 -18.347  19.749  1.00  0.00     0.311 C 
HETATM   10  C24 UNL     1      15.549 -16.646  18.794  1.00  0.00     0.159 C 
HETATM   11  C25 UNL     1      15.008 -17.945  18.189  1.00  0.00     0.049 C 
HETATM   12  C26 UNL     1      15.848 -15.720  17.646  1.00  0.00     0.049 C 
ENDROOT
BRANCH   7  13
HETATM   13  C16 UNL     1      17.746 -15.644  21.406  1.00  0.00    -0.024 A 
HETATM   14  C17 UNL     1      17.846 -15.343  22.745  1.00  0.00     0.010 A 
HETATM   15  C18 UNL     1      18.967 -14.729  23.294  1.00  0.00     0.015 A 
HETATM   16  C19 UNL     1      20.044 -14.394  22.501  1.00  0.00     0.004 A 
HETATM   17  C21 UNL     1      19.954 -14.690  21.157  1.00  0.00     0.015 A 
HETATM   18  C22 UNL     1      18.843 -15.296  20.621  1.00  0.00     0.010 A 
BRANCH  16  19
HETATM   19  C20 UNL     1      21.236 -13.746  23.064  1.00  0.00     0.120 C 
HETATM   20  N2  UNL     1      21.151 -13.280  24.408  1.00  0.00    -0.082 NA
HETATM   21  N3  UNL     1      22.326 -13.581  22.428  1.00  0.00    -0.387 N 
ATOM     22  H32 UNL     1      22.388 -13.914  21.466  1.00  0.00     0.157 HD
ATOM     23  H31 UNL     1      23.154 -13.130  22.819  1.00  0.00     0.157 HD
ENDBRANCH  16  19
ENDBRANCH   7  13
BRANCH   1  24
HETATM   24  C2  UNL     1      12.231 -15.100  19.554  1.00  0.00     0.021 C 
HETATM   25  C1  UNL     1      11.562 -16.216  18.765  1.00  0.00     0.007 C 
ENDBRANCH   1  24
BRANCH   6  26
HETATM   26  C7  UNL     1      13.777 -12.469  19.258  1.00  0.00     0.165 C 
BRANCH  26  27
HETATM   27  C8  UNL     1      13.440 -11.599  20.381  1.00  0.00    -0.037 A 
HETATM   28  C9  UNL     1      14.085 -10.403  20.612  1.00  0.00     0.012 A 
HETATM   29  C10 UNL     1      13.712  -9.637  21.697  1.00  0.00     0.040 A 
HETATM   30  C11 UNL     1      12.705 -10.027  22.570  1.00  0.00     0.105 A 
HETATM   31  C12 UNL     1      12.061 -11.225  22.336  1.00  0.00     0.105 A 
HETATM   32  O3  UNL     1      12.142  -9.455  23.719  1.00  0.00    -0.323 OA
HETATM   33  C13 UNL     1      12.438 -11.997  21.242  1.00  0.00     0.048 A 
HETATM   34  O2  UNL     1      11.116 -11.358  23.349  1.00  0.00    -0.323 OA
HETATM   35  C14 UNL     1      11.628 -10.585  24.441  1.00  0.00     0.352 C 
ENDBRANCH  26  27
ENDBRANCH   6  26
TORSDOF 5
ENDMDL
