MODEL 7
REMARK VINA RESULT: -9.137016259      2.665      7.625
REMARK  5 active torsions:
REMARK  status: ('A' for Active; 'I' for Inactive)
REMARK    1  A    between atoms: C2_2  and  C3_3 
REMARK    2  A    between atoms: N1_8  and  C7_9 
REMARK    3  A    between atoms: C7_9  and  C8_10 
REMARK    4  A    between atoms: C15_19  and  C16_20 
REMARK    5  A    between atoms: C19_23  and  C20_24 
ROOT
HETATM    1  C3  UNL     1      16.287 -13.846  19.215  1.00  0.00     0.094 C 
HETATM    2  C4  UNL     1      17.703 -13.933  18.764  1.00  0.00     0.062 C 
HETATM    3  C5  UNL     1      18.363 -14.771  19.839  1.00  0.00     0.124 C 
HETATM    4  C6  UNL     1      17.592 -14.463  21.034  1.00  0.00     0.227 C 
HETATM    5  O1  UNL     1      17.924 -14.424  22.247  1.00  0.00    -0.273 OA
HETATM    6  N1  UNL     1      16.259 -14.178  20.622  1.00  0.00    -0.342 N 
HETATM    7  C15 UNL     1      19.774 -14.275  19.810  1.00  0.00     0.270 C 
HETATM    8  N4  UNL     1      19.802 -12.962  19.261  1.00  0.00     0.103 N 
HETATM    9  C23 UNL     1      20.790 -12.845  18.207  1.00  0.00     0.311 C 
HETATM   10  C24 UNL     1      18.458 -12.645  18.792  1.00  0.00     0.159 C 
HETATM   11  C25 UNL     1      18.515 -12.109  17.357  1.00  0.00     0.049 C 
HETATM   12  C26 UNL     1      17.795 -11.583  19.627  1.00  0.00     0.049 C 
ENDROOT
BRANCH   7  13
HETATM   13  C16 UNL     1      20.542 -14.448  21.041  1.00  0.00    -0.024 A 
HETATM   14  C17 UNL     1      21.044 -13.364  21.721  1.00  0.00     0.010 A 
HETATM   15  C18 UNL     1      21.777 -13.490  22.897  1.00  0.00     0.015 A 
HETATM   16  C19 UNL     1      22.031 -14.733  23.437  1.00  0.00     0.004 A 
HETATM   17  C21 UNL     1      21.531 -15.827  22.762  1.00  0.00     0.015 A 
HETATM   18  C22 UNL     1      20.809 -15.695  21.600  1.00  0.00     0.010 A 
BRANCH  16  19
HETATM   19  C20 UNL     1      22.802 -14.885  24.678  1.00  0.00     0.120 C 
HETATM   20  N2  UNL     1      22.853 -16.187  25.257  1.00  0.00    -0.082 NA
HETATM   21  N3  UNL     1      23.419 -13.935  25.256  1.00  0.00    -0.387 N 
ATOM     22  H32 UNL     1      23.382 -13.003  24.842  1.00  0.00     0.157 HD
ATOM     23  H31 UNL     1      23.954 -14.041  26.118  1.00  0.00     0.157 HD
ENDBRANCH  16  19
ENDBRANCH   7  13
BRANCH   1  24
HETATM   24  C2  UNL     1      15.344 -14.672  18.381  1.00  0.00     0.021 C 
HETATM   25  C1  UNL     1      16.046 -15.183  17.132  1.00  0.00     0.007 C 
ENDBRANCH   1  24
BRANCH   6  26
HETATM   26  C7  UNL     1      15.041 -14.182  21.392  1.00  0.00     0.165 C 
BRANCH  26  27
HETATM   27  C8  UNL     1      14.443 -12.870  21.626  1.00  0.00    -0.037 A 
HETATM   28  C9  UNL     1      15.042 -11.699  21.215  1.00  0.00     0.012 A 
HETATM   29  C10 UNL     1      14.416 -10.498  21.475  1.00  0.00     0.040 A 
HETATM   30  C11 UNL     1      13.199 -10.422  22.140  1.00  0.00     0.105 A 
HETATM   31  C12 UNL     1      12.603 -11.598  22.551  1.00  0.00     0.105 A 
HETATM   32  O3  UNL     1      12.367  -9.362  22.524  1.00  0.00    -0.323 OA
HETATM   33  C13 UNL     1      13.235 -12.809  22.287  1.00  0.00     0.048 A 
HETATM   34  O2  UNL     1      11.417 -11.228  23.177  1.00  0.00    -0.323 OA
HETATM   35  C14 UNL     1      11.642  -9.893  23.644  1.00  0.00     0.352 C 
ENDBRANCH  26  27
ENDBRANCH   6  26
TORSDOF 5
ENDMDL
