MODEL 2
REMARK VINA RESULT: -10.043222202      0.602      1.244
REMARK  5 active torsions:
REMARK  status: ('A' for Active; 'I' for Inactive)
REMARK    1  A    between atoms: C2_2  and  C3_3 
REMARK    2  A    between atoms: N1_8  and  C7_9 
REMARK    3  A    between atoms: C7_9  and  C8_10 
REMARK    4  A    between atoms: C15_19  and  C16_20 
REMARK    5  A    between atoms: C19_23  and  C20_24 
ROOT
HETATM    1  C3  UNL     1      18.726 -13.845  19.308  1.00  0.00     0.094 C 
HETATM    2  C4  UNL     1      17.873 -12.782  18.709  1.00  0.00     0.062 C 
HETATM    3  C5  UNL     1      17.218 -12.137  19.911  1.00  0.00     0.124 C 
HETATM    4  C6  UNL     1      17.130 -13.223  20.876  1.00  0.00     0.227 C 
HETATM    5  O1  UNL     1      16.291 -13.459  21.784  1.00  0.00    -0.273 OA
HETATM    6  N1  UNL     1      18.234 -14.092  20.646  1.00  0.00    -0.342 N 
HETATM    7  C15 UNL     1      15.925 -11.643  19.345  1.00  0.00     0.270 C 
HETATM    8  N4  UNL     1      15.599 -12.397  18.183  1.00  0.00     0.103 N 
HETATM    9  C23 UNL     1      15.272 -11.537  17.062  1.00  0.00     0.311 C 
HETATM   10  C24 UNL     1      16.726 -13.276  17.890  1.00  0.00     0.159 C 
HETATM   11  C25 UNL     1      17.120 -13.151  16.414  1.00  0.00     0.049 C 
HETATM   12  C26 UNL     1      16.399 -14.725  18.133  1.00  0.00     0.049 C 
ENDROOT
BRANCH   7  13
HETATM   13  C16 UNL     1      14.830 -11.468  20.297  1.00  0.00    -0.024 A 
HETATM   14  C17 UNL     1      14.754 -10.350  21.093  1.00  0.00     0.010 A 
HETATM   15  C18 UNL     1      13.725 -10.149  22.008  1.00  0.00     0.015 A 
HETATM   16  C19 UNL     1      12.721 -11.083  22.152  1.00  0.00     0.004 A 
HETATM   17  C21 UNL     1      12.788 -12.209  21.358  1.00  0.00     0.015 A 
HETATM   18  C22 UNL     1      13.808 -12.401  20.457  1.00  0.00     0.010 A 
BRANCH  16  19
HETATM   19  C20 UNL     1      11.626 -10.887  23.112  1.00  0.00     0.120 C 
HETATM   20  N2  UNL     1      11.630  -9.677  23.865  1.00  0.00    -0.082 NA
HETATM   21  N3  UNL     1      10.689 -11.725  23.306  1.00  0.00    -0.387 N 
ATOM     22  H32 UNL     1      10.686 -12.591  22.767  1.00  0.00     0.157 HD
ATOM     23  H31 UNL     1       9.929 -11.589  23.973  1.00  0.00     0.157 HD
ENDBRANCH  16  19
ENDBRANCH   7  13
BRANCH   1  24
HETATM   24  C2  UNL     1      20.197 -13.531  19.254  1.00  0.00     0.021 C 
HETATM   25  C1  UNL     1      20.521 -12.712  18.013  1.00  0.00     0.007 C 
ENDBRANCH   1  24
BRANCH   6  26
HETATM   26  C7  UNL     1      18.823 -15.076  21.517  1.00  0.00     0.165 C 
BRANCH  26  27
HETATM   27  C8  UNL     1      19.909 -14.591  22.366  1.00  0.00    -0.037 A 
HETATM   28  C9  UNL     1      21.230 -14.909  22.133  1.00  0.00     0.012 A 
HETATM   29  C10 UNL     1      22.199 -14.415  22.981  1.00  0.00     0.040 A 
HETATM   30  C11 UNL     1      21.893 -13.605  24.067  1.00  0.00     0.105 A 
HETATM   31  C12 UNL     1      20.569 -13.290  24.297  1.00  0.00     0.105 A 
HETATM   32  O3  UNL     1      22.661 -12.984  25.062  1.00  0.00    -0.323 OA
HETATM   33  C13 UNL     1      19.593 -13.788  23.441  1.00  0.00     0.048 A 
HETATM   34  O2  UNL     1      20.559 -12.480  25.429  1.00  0.00    -0.323 OA
HETATM   35  C14 UNL     1      21.741 -12.836  26.154  1.00  0.00     0.352 C 
ENDBRANCH  26  27
ENDBRANCH   6  26
TORSDOF 5
ENDMDL
