MODEL 1
REMARK VINA RESULT: -10.658789002      0.000      0.000
REMARK  5 active torsions:
REMARK  status: ('A' for Active; 'I' for Inactive)
REMARK    1  A    between atoms: C2_2  and  C3_3 
REMARK    2  A    between atoms: N1_8  and  C7_9 
REMARK    3  A    between atoms: C7_9  and  C8_10 
REMARK    4  A    between atoms: C15_19  and  C16_20 
REMARK    5  A    between atoms: C19_23  and  C20_24 
ROOT
HETATM    1  C3  UNL     1      18.849 -13.858  19.432  1.00  0.00     0.094 C 
HETATM    2  C4  UNL     1      17.988 -12.819  18.805  1.00  0.00     0.062 C 
HETATM    3  C5  UNL     1      17.314 -12.158  19.990  1.00  0.00     0.124 C 
HETATM    4  C6  UNL     1      17.233 -13.226  20.975  1.00  0.00     0.227 C 
HETATM    5  O1  UNL     1      16.391 -13.455  21.881  1.00  0.00    -0.273 OA
HETATM    6  N1  UNL     1      18.350 -14.084  20.771  1.00  0.00    -0.342 N 
HETATM    7  C15 UNL     1      16.020 -11.692  19.404  1.00  0.00     0.270 C 
HETATM    8  N4  UNL     1      15.712 -12.474  18.254  1.00  0.00     0.103 N 
HETATM    9  C23 UNL     1      15.384 -11.640  17.115  1.00  0.00     0.311 C 
HETATM   10  C24 UNL     1      16.853 -13.344  17.988  1.00  0.00     0.159 C 
HETATM   11  C25 UNL     1      17.258 -13.243  16.513  1.00  0.00     0.049 C 
HETATM   12  C26 UNL     1      16.543 -14.791  18.257  1.00  0.00     0.049 C 
ENDROOT
BRANCH   7  13
HETATM   13  C16 UNL     1      14.916 -11.514  20.344  1.00  0.00    -0.024 A 
HETATM   14  C17 UNL     1      14.794 -10.361  21.084  1.00  0.00     0.010 A 
HETATM   15  C18 UNL     1      13.755 -10.156  21.986  1.00  0.00     0.015 A 
HETATM   16  C19 UNL     1      12.786 -11.119  22.173  1.00  0.00     0.004 A 
HETATM   17  C21 UNL     1      12.899 -12.278  21.436  1.00  0.00     0.015 A 
HETATM   18  C22 UNL     1      13.929 -12.476  20.547  1.00  0.00     0.010 A 
BRANCH  16  19
HETATM   19  C20 UNL     1      11.681 -10.918  23.121  1.00  0.00     0.120 C 
HETATM   20  N2  UNL     1      11.695  -9.719  23.893  1.00  0.00    -0.082 NA
HETATM   21  N3  UNL     1      10.726 -11.742  23.288  1.00  0.00    -0.387 N 
ATOM     22  H32 UNL     1      10.716 -12.599  22.735  1.00  0.00     0.157 HD
ATOM     23  H31 UNL     1       9.959 -11.602  23.946  1.00  0.00     0.157 HD
ENDBRANCH  16  19
ENDBRANCH   7  13
BRANCH   1  24
HETATM   24  C2  UNL     1      20.316 -13.526  19.382  1.00  0.00     0.021 C 
HETATM   25  C1  UNL     1      20.645 -12.756  18.112  1.00  0.00     0.007 C 
ENDBRANCH   1  24
BRANCH   6  26
HETATM   26  C7  UNL     1      18.946 -15.043  21.666  1.00  0.00     0.165 C 
BRANCH  26  27
HETATM   27  C8  UNL     1      19.914 -14.498  22.614  1.00  0.00    -0.037 A 
HETATM   28  C9  UNL     1      19.555 -13.627  23.621  1.00  0.00     0.012 A 
HETATM   29  C10 UNL     1      20.527 -13.153  24.476  1.00  0.00     0.040 A 
HETATM   30  C11 UNL     1      21.862 -13.522  24.363  1.00  0.00     0.105 A 
HETATM   31  C12 UNL     1      22.217 -14.394  23.353  1.00  0.00     0.105 A 
HETATM   32  O3  UNL     1      23.023 -13.198  25.078  1.00  0.00    -0.323 OA
HETATM   33  C13 UNL     1      21.235 -14.872  22.491  1.00  0.00     0.048 A 
HETATM   34  O2  UNL     1      23.590 -14.584  23.476  1.00  0.00    -0.323 OA
HETATM   35  C14 UNL     1      24.075 -13.402  24.122  1.00  0.00     0.352 C 
ENDBRANCH  26  27
ENDBRANCH   6  26
TORSDOF 5
ENDMDL
