MODEL 8
REMARK VINA RESULT: -8.974225236      2.952      7.285
REMARK  5 active torsions:
REMARK  status: ('A' for Active; 'I' for Inactive)
REMARK    1  A    between atoms: C2_2  and  C3_3 
REMARK    2  A    between atoms: N1_8  and  C7_9 
REMARK    3  A    between atoms: C7_9  and  C8_10 
REMARK    4  A    between atoms: C15_19  and  C16_20 
REMARK    5  A    between atoms: C19_23  and  C20_24 
ROOT
HETATM    1  C3  UNL     1      17.521 -13.084  19.021  1.00  0.00     0.094 C 
HETATM    2  C4  UNL     1      18.822 -13.553  19.573  1.00  0.00     0.062 C 
HETATM    3  C5  UNL     1      18.440 -14.771  20.388  1.00  0.00     0.124 C 
HETATM    4  C6  UNL     1      17.085 -14.474  20.829  1.00  0.00     0.227 C 
HETATM    5  O1  UNL     1      16.462 -14.803  21.872  1.00  0.00    -0.273 OA
HETATM    6  N1  UNL     1      16.472 -13.672  19.825  1.00  0.00    -0.342 N 
HETATM    7  C15 UNL     1      19.495 -14.791  21.447  1.00  0.00     0.270 C 
HETATM    8  N4  UNL     1      20.034 -13.482  21.603  1.00  0.00     0.103 N 
HETATM    9  C23 UNL     1      21.483 -13.493  21.558  1.00  0.00     0.311 C 
HETATM   10  C24 UNL     1      19.458 -12.635  20.564  1.00  0.00     0.159 C 
HETATM   11  C25 UNL     1      20.567 -11.865  19.839  1.00  0.00     0.049 C 
HETATM   12  C26 UNL     1      18.509 -11.611  21.123  1.00  0.00     0.049 C 
ENDROOT
BRANCH   7  13
HETATM   13  C16 UNL     1      19.144 -15.468  22.693  1.00  0.00    -0.024 A 
HETATM   14  C17 UNL     1      18.973 -16.832  22.736  1.00  0.00     0.010 A 
HETATM   15  C18 UNL     1      18.641 -17.510  23.904  1.00  0.00     0.015 A 
HETATM   16  C19 UNL     1      18.469 -16.826  25.089  1.00  0.00     0.004 A 
HETATM   17  C21 UNL     1      18.638 -15.458  25.058  1.00  0.00     0.015 A 
HETATM   18  C22 UNL     1      18.965 -14.794  23.899  1.00  0.00     0.010 A 
BRANCH  16  19
HETATM   19  C20 UNL     1      18.120 -17.526  26.333  1.00  0.00     0.120 C 
HETATM   20  N2  UNL     1      17.218 -18.626  26.230  1.00  0.00    -0.082 NA
HETATM   21  N3  UNL     1      18.570 -17.210  27.480  1.00  0.00    -0.387 N 
ATOM     22  H32 UNL     1      19.215 -16.423  27.554  1.00  0.00     0.157 HD
ATOM     23  H31 UNL     1      18.327 -17.696  28.343  1.00  0.00     0.157 HD
ENDBRANCH  16  19
ENDBRANCH   7  13
BRANCH   1  24
HETATM   24  C2  UNL     1      17.370 -13.346  17.546  1.00  0.00     0.021 C 
HETATM   25  C1  UNL     1      18.228 -12.379  16.744  1.00  0.00     0.007 C 
ENDBRANCH   1  24
BRANCH   6  26
HETATM   26  C7  UNL     1      15.076 -13.421  19.577  1.00  0.00     0.165 C 
BRANCH  26  27
HETATM   27  C8  UNL     1      14.488 -12.332  20.354  1.00  0.00    -0.037 A 
HETATM   28  C9  UNL     1      15.044 -11.072  20.404  1.00  0.00     0.012 A 
HETATM   29  C10 UNL     1      14.432 -10.097  21.162  1.00  0.00     0.040 A 
HETATM   30  C11 UNL     1      13.268 -10.336  21.881  1.00  0.00     0.105 A 
HETATM   31  C12 UNL     1      12.714 -11.599  21.829  1.00  0.00     0.105 A 
HETATM   32  O3  UNL     1      12.459  -9.547  22.711  1.00  0.00    -0.323 OA
HETATM   33  C13 UNL     1      13.332 -12.582  21.064  1.00  0.00     0.048 A 
HETATM   34  O2  UNL     1      11.576 -11.552  22.629  1.00  0.00    -0.323 OA
HETATM   35  C14 UNL     1      11.825 -10.505  23.572  1.00  0.00     0.352 C 
ENDBRANCH  26  27
ENDBRANCH   6  26
TORSDOF 5
ENDMDL
