MODEL 16
REMARK VINA RESULT: -7.007505341      3.148      4.478
REMARK  5 active torsions:
REMARK  status: ('A' for Active; 'I' for Inactive)
REMARK    1  A    between atoms: O1_1  and  C1_3 
REMARK    2  A    between atoms: C1_3  and  C2_4 
REMARK    3  A    between atoms: C1_3  and  P1_12 
REMARK    4  A    between atoms: C1_3  and  P2_16 
REMARK    5  A    between atoms: C2_4  and  C3_5 
ROOT
HETATM    1  C1  UNL     1      15.001  32.421  -8.183  1.00  0.00     0.289 C 
ENDROOT
BRANCH   1   2
HETATM    2  O1  UNL     1      15.286  33.182  -6.993  1.00  0.00    -0.365 OA
ATOM      3  H1  UNL     1      15.238  34.063  -7.345  1.00  0.00     0.212 HD
ENDBRANCH   1   2
BRANCH   1   4
HETATM    4  C2  UNL     1      13.654  33.054  -8.589  1.00  0.00     0.108 C 
BRANCH   4   5
HETATM    5  C3  UNL     1      12.844  33.637  -7.575  1.00  0.00    -0.038 A 
HETATM    6  C4  UNL     1      12.867  35.019  -7.340  1.00  0.00     0.010 A 
HETATM    7  C5  UNL     1      12.069  35.607  -6.382  1.00  0.00     0.018 A 
HETATM    8  C6  UNL     1      11.229  34.787  -5.641  1.00  0.00     0.087 A 
HETATM    9  N1  UNL     1      11.219  33.467  -5.880  1.00  0.00    -0.375 N 
HETATM   10  C7  UNL     1      11.986  32.875  -6.807  1.00  0.00     0.094 A 
ATOM     11  H1  UNL     1      10.594  32.882  -5.326  1.00  0.00     0.164 HD
ENDBRANCH   4   5
ENDBRANCH   1   4
BRANCH   1  12
HETATM   12  P1  UNL     1      14.873  30.806  -7.801  1.00  0.00     0.310 P 
HETATM   13  O2  UNL     1      13.703  30.543  -8.919  1.00  0.00    -0.637 OA
HETATM   14  O3  UNL     1      16.424  30.454  -8.231  1.00  0.00    -0.637 OA
HETATM   15  O4  UNL     1      14.712  29.402  -7.136  1.00  0.00    -0.637 OA
ENDBRANCH   1  12
BRANCH   1  16
HETATM   16  P2  UNL     1      16.142  32.893  -9.369  1.00  0.00     0.310 P 
HETATM   17  O5  UNL     1      16.693  34.067  -8.338  1.00  0.00    -0.637 OA
HETATM   18  O6  UNL     1      17.411  33.125 -10.198  1.00  0.00    -0.637 OA
HETATM   19  O7  UNL     1      15.071  33.324 -10.512  1.00  0.00    -0.637 OA
ENDBRANCH   1  16
TORSDOF 5
ENDMDL
