MODEL 7
REMARK VINA RESULT: -7.317558024      2.581      3.694
REMARK  5 active torsions:
REMARK  status: ('A' for Active; 'I' for Inactive)
REMARK    1  A    between atoms: O1_1  and  C1_3 
REMARK    2  A    between atoms: C1_3  and  C2_4 
REMARK    3  A    between atoms: C1_3  and  P1_12 
REMARK    4  A    between atoms: C1_3  and  P2_16 
REMARK    5  A    between atoms: C2_4  and  C3_5 
ROOT
HETATM    1  C1  UNL     1      16.633  34.467  -9.385  1.00  0.00     0.289 C 
ENDROOT
BRANCH   1   2
HETATM    2  O1  UNL     1      17.229  33.435  -8.576  1.00  0.00    -0.365 OA
ATOM      3  H1  UNL     1      16.783  33.593  -7.752  1.00  0.00     0.212 HD
ENDBRANCH   1   2
BRANCH   1   4
HETATM    4  C2  UNL     1      15.263  33.821  -9.678  1.00  0.00     0.108 C 
BRANCH   4   5
HETATM    5  C3  UNL     1      15.012  32.509  -9.186  1.00  0.00    -0.038 A 
HETATM    6  C4  UNL     1      15.441  31.379  -9.895  1.00  0.00     0.010 A 
HETATM    7  C5  UNL     1      15.232  30.101  -9.423  1.00  0.00     0.018 A 
HETATM    8  C6  UNL     1      14.575  29.955  -8.209  1.00  0.00     0.087 A 
HETATM    9  N1  UNL     1      14.172  31.048  -7.543  1.00  0.00    -0.375 N 
HETATM   10  C7  UNL     1      14.366  32.300  -7.985  1.00  0.00     0.094 A 
ATOM     11  H1  UNL     1      13.692  30.920  -6.652  1.00  0.00     0.164 HD
ENDBRANCH   4   5
ENDBRANCH   1   4
BRANCH   1  12
HETATM   12  P1  UNL     1      17.547  34.707 -10.756  1.00  0.00     0.310 P 
HETATM   13  O2  UNL     1      17.977  33.128 -10.853  1.00  0.00    -0.637 OA
HETATM   14  O3  UNL     1      16.269  35.201 -11.671  1.00  0.00    -0.637 OA
HETATM   15  O4  UNL     1      18.550  35.166 -11.861  1.00  0.00    -0.637 OA
ENDBRANCH   1  12
BRANCH   1  16
HETATM   16  P2  UNL     1      16.334  35.805  -8.357  1.00  0.00     0.310 P 
HETATM   17  O5  UNL     1      17.780  36.460  -8.831  1.00  0.00    -0.637 OA
HETATM   18  O6  UNL     1      15.982  37.178  -7.775  1.00  0.00    -0.637 OA
HETATM   19  O7  UNL     1      16.294  34.975  -6.962  1.00  0.00    -0.637 OA
ENDBRANCH   1  16
TORSDOF 5
ENDMDL
