MODEL 4
REMARK VINA RESULT: -7.465027433      1.721      2.992
REMARK  5 active torsions:
REMARK  status: ('A' for Active; 'I' for Inactive)
REMARK    1  A    between atoms: O1_1  and  C1_3 
REMARK    2  A    between atoms: C1_3  and  C2_4 
REMARK    3  A    between atoms: C1_3  and  P1_12 
REMARK    4  A    between atoms: C1_3  and  P2_16 
REMARK    5  A    between atoms: C2_4  and  C3_5 
ROOT
HETATM    1  C1  UNL     1      15.276  33.819  -8.460  1.00  0.00     0.289 C 
ENDROOT
BRANCH   1   2
HETATM    2  O1  UNL     1      14.182  34.349  -9.232  1.00  0.00    -0.365 OA
ATOM      3  H1  UNL     1      14.485  35.240  -9.359  1.00  0.00     0.212 HD
ENDBRANCH   1   2
BRANCH   1   4
HETATM    4  C2  UNL     1      14.506  32.866  -7.523  1.00  0.00     0.108 C 
BRANCH   4   5
HETATM    5  C3  UNL     1      14.743  31.467  -7.633  1.00  0.00    -0.038 A 
HETATM    6  C4  UNL     1      15.601  30.809  -6.741  1.00  0.00     0.010 A 
HETATM    7  C5  UNL     1      15.823  29.451  -6.813  1.00  0.00     0.018 A 
HETATM    8  C6  UNL     1      15.167  28.735  -7.805  1.00  0.00     0.087 A 
HETATM    9  N1  UNL     1      14.349  29.381  -8.649  1.00  0.00    -0.375 N 
HETATM   10  C7  UNL     1      14.119  30.702  -8.597  1.00  0.00     0.094 A 
ATOM     11  H1  UNL     1      13.875  28.837  -9.371  1.00  0.00     0.164 HD
ENDBRANCH   4   5
ENDBRANCH   1   4
BRANCH   1  12
HETATM   12  P1  UNL     1      16.042  35.054  -7.647  1.00  0.00     0.310 P 
HETATM   13  O2  UNL     1      14.935  36.169  -8.116  1.00  0.00    -0.637 OA
HETATM   14  O3  UNL     1      15.842  34.366  -6.163  1.00  0.00    -0.637 OA
HETATM   15  O4  UNL     1      17.025  36.113  -7.053  1.00  0.00    -0.637 OA
ENDBRANCH   1  12
BRANCH   1  16
HETATM   16  P2  UNL     1      16.203  32.833  -9.510  1.00  0.00     0.310 P 
HETATM   17  O5  UNL     1      17.491  33.852  -9.290  1.00  0.00    -0.637 OA
HETATM   18  O6  UNL     1      17.191  31.828 -10.114  1.00  0.00    -0.637 OA
HETATM   19  O7  UNL     1      15.286  33.039 -10.834  1.00  0.00    -0.637 OA
ENDBRANCH   1  16
TORSDOF 5
ENDMDL
