MODEL 6
REMARK VINA RESULT: -7.336942960      1.155      2.020
REMARK  5 active torsions:
REMARK  status: ('A' for Active; 'I' for Inactive)
REMARK    1  A    between atoms: O1_1  and  C1_3 
REMARK    2  A    between atoms: C1_3  and  C2_4 
REMARK    3  A    between atoms: C1_3  and  P1_12 
REMARK    4  A    between atoms: C1_3  and  P2_16 
REMARK    5  A    between atoms: C2_4  and  C3_5 
ROOT
HETATM    1  C1  UNL     1      15.227  33.534  -8.981  1.00  0.00     0.289 C 
ENDROOT
BRANCH   1   2
HETATM    2  O1  UNL     1      14.393  32.604  -9.698  1.00  0.00    -0.365 OA
ATOM      3  H1  UNL     1      15.056  32.017 -10.041  1.00  0.00     0.212 HD
ENDBRANCH   1   2
BRANCH   1   4
HETATM    4  C2  UNL     1      16.238  32.555  -8.350  1.00  0.00     0.108 C 
BRANCH   4   5
HETATM    5  C3  UNL     1      15.847  31.199  -8.165  1.00  0.00    -0.038 A 
HETATM    6  C4  UNL     1      15.557  30.701  -6.888  1.00  0.00     0.010 A 
HETATM    7  C5  UNL     1      15.150  29.399  -6.690  1.00  0.00     0.018 A 
HETATM    8  C6  UNL     1      15.032  28.577  -7.803  1.00  0.00     0.087 A 
HETATM    9  N1  UNL     1      15.313  29.071  -9.018  1.00  0.00    -0.375 N 
HETATM   10  C7  UNL     1      15.710  30.335  -9.232  1.00  0.00     0.094 A 
ATOM     11  H1  UNL     1      15.220  28.452  -9.824  1.00  0.00     0.164 HD
ENDBRANCH   4   5
ENDBRANCH   1   4
BRANCH   1  12
HETATM   12  P1  UNL     1      14.318  34.350  -7.850  1.00  0.00     0.310 P 
HETATM   13  O2  UNL     1      13.091  33.264  -7.921  1.00  0.00    -0.637 OA
HETATM   14  O3  UNL     1      15.425  34.163  -6.644  1.00  0.00    -0.637 OA
HETATM   15  O4  UNL     1      13.513  35.373  -6.988  1.00  0.00    -0.637 OA
ENDBRANCH   1  12
BRANCH   1  16
HETATM   16  P2  UNL     1      16.088  34.444 -10.149  1.00  0.00     0.310 P 
HETATM   17  O5  UNL     1      17.130  33.170 -10.338  1.00  0.00    -0.637 OA
HETATM   18  O6  UNL     1      16.673  35.023 -11.442  1.00  0.00    -0.637 OA
HETATM   19  O7  UNL     1      16.536  35.654  -9.163  1.00  0.00    -0.637 OA
ENDBRANCH   1  16
TORSDOF 5
ENDMDL
