MODEL 10
REMARK VINA RESULT: -7.112662541      4.172      5.984
REMARK  5 active torsions:
REMARK  status: ('A' for Active; 'I' for Inactive)
REMARK    1  A    between atoms: O1_1  and  C1_3 
REMARK    2  A    between atoms: C1_3  and  C2_4 
REMARK    3  A    between atoms: C1_3  and  P1_12 
REMARK    4  A    between atoms: C1_3  and  P2_16 
REMARK    5  A    between atoms: C2_4  and  C3_5 
ROOT
HETATM    1  C1  UNL     1      15.600  35.226  -8.315  1.00  0.00     0.289 C 
ENDROOT
BRANCH   1   2
HETATM    2  O1  UNL     1      15.081  36.556  -8.500  1.00  0.00    -0.365 OA
ATOM      3  H1  UNL     1      14.731  36.477  -9.380  1.00  0.00     0.212 HD
ENDBRANCH   1   2
BRANCH   1   4
HETATM    4  C2  UNL     1      16.731  35.516  -7.308  1.00  0.00     0.108 C 
BRANCH   4   5
HETATM    5  C3  UNL     1      17.324  36.810  -7.307  1.00  0.00    -0.038 A 
HETATM    6  C4  UNL     1      17.062  37.722  -6.276  1.00  0.00     0.010 A 
HETATM    7  C5  UNL     1      17.647  38.970  -6.241  1.00  0.00     0.018 A 
HETATM    8  C6  UNL     1      18.517  39.309  -7.268  1.00  0.00     0.087 A 
HETATM    9  N1  UNL     1      18.758  38.423  -8.246  1.00  0.00    -0.375 N 
HETATM   10  C7  UNL     1      18.199  37.205  -8.299  1.00  0.00     0.094 A 
ATOM     11  H1  UNL     1      19.401  38.691  -8.992  1.00  0.00     0.164 HD
ENDBRANCH   4   5
ENDBRANCH   1   4
BRANCH   1  12
HETATM   12  P1  UNL     1      16.157  34.631  -9.768  1.00  0.00     0.310 P 
HETATM   13  O2  UNL     1      17.444  33.891  -9.073  1.00  0.00    -0.637 OA
HETATM   14  O3  UNL     1      14.817  33.715 -10.048  1.00  0.00    -0.637 OA
HETATM   15  O4  UNL     1      16.661  34.389 -11.226  1.00  0.00    -0.637 OA
ENDBRANCH   1  12
BRANCH   1  16
HETATM   16  P2  UNL     1      14.408  34.332  -7.470  1.00  0.00     0.310 P 
HETATM   17  O5  UNL     1      13.647  35.754  -7.088  1.00  0.00    -0.637 OA
HETATM   18  O6  UNL     1      13.129  33.610  -7.030  1.00  0.00    -0.637 OA
HETATM   19  O7  UNL     1      15.402  33.678  -6.364  1.00  0.00    -0.637 OA
ENDBRANCH   1  16
TORSDOF 5
ENDMDL
