MODEL 3
REMARK VINA RESULT: -7.532077710      2.058      3.416
REMARK  5 active torsions:
REMARK  status: ('A' for Active; 'I' for Inactive)
REMARK    1  A    between atoms: O1_1  and  C1_3 
REMARK    2  A    between atoms: C1_3  and  C2_4 
REMARK    3  A    between atoms: C1_3  and  P1_12 
REMARK    4  A    between atoms: C1_3  and  P2_16 
REMARK    5  A    between atoms: C2_4  and  C3_5 
ROOT
HETATM    1  C1  UNL     1      16.116  34.354  -8.961  1.00  0.00     0.289 C 
ENDROOT
BRANCH   1   2
HETATM    2  O1  UNL     1      16.929  33.391  -8.264  1.00  0.00    -0.365 OA
ATOM      3  H1  UNL     1      17.680  33.932  -8.051  1.00  0.00     0.212 HD
ENDBRANCH   1   2
BRANCH   1   4
HETATM    4  C2  UNL     1      14.833  33.522  -9.167  1.00  0.00     0.108 C 
BRANCH   4   5
HETATM    5  C3  UNL     1      14.850  32.145  -8.806  1.00  0.00    -0.038 A 
HETATM    6  C4  UNL     1      15.262  31.166  -9.720  1.00  0.00     0.010 A 
HETATM    7  C5  UNL     1      15.312  29.831  -9.382  1.00  0.00     0.018 A 
HETATM    8  C6  UNL     1      14.939  29.471  -8.094  1.00  0.00     0.087 A 
HETATM    9  N1  UNL     1      14.548  30.422  -7.232  1.00  0.00    -0.375 N 
HETATM   10  C7  UNL     1      14.493  31.726  -7.541  1.00  0.00     0.094 A 
ATOM     11  H1  UNL     1      14.279  30.138  -6.290  1.00  0.00     0.164 HD
ENDBRANCH   4   5
ENDBRANCH   1   4
BRANCH   1  12
HETATM   12  P1  UNL     1      16.851  34.781 -10.393  1.00  0.00     0.310 P 
HETATM   13  O2  UNL     1      17.579  36.093  -9.730  1.00  0.00    -0.637 OA
HETATM   14  O3  UNL     1      17.736  33.396 -10.496  1.00  0.00    -0.637 OA
HETATM   15  O4  UNL     1      17.235  35.167 -11.857  1.00  0.00    -0.637 OA
ENDBRANCH   1  12
BRANCH   1  16
HETATM   16  P2  UNL     1      15.725  35.589  -7.842  1.00  0.00     0.310 P 
HETATM   17  O5  UNL     1      16.509  34.733  -6.660  1.00  0.00    -0.637 OA
HETATM   18  O6  UNL     1      15.750  36.791  -6.890  1.00  0.00    -0.637 OA
HETATM   19  O7  UNL     1      14.111  35.444  -7.945  1.00  0.00    -0.637 OA
ENDBRANCH   1  16
TORSDOF 5
ENDMDL
