MODEL 2
REMARK VINA RESULT: -7.739329113      1.404      2.964
REMARK  5 active torsions:
REMARK  status: ('A' for Active; 'I' for Inactive)
REMARK    1  A    between atoms: O1_1  and  C1_3 
REMARK    2  A    between atoms: C1_3  and  C2_4 
REMARK    3  A    between atoms: C1_3  and  P1_12 
REMARK    4  A    between atoms: C1_3  and  P2_16 
REMARK    5  A    between atoms: C2_4  and  C3_5 
ROOT
HETATM    1  C1  UNL     1      15.548  33.681  -8.853  1.00  0.00     0.289 C 
ENDROOT
BRANCH   1   2
HETATM    2  O1  UNL     1      16.475  32.991  -7.992  1.00  0.00    -0.365 OA
ATOM      3  H1  UNL     1      16.915  32.442  -8.630  1.00  0.00     0.212 HD
ENDBRANCH   1   2
BRANCH   1   4
HETATM    4  C2  UNL     1      14.643  32.503  -9.270  1.00  0.00     0.108 C 
BRANCH   4   5
HETATM    5  C3  UNL     1      14.920  31.212  -8.741  1.00  0.00    -0.038 A 
HETATM    6  C4  UNL     1      14.814  30.958  -7.366  1.00  0.00     0.010 A 
HETATM    7  C5  UNL     1      15.052  29.708  -6.837  1.00  0.00     0.018 A 
HETATM    8  C6  UNL     1      15.404  28.688  -7.709  1.00  0.00     0.087 A 
HETATM    9  N1  UNL     1      15.500  28.948  -9.021  1.00  0.00    -0.375 N 
HETATM   10  C7  UNL     1      15.273  30.157  -9.558  1.00  0.00     0.094 A 
ATOM     11  H1  UNL     1      15.759  28.184  -9.647  1.00  0.00     0.164 HD
ENDBRANCH   4   5
ENDBRANCH   1   4
BRANCH   1  12
HETATM   12  P1  UNL     1      16.367  34.358 -10.135  1.00  0.00     0.310 P 
HETATM   13  O2  UNL     1      17.044  35.524  -9.201  1.00  0.00    -0.637 OA
HETATM   14  O3  UNL     1      17.266  33.010 -10.433  1.00  0.00    -0.637 OA
HETATM   15  O4  UNL     1      16.838  35.001 -11.478  1.00  0.00    -0.637 OA
ENDBRANCH   1  12
BRANCH   1  16
HETATM   16  P2  UNL     1      14.598  34.701  -7.859  1.00  0.00     0.310 P 
HETATM   17  O5  UNL     1      15.442  34.160  -6.539  1.00  0.00    -0.637 OA
HETATM   18  O6  UNL     1      14.071  35.833  -6.969  1.00  0.00    -0.637 OA
HETATM   19  O7  UNL     1      13.164  34.011  -8.182  1.00  0.00    -0.637 OA
ENDBRANCH   1  16
TORSDOF 5
ENDMDL
