MODEL 9
REMARK VINA RESULT: -9.933715389      3.746      9.150
REMARK  5 active torsions:
REMARK  status: ('A' for Active; 'I' for Inactive)
REMARK    1  A    between atoms: C4_4  and  C5_5 
REMARK    2  A    between atoms: C5_5  and  C6_6 
REMARK    3  A    between atoms: N1_8  and  C8_9 
REMARK    4  A    between atoms: C10_11  and  C11_12 
REMARK    5  A    between atoms: C16_19  and  C17_20 
ROOT
HETATM    1  C8  UNL     1      21.057  14.812  29.819  1.00  0.00     0.118 A 
HETATM    2  C9  UNL     1      21.692  13.667  30.240  1.00  0.00     0.064 A 
HETATM    3  C10 UNL     1      23.034  13.657  30.562  1.00  0.00     0.007 A 
HETATM    4  C16 UNL     1      23.760  14.831  30.458  1.00  0.00     0.069 A 
HETATM    5  N3  UNL     1      23.084  15.922  30.039  1.00  0.00    -0.298 N 
ATOM      6  H3  UNL     1      23.598  16.799  29.954  1.00  0.00     0.187 HD
HETATM    7  N4  UNL     1      21.798  15.926  29.731  1.00  0.00    -0.285 N 
ATOM      8  H4  UNL     1      21.361  16.795  29.421  1.00  0.00     0.188 HD
ENDROOT
BRANCH   1   9
HETATM    9  N1  UNL     1      19.630  14.822  29.486  1.00  0.00    -0.363 N 
HETATM   10  C7  UNL     1      19.220  15.107  28.148  1.00  0.00     0.149 C 
HETATM   11  C6  UNL     1      17.748  15.379  28.063  1.00  0.00     0.098 C 
HETATM   12  N5  UNL     1      16.961  14.407  28.733  1.00  0.00    -0.414 N 
HETATM   13  C28 UNL     1      17.448  13.895  29.963  1.00  0.00     0.134 C 
ATOM     14  H5  UNL     1      16.074  14.088  28.344  1.00  0.00     0.153 HD
HETATM   15  C27 UNL     1      18.676  14.534  30.520  1.00  0.00     0.143 C 
BRANCH  11  16
HETATM   16  C5  UNL     1      17.473  16.762  28.599  1.00  0.00     0.065 C 
BRANCH  16  17
HETATM   17  C4  UNL     1      16.804  17.614  27.582  1.00  0.00    -0.056 A 
HETATM   18  C3  UNL     1      16.103  17.063  26.544  1.00  0.00     0.007 A 
HETATM   19  C2  UNL     1      15.477  17.860  25.591  1.00  0.00     0.001 A 
HETATM   20  C1  UNL     1      15.540  19.237  25.655  1.00  0.00     0.000 A 
HETATM   21  C30 UNL     1      16.254  19.772  26.711  1.00  0.00     0.001 A 
HETATM   22  C29 UNL     1      16.880  18.986  27.667  1.00  0.00     0.007 A 
ENDBRANCH  16  17
ENDBRANCH  11  16
ENDBRANCH   1   9
BRANCH   3  23
HETATM   23  C11 UNL     1      23.740  12.458  31.012  1.00  0.00    -0.021 A 
HETATM   24  C12 UNL     1      24.019  12.189  32.313  1.00  0.00     0.029 A 
HETATM   25  C13 UNL     1      24.691  11.029  32.629  1.00  0.00     0.088 A 
HETATM   26  N2  UNL     1      25.066  10.175  31.658  1.00  0.00    -0.375 N 
HETATM   27  C14 UNL     1      24.801  10.422  30.359  1.00  0.00     0.088 A 
ATOM     28  H2  UNL     1      25.563   9.320  31.910  1.00  0.00     0.164 HD
HETATM   29  C15 UNL     1      24.132  11.574  30.034  1.00  0.00     0.029 A 
ENDBRANCH   3  23
BRANCH   4  30
HETATM   30  C17 UNL     1      25.180  14.884  30.791  1.00  0.00    -0.006 A 
HETATM   31  C18 UNL     1      26.152  14.203  30.093  1.00  0.00     0.014 A 
HETATM   32  C19 UNL     1      27.500  14.298  30.471  1.00  0.00     0.013 A 
HETATM   33  C20 UNL     1      27.867  15.067  31.537  1.00  0.00    -0.026 A 
HETATM   34  C21 UNL     1      29.172  15.201  31.959  1.00  0.00     0.012 A 
HETATM   35  C25 UNL     1      26.906  15.755  32.247  1.00  0.00    -0.025 A 
HETATM   36  C22 UNL     1      29.504  15.994  33.050  1.00  0.00     0.001 A 
HETATM   37  C23 UNL     1      28.534  16.671  33.742  1.00  0.00     0.001 A 
HETATM   38  C24 UNL     1      27.233  16.546  33.333  1.00  0.00     0.012 A 
HETATM   39  C26 UNL     1      25.585  15.652  31.862  1.00  0.00     0.026 A 
ENDBRANCH   4  30
TORSDOF 5
ENDMDL
