MODEL 1
REMARK VINA RESULT: -11.409385016      0.000      0.000
REMARK  5 active torsions:
REMARK  status: ('A' for Active; 'I' for Inactive)
REMARK    1  A    between atoms: C4_4  and  C5_5 
REMARK    2  A    between atoms: C5_5  and  C6_6 
REMARK    3  A    between atoms: N1_8  and  C8_9 
REMARK    4  A    between atoms: C10_11  and  C11_12 
REMARK    5  A    between atoms: C16_19  and  C17_20 
ROOT
HETATM    1  C8  UNL     1      23.747  14.770  31.936  1.00  0.00     0.118 A 
HETATM    2  C9  UNL     1      23.606  13.412  31.771  1.00  0.00     0.064 A 
HETATM    3  C10 UNL     1      22.390  12.781  31.945  1.00  0.00     0.007 A 
HETATM    4  C16 UNL     1      21.284  13.537  32.296  1.00  0.00     0.069 A 
HETATM    5  N3  UNL     1      21.484  14.864  32.445  1.00  0.00    -0.298 N 
ATOM      6  H3  UNL     1      20.684  15.441  32.703  1.00  0.00     0.187 HD
HETATM    7  N4  UNL     1      22.651  15.463  32.278  1.00  0.00    -0.285 N 
ATOM      8  H4  UNL     1      22.718  16.472  32.410  1.00  0.00     0.188 HD
ENDROOT
BRANCH   1   9
HETATM    9  N1  UNL     1      25.037  15.438  31.742  1.00  0.00    -0.363 N 
HETATM   10  C7  UNL     1      25.678  15.377  30.468  1.00  0.00     0.149 C 
HETATM   11  C6  UNL     1      27.104  15.836  30.540  1.00  0.00     0.098 C 
HETATM   12  N5  UNL     1      27.260  17.068  31.227  1.00  0.00    -0.414 N 
HETATM   13  C28 UNL     1      26.455  17.291  32.374  1.00  0.00     0.134 C 
ATOM     14  H5  UNL     1      27.928  17.768  30.908  1.00  0.00     0.153 HD
HETATM   15  C27 UNL     1      25.621  16.148  32.845  1.00  0.00     0.143 C 
BRANCH  11  16
HETATM   16  C5  UNL     1      27.937  14.751  31.175  1.00  0.00     0.065 C 
BRANCH  16  17
HETATM   17  C4  UNL     1      27.431  13.400  30.821  1.00  0.00    -0.056 A 
HETATM   18  C3  UNL     1      27.227  13.038  29.517  1.00  0.00     0.007 A 
HETATM   19  C2  UNL     1      26.751  11.774  29.184  1.00  0.00     0.001 A 
HETATM   20  C1  UNL     1      26.466  10.836  30.157  1.00  0.00     0.000 A 
HETATM   21  C30 UNL     1      26.679  11.224  31.466  1.00  0.00     0.001 A 
HETATM   22  C29 UNL     1      27.154  12.482  31.808  1.00  0.00     0.007 A 
ENDBRANCH  16  17
ENDBRANCH  11  16
ENDBRANCH   1   9
BRANCH   3  23
HETATM   23  C11 UNL     1      22.204  11.341  31.778  1.00  0.00    -0.021 A 
HETATM   24  C12 UNL     1      21.564  10.779  30.721  1.00  0.00     0.029 A 
HETATM   25  C13 UNL     1      21.443   9.408  30.660  1.00  0.00     0.088 A 
HETATM   26  N2  UNL     1      21.954   8.637  31.639  1.00  0.00    -0.375 N 
HETATM   27  C14 UNL     1      22.593   9.174  32.699  1.00  0.00     0.088 A 
ATOM     28  H2  UNL     1      21.855   7.624  31.578  1.00  0.00     0.164 HD
HETATM   29  C15 UNL     1      22.719  10.538  32.768  1.00  0.00     0.029 A 
ENDBRANCH   3  23
BRANCH   4  30
HETATM   30  C17 UNL     1      19.972  12.928  32.487  1.00  0.00    -0.006 A 
HETATM   31  C18 UNL     1      19.612  12.233  33.620  1.00  0.00     0.014 A 
HETATM   32  C19 UNL     1      18.331  11.672  33.735  1.00  0.00     0.013 A 
HETATM   33  C20 UNL     1      17.424  11.806  32.724  1.00  0.00    -0.026 A 
HETATM   34  C21 UNL     1      16.152  11.277  32.776  1.00  0.00     0.012 A 
HETATM   35  C25 UNL     1      17.769  12.498  31.583  1.00  0.00    -0.025 A 
HETATM   36  C22 UNL     1      15.257  11.435  31.725  1.00  0.00     0.001 A 
HETATM   37  C23 UNL     1      15.619  12.128  30.599  1.00  0.00     0.001 A 
HETATM   38  C24 UNL     1      16.881  12.657  30.535  1.00  0.00     0.012 A 
HETATM   39  C26 UNL     1      19.031  13.044  31.485  1.00  0.00     0.026 A 
ENDBRANCH   4  30
TORSDOF 5
ENDMDL
