MODEL 11
REMARK VINA RESULT: -9.648391493      2.285      8.408
REMARK  5 active torsions:
REMARK  status: ('A' for Active; 'I' for Inactive)
REMARK    1  A    between atoms: C4_4  and  C5_5 
REMARK    2  A    between atoms: C5_5  and  C6_6 
REMARK    3  A    between atoms: N1_8  and  C8_9 
REMARK    4  A    between atoms: C10_11  and  C11_12 
REMARK    5  A    between atoms: C16_19  and  C17_20 
ROOT
HETATM    1  C8  UNL     1      20.787  15.040  29.743  1.00  0.00     0.118 A 
HETATM    2  C9  UNL     1      21.354  13.873  30.201  1.00  0.00     0.064 A 
HETATM    3  C10 UNL     1      22.691  13.798  30.538  1.00  0.00     0.007 A 
HETATM    4  C16 UNL     1      23.482  14.928  30.411  1.00  0.00     0.069 A 
HETATM    5  N3  UNL     1      22.871  16.042  29.956  1.00  0.00    -0.298 N 
ATOM      6  H3  UNL     1      23.433  16.887  29.854  1.00  0.00     0.187 HD
HETATM    7  N4  UNL     1      21.590  16.109  29.634  1.00  0.00    -0.285 N 
ATOM      8  H4  UNL     1      21.204  16.991  29.296  1.00  0.00     0.188 HD
ENDROOT
BRANCH   1   9
HETATM    9  N1  UNL     1      19.366  15.119  29.394  1.00  0.00    -0.363 N 
HETATM   10  C7  UNL     1      18.391  15.226  30.431  1.00  0.00     0.149 C 
HETATM   11  C6  UNL     1      17.004  14.983  29.917  1.00  0.00     0.098 C 
HETATM   12  N5  UNL     1      16.707  15.719  28.741  1.00  0.00    -0.414 N 
HETATM   13  C28 UNL     1      17.734  15.861  27.773  1.00  0.00     0.134 C 
ATOM     14  H5  UNL     1      15.786  16.132  28.597  1.00  0.00     0.153 HD
HETATM   15  C27 UNL     1      18.992  15.094  28.008  1.00  0.00     0.143 C 
BRANCH  11  16
HETATM   16  C5  UNL     1      16.816  13.503  29.693  1.00  0.00     0.065 C 
BRANCH  16  17
HETATM   17  C4  UNL     1      16.976  12.738  30.956  1.00  0.00    -0.056 A 
HETATM   18  C3  UNL     1      18.216  12.408  31.433  1.00  0.00     0.007 A 
HETATM   19  C2  UNL     1      18.366  11.689  32.616  1.00  0.00     0.001 A 
HETATM   20  C1  UNL     1      17.272  11.282  33.351  1.00  0.00     0.000 A 
HETATM   21  C30 UNL     1      16.031  11.625  32.850  1.00  0.00     0.001 A 
HETATM   22  C29 UNL     1      15.870  12.342  31.673  1.00  0.00     0.007 A 
ENDBRANCH  16  17
ENDBRANCH  11  16
ENDBRANCH   1   9
BRANCH   3  23
HETATM   23  C11 UNL     1      23.326  12.576  31.027  1.00  0.00    -0.021 A 
HETATM   24  C12 UNL     1      23.656  12.363  32.326  1.00  0.00     0.029 A 
HETATM   25  C13 UNL     1      24.252  11.173  32.682  1.00  0.00     0.088 A 
HETATM   26  N2  UNL     1      24.504  10.234  31.750  1.00  0.00    -0.375 N 
HETATM   27  C14 UNL     1      24.186  10.424  30.453  1.00  0.00     0.088 A 
ATOM     28  H2  UNL     1      24.946   9.359  32.030  1.00  0.00     0.164 HD
HETATM   29  C15 UNL     1      23.592  11.606  30.089  1.00  0.00     0.029 A 
ENDBRANCH   3  23
BRANCH   4  30
HETATM   30  C17 UNL     1      24.899  14.912  30.758  1.00  0.00    -0.006 A 
HETATM   31  C18 UNL     1      25.840  14.165  30.084  1.00  0.00     0.014 A 
HETATM   32  C19 UNL     1      27.187  14.197  30.475  1.00  0.00     0.013 A 
HETATM   33  C20 UNL     1      27.585  14.967  31.529  1.00  0.00    -0.026 A 
HETATM   34  C21 UNL     1      28.891  15.040  31.962  1.00  0.00     0.012 A 
HETATM   35  C25 UNL     1      26.655  15.720  32.215  1.00  0.00    -0.025 A 
HETATM   36  C22 UNL     1      29.255  15.837  33.040  1.00  0.00     0.001 A 
HETATM   37  C23 UNL     1      28.315  16.579  33.708  1.00  0.00     0.001 A 
HETATM   38  C24 UNL     1      27.013  16.514  33.288  1.00  0.00     0.012 A 
HETATM   39  C26 UNL     1      25.334  15.679  31.818  1.00  0.00     0.026 A 
ENDBRANCH   4  30
TORSDOF 5
ENDMDL
