MODEL 2
REMARK VINA RESULT: -10.869602768      0.790      1.072
REMARK  5 active torsions:
REMARK  status: ('A' for Active; 'I' for Inactive)
REMARK    1  A    between atoms: C4_4  and  C5_5 
REMARK    2  A    between atoms: C5_5  and  C6_6 
REMARK    3  A    between atoms: N1_8  and  C8_9 
REMARK    4  A    between atoms: C10_11  and  C11_12 
REMARK    5  A    between atoms: C16_19  and  C17_20 
ROOT
HETATM    1  C8  UNL     1      23.659  14.997  31.979  1.00  0.00     0.118 A 
HETATM    2  C9  UNL     1      23.594  13.625  31.903  1.00  0.00     0.064 A 
HETATM    3  C10 UNL     1      22.405  12.943  32.076  1.00  0.00     0.007 A 
HETATM    4  C16 UNL     1      21.249  13.661  32.335  1.00  0.00     0.069 A 
HETATM    5  N3  UNL     1      21.376  15.004  32.399  1.00  0.00    -0.298 N 
ATOM      6  H3  UNL     1      20.538  15.553  32.588  1.00  0.00     0.187 HD
HETATM    7  N4  UNL     1      22.516  15.651  32.233  1.00  0.00    -0.285 N 
ATOM      8  H4  UNL     1      22.527  16.670  32.298  1.00  0.00     0.188 HD
ENDROOT
BRANCH   1   9
HETATM    9  N1  UNL     1      24.920  15.718  31.787  1.00  0.00    -0.363 N 
HETATM   10  C7  UNL     1      25.847  15.266  30.800  1.00  0.00     0.149 C 
HETATM   11  C6  UNL     1      27.188  15.918  30.956  1.00  0.00     0.098 C 
HETATM   12  N5  UNL     1      27.110  17.328  31.099  1.00  0.00    -0.414 N 
HETATM   13  C28 UNL     1      26.046  17.856  31.873  1.00  0.00     0.134 C 
ATOM     14  H5  UNL     1      27.796  17.940  30.659  1.00  0.00     0.153 HD
HETATM   15  C27 UNL     1      25.187  16.874  32.597  1.00  0.00     0.143 C 
BRANCH  11  16
HETATM   16  C5  UNL     1      27.905  15.294  32.127  1.00  0.00     0.065 C 
BRANCH  16  17
HETATM   17  C4  UNL     1      28.154  13.847  31.902  1.00  0.00    -0.056 A 
HETATM   18  C3  UNL     1      27.121  12.952  31.826  1.00  0.00     0.007 A 
HETATM   19  C2  UNL     1      27.353  11.596  31.618  1.00  0.00     0.001 A 
HETATM   20  C1  UNL     1      28.635  11.102  31.479  1.00  0.00     0.000 A 
HETATM   21  C30 UNL     1      29.662  12.023  31.560  1.00  0.00     0.001 A 
HETATM   22  C29 UNL     1      29.440  13.376  31.767  1.00  0.00     0.007 A 
ENDBRANCH  16  17
ENDBRANCH  11  16
ENDBRANCH   1   9
BRANCH   3  23
HETATM   23  C11 UNL     1      22.299  11.488  32.002  1.00  0.00    -0.021 A 
HETATM   24  C12 UNL     1      21.721  10.824  30.969  1.00  0.00     0.029 A 
HETATM   25  C13 UNL     1      21.674   9.447  30.998  1.00  0.00     0.088 A 
HETATM   26  N2  UNL     1      22.194   8.771  32.041  1.00  0.00    -0.375 N 
HETATM   27  C14 UNL     1      22.773   9.410  33.078  1.00  0.00     0.088 A 
ATOM     28  H2  UNL     1      22.150   7.752  32.046  1.00  0.00     0.164 HD
HETATM   29  C15 UNL     1      22.825  10.781  33.058  1.00  0.00     0.029 A 
ENDBRANCH   3  23
BRANCH   4  30
HETATM   30  C17 UNL     1      19.963  12.997  32.519  1.00  0.00    -0.006 A 
HETATM   31  C18 UNL     1      19.629  12.284  33.649  1.00  0.00     0.014 A 
HETATM   32  C19 UNL     1      18.373  11.669  33.758  1.00  0.00     0.013 A 
HETATM   33  C20 UNL     1      17.463  11.768  32.745  1.00  0.00    -0.026 A 
HETATM   34  C21 UNL     1      16.215  11.187  32.791  1.00  0.00     0.012 A 
HETATM   35  C25 UNL     1      17.782  12.479  31.607  1.00  0.00    -0.025 A 
HETATM   36  C22 UNL     1      15.317  11.312  31.738  1.00  0.00     0.001 A 
HETATM   37  C23 UNL     1      15.653  12.023  30.616  1.00  0.00     0.001 A 
HETATM   38  C24 UNL     1      16.891  12.605  30.558  1.00  0.00     0.012 A 
HETATM   39  C26 UNL     1      19.021  13.078  31.515  1.00  0.00     0.026 A 
ENDBRANCH   4  30
TORSDOF 5
ENDMDL
