MODEL 8
REMARK VINA RESULT: -9.947899797      3.763      8.771
REMARK  5 active torsions:
REMARK  status: ('A' for Active; 'I' for Inactive)
REMARK    1  A    between atoms: C4_4  and  C5_5 
REMARK    2  A    between atoms: C5_5  and  C6_6 
REMARK    3  A    between atoms: N1_8  and  C8_9 
REMARK    4  A    between atoms: C10_11  and  C11_12 
REMARK    5  A    between atoms: C16_19  and  C17_20 
ROOT
HETATM    1  C8  UNL     1      21.111  14.882  29.863  1.00  0.00     0.118 A 
HETATM    2  C9  UNL     1      21.152  13.691  30.551  1.00  0.00     0.064 A 
HETATM    3  C10 UNL     1      22.343  13.039  30.804  1.00  0.00     0.007 A 
HETATM    4  C16 UNL     1      23.526  13.600  30.352  1.00  0.00     0.069 A 
HETATM    5  N3  UNL     1      23.422  14.768  29.684  1.00  0.00    -0.298 N 
ATOM      6  H3  UNL     1      24.281  15.200  29.342  1.00  0.00     0.187 HD
HETATM    7  N4  UNL     1      22.280  15.388  29.443  1.00  0.00    -0.285 N 
ATOM      8  H4  UNL     1      22.287  16.269  28.929  1.00  0.00     0.188 HD
ENDROOT
BRANCH   1   9
HETATM    9  N1  UNL     1      19.846  15.576  29.603  1.00  0.00    -0.363 N 
HETATM   10  C7  UNL     1      18.707  14.828  29.176  1.00  0.00     0.149 C 
HETATM   11  C6  UNL     1      17.616  15.721  28.665  1.00  0.00     0.098 C 
HETATM   12  N5  UNL     1      17.327  16.804  29.536  1.00  0.00    -0.414 N 
HETATM   13  C28 UNL     1      18.415  17.432  30.193  1.00  0.00     0.134 C 
ATOM     14  H5  UNL     1      16.368  17.119  29.684  1.00  0.00     0.153 HD
HETATM   15  C27 UNL     1      19.785  16.997  29.795  1.00  0.00     0.143 C 
BRANCH  11  16
HETATM   16  C5  UNL     1      17.991  16.216  27.291  1.00  0.00     0.065 C 
BRANCH  16  17
HETATM   17  C4  UNL     1      17.070  17.286  26.830  1.00  0.00    -0.056 A 
HETATM   18  C3  UNL     1      17.371  18.609  27.015  1.00  0.00     0.007 A 
HETATM   19  C2  UNL     1      16.508  19.613  26.585  1.00  0.00     0.001 A 
HETATM   20  C1  UNL     1      15.316  19.313  25.956  1.00  0.00     0.000 A 
HETATM   21  C30 UNL     1      15.033  17.972  25.780  1.00  0.00     0.001 A 
HETATM   22  C29 UNL     1      15.887  16.964  26.205  1.00  0.00     0.007 A 
ENDBRANCH  16  17
ENDBRANCH  11  16
ENDBRANCH   1   9
BRANCH   3  23
HETATM   23  C11 UNL     1      22.424  11.774  31.531  1.00  0.00    -0.021 A 
HETATM   24  C12 UNL     1      22.825  11.669  32.823  1.00  0.00     0.029 A 
HETATM   25  C13 UNL     1      22.866  10.425  33.415  1.00  0.00     0.088 A 
HETATM   26  N2  UNL     1      22.511   9.329  32.716  1.00  0.00    -0.375 N 
HETATM   27  C14 UNL     1      22.110   9.410  31.431  1.00  0.00     0.088 A 
ATOM     28  H2  UNL     1      22.547   8.416  33.170  1.00  0.00     0.164 HD
HETATM   29  C15 UNL     1      22.067  10.643  30.834  1.00  0.00     0.029 A 
ENDBRANCH   3  23
BRANCH   4  30
HETATM   30  C17 UNL     1      24.815  12.962  30.596  1.00  0.00    -0.006 A 
HETATM   31  C18 UNL     1      25.083  11.645  30.291  1.00  0.00     0.014 A 
HETATM   32  C19 UNL     1      26.347  11.096  30.555  1.00  0.00     0.013 A 
HETATM   33  C20 UNL     1      27.330  11.858  31.118  1.00  0.00    -0.026 A 
HETATM   34  C21 UNL     1      28.589  11.378  31.402  1.00  0.00     0.012 A 
HETATM   35  C25 UNL     1      27.077  13.178  31.430  1.00  0.00    -0.025 A 
HETATM   36  C22 UNL     1      29.562  12.187  31.977  1.00  0.00     0.001 A 
HETATM   37  C23 UNL     1      29.292  13.496  32.278  1.00  0.00     0.001 A 
HETATM   38  C24 UNL     1      28.043  13.985  32.001  1.00  0.00     0.012 A 
HETATM   39  C26 UNL     1      25.830  13.703  31.164  1.00  0.00     0.026 A 
ENDBRANCH   4  30
TORSDOF 5
ENDMDL
