MODEL 10
REMARK VINA RESULT: -9.756461767      0.761      1.435
REMARK  5 active torsions:
REMARK  status: ('A' for Active; 'I' for Inactive)
REMARK    1  A    between atoms: C4_4  and  C5_5 
REMARK    2  A    between atoms: C5_5  and  C6_6 
REMARK    3  A    between atoms: N1_8  and  C8_9 
REMARK    4  A    between atoms: C10_11  and  C11_12 
REMARK    5  A    between atoms: C16_19  and  C17_20 
ROOT
HETATM    1  C8  UNL     1      24.017  15.045  31.509  1.00  0.00     0.118 A 
HETATM    2  C9  UNL     1      23.744  13.704  31.364  1.00  0.00     0.064 A 
HETATM    3  C10 UNL     1      22.450  13.232  31.271  1.00  0.00     0.007 A 
HETATM    4  C16 UNL     1      21.399  14.132  31.327  1.00  0.00     0.069 A 
HETATM    5  N3  UNL     1      21.728  15.433  31.471  1.00  0.00    -0.298 N 
ATOM      6  H3  UNL     1      20.971  16.115  31.514  1.00  0.00     0.187 HD
HETATM    7  N4  UNL     1      22.969  15.881  31.560  1.00  0.00    -0.285 N 
ATOM      8  H4  UNL     1      23.133  16.882  31.668  1.00  0.00     0.188 HD
ENDROOT
BRANCH   1   9
HETATM    9  N1  UNL     1      25.392  15.544  31.598  1.00  0.00    -0.363 N 
HETATM   10  C7  UNL     1      26.237  15.492  30.449  1.00  0.00     0.149 C 
HETATM   11  C6  UNL     1      27.671  15.747  30.801  1.00  0.00     0.098 C 
HETATM   12  N5  UNL     1      27.850  16.892  31.621  1.00  0.00    -0.414 N 
HETATM   13  C28 UNL     1      26.887  17.137  32.633  1.00  0.00     0.134 C 
ATOM     14  H5  UNL     1      28.644  17.518  31.486  1.00  0.00     0.153 HD
HETATM   15  C27 UNL     1      25.851  16.085  32.847  1.00  0.00     0.143 C 
BRANCH  11  16
HETATM   16  C5  UNL     1      28.242  14.516  31.460  1.00  0.00     0.065 C 
BRANCH  16  17
HETATM   17  C4  UNL     1      27.570  13.282  30.977  1.00  0.00    -0.056 A 
HETATM   18  C3  UNL     1      27.400  13.044  29.640  1.00  0.00     0.007 A 
HETATM   19  C2  UNL     1      26.769  11.889  29.186  1.00  0.00     0.001 A 
HETATM   20  C1  UNL     1      26.291  10.940  30.067  1.00  0.00     0.000 A 
HETATM   21  C30 UNL     1      26.474  11.202  31.412  1.00  0.00     0.001 A 
HETATM   22  C29 UNL     1      27.102  12.349  31.874  1.00  0.00     0.007 A 
ENDBRANCH  16  17
ENDBRANCH  11  16
ENDBRANCH   1   9
BRANCH   3  23
HETATM   23  C11 UNL     1      22.125  11.815  31.117  1.00  0.00    -0.021 A 
HETATM   24  C12 UNL     1      21.694  11.261  29.956  1.00  0.00     0.029 A 
HETATM   25  C13 UNL     1      21.414   9.912  29.918  1.00  0.00     0.088 A 
HETATM   26  N2  UNL     1      21.566   9.156  31.022  1.00  0.00    -0.375 N 
HETATM   27  C14 UNL     1      21.991   9.686  32.187  1.00  0.00     0.088 A 
ATOM     28  H2  UNL     1      21.354   8.159  30.976  1.00  0.00     0.164 HD
HETATM   29  C15 UNL     1      22.273  11.027  32.234  1.00  0.00     0.029 A 
ENDBRANCH   3  23
BRANCH   4  30
HETATM   30  C17 UNL     1      20.012  13.693  31.227  1.00  0.00    -0.006 A 
HETATM   31  C18 UNL     1      19.164  14.072  30.210  1.00  0.00     0.014 A 
HETATM   32  C19 UNL     1      17.839  13.612  30.178  1.00  0.00     0.013 A 
HETATM   33  C20 UNL     1      17.370  12.781  31.154  1.00  0.00    -0.026 A 
HETATM   34  C21 UNL     1      16.081  12.296  31.179  1.00  0.00     0.012 A 
HETATM   35  C25 UNL     1      18.206  12.392  32.179  1.00  0.00    -0.025 A 
HETATM   36  C22 UNL     1      15.642  11.453  32.192  1.00  0.00     0.001 A 
HETATM   37  C23 UNL     1      16.489  11.076  33.202  1.00  0.00     0.001 A 
HETATM   38  C24 UNL     1      17.773  11.552  33.189  1.00  0.00     0.012 A 
HETATM   39  C26 UNL     1      19.506  12.853  32.197  1.00  0.00     0.026 A 
ENDBRANCH   4  30
TORSDOF 5
ENDMDL
