MODEL 2
REMARK VINA RESULT: -9.345018885      0.990      1.756
REMARK  6 active torsions:
REMARK  status: ('A' for Active; 'I' for Inactive)
REMARK    1  A    between atoms: C4_4  and  S1_5 
REMARK    2  A    between atoms: S1_5  and  N1_8 
REMARK    3  A    between atoms: N1_8  and  C5_10 
REMARK    4  A    between atoms: C5_10  and  C6_11 
REMARK    5  A    between atoms: C5_10  and  C7_17 
REMARK       I    between atoms: C6_11  and  N2_13 
REMARK    6  A    between atoms: N2_13  and  O4_15 
ROOT
HETATM    1  N1  UNL     1      10.900  17.713  26.211  1.00  0.00    -0.301 N 
ATOM      2  H1  UNL     1      10.680  16.719  26.262  1.00  0.00     0.173 HD
ENDROOT
BRANCH   1   3
HETATM    3  S1  UNL     1       9.689  18.850  25.986  1.00  0.00     0.259 S 
HETATM    4  O1  UNL     1      10.337  20.085  25.368  1.00  0.00    -0.201 OA
HETATM    5  O2  UNL     1       8.613  18.443  25.028  1.00  0.00    -0.201 OA
BRANCH   3   6
HETATM    6  C4  UNL     1       8.894  19.408  27.436  1.00  0.00     0.080 A 
HETATM    7  C3  UNL     1       9.208  20.560  28.096  1.00  0.00     0.035 A 
HETATM    8  C2  UNL     1       8.544  20.963  29.242  1.00  0.00    -0.022 A 
HETATM    9  C1  UNL     1       8.891  22.212  29.952  1.00  0.00     0.051 C 
HETATM   10  C14 UNL     1       7.533  20.179  29.733  1.00  0.00     0.122 A 
HETATM   11  C13 UNL     1       7.183  19.006  29.096  1.00  0.00     0.044 A 
HETATM   12  F1  UNL     1       6.856  20.552  30.868  1.00  0.00    -0.206 F 
HETATM   13  C12 UNL     1       7.871  18.626  27.942  1.00  0.00     0.028 A 
ENDBRANCH   3   6
ENDBRANCH   1   3
BRANCH   1  14
HETATM   14  C5  UNL     1      12.245  18.168  26.329  1.00  0.00     0.191 C 
BRANCH  14  15
HETATM   15  C6  UNL     1      12.628  18.594  27.678  1.00  0.00     0.264 C 
HETATM   16  O3  UNL     1      11.961  18.239  28.662  1.00  0.00    -0.269 OA
HETATM   17  N2  UNL     1      13.759  19.409  27.855  1.00  0.00    -0.236 N 
ATOM     18  H2  UNL     1      14.305  19.698  27.042  1.00  0.00     0.197 HD
BRANCH  17  19
HETATM   19  O4  UNL     1      14.138  19.820  29.108  1.00  0.00    -0.287 OA
ATOM     20  H4  UNL     1      15.052  19.984  29.310  1.00  0.00     0.244 HD
ENDBRANCH  17  19
ENDBRANCH  14  15
BRANCH  14  21
HETATM   21  C7  UNL     1      13.183  17.053  25.939  1.00  0.00     0.022 C 
HETATM   22  C8  UNL     1      13.666  16.278  27.149  1.00  0.00     0.033 C 
HETATM   23  C9  UNL     1      13.547  14.800  26.902  1.00  0.00     0.168 C 
HETATM   24  O5  UNL     1      14.055  14.397  25.688  1.00  0.00    -0.391 OA
HETATM   25  C10 UNL     1      13.569  15.076  24.600  1.00  0.00     0.168 C 
HETATM   26  C11 UNL     1      12.514  16.094  25.016  1.00  0.00     0.033 C 
ENDBRANCH  14  21
ENDBRANCH   1  14
TORSDOF 6
ENDMDL
