MODEL 9
REMARK VINA RESULT: -7.752828795      3.471      6.600
REMARK  6 active torsions:
REMARK  status: ('A' for Active; 'I' for Inactive)
REMARK    1  A    between atoms: C4_4  and  S1_5 
REMARK    2  A    between atoms: S1_5  and  N1_8 
REMARK    3  A    between atoms: N1_8  and  C5_10 
REMARK    4  A    between atoms: C5_10  and  C6_11 
REMARK    5  A    between atoms: C5_10  and  C7_17 
REMARK       I    between atoms: C6_11  and  N2_13 
REMARK    6  A    between atoms: N2_13  and  O4_15 
ROOT
HETATM    1  N1  UNL     1      11.730  19.803  27.135  1.00  0.00    -0.301 N 
ATOM      2  H1  UNL     1      12.145  20.402  26.422  1.00  0.00     0.173 HD
ENDROOT
BRANCH   1   3
HETATM    3  S1  UNL     1      12.673  18.725  28.004  1.00  0.00     0.259 S 
HETATM    4  O1  UNL     1      13.722  19.542  28.752  1.00  0.00    -0.201 OA
HETATM    5  O2  UNL     1      11.941  17.956  29.060  1.00  0.00    -0.201 OA
BRANCH   3   6
HETATM    6  C4  UNL     1      13.567  17.563  27.056  1.00  0.00     0.080 A 
HETATM    7  C3  UNL     1      14.638  16.852  27.512  1.00  0.00     0.035 A 
HETATM    8  C2  UNL     1      15.312  15.936  26.722  1.00  0.00    -0.022 A 
HETATM    9  C1  UNL     1      16.472  15.171  27.223  1.00  0.00     0.051 C 
HETATM   10  C14 UNL     1      14.889  15.735  25.434  1.00  0.00     0.122 A 
HETATM   11  C13 UNL     1      13.809  16.432  24.933  1.00  0.00     0.044 A 
HETATM   12  F1  UNL     1      15.537  14.834  24.625  1.00  0.00    -0.206 F 
HETATM   13  C12 UNL     1      13.150  17.349  25.754  1.00  0.00     0.028 A 
ENDBRANCH   3   6
ENDBRANCH   1   3
BRANCH   1  14
HETATM   14  C5  UNL     1      10.334  19.862  27.414  1.00  0.00     0.191 C 
BRANCH  14  15
HETATM   15  C6  UNL     1       9.877  21.138  27.970  1.00  0.00     0.264 C 
HETATM   16  O3  UNL     1       9.944  22.177  27.295  1.00  0.00    -0.269 OA
HETATM   17  N2  UNL     1       9.359  21.183  29.275  1.00  0.00    -0.236 N 
ATOM     18  H2  UNL     1       9.306  20.326  29.826  1.00  0.00     0.197 HD
BRANCH  17  19
HETATM   19  O4  UNL     1       8.925  22.366  29.818  1.00  0.00    -0.287 OA
ATOM     20  H4  UNL     1       8.191  22.835  29.437  1.00  0.00     0.244 HD
ENDBRANCH  17  19
ENDBRANCH  14  15
BRANCH  14  21
HETATM   21  C7  UNL     1       9.562  19.638  26.137  1.00  0.00     0.022 C 
HETATM   22  C8  UNL     1       9.821  18.261  25.560  1.00  0.00     0.033 C 
HETATM   23  C9  UNL     1       8.524  17.604  25.180  1.00  0.00     0.168 C 
HETATM   24  O5  UNL     1       7.684  18.413  24.450  1.00  0.00    -0.391 OA
HETATM   25  C10 UNL     1       7.422  19.637  25.011  1.00  0.00     0.168 C 
HETATM   26  C11 UNL     1       8.097  19.771  26.370  1.00  0.00     0.033 C 
ENDBRANCH  14  21
ENDBRANCH   1  14
TORSDOF 6
ENDMDL
