MODEL 6
REMARK VINA RESULT: -7.938761110      3.409      6.515
REMARK  6 active torsions:
REMARK  status: ('A' for Active; 'I' for Inactive)
REMARK    1  A    between atoms: C4_4  and  S1_5 
REMARK    2  A    between atoms: S1_5  and  N1_8 
REMARK    3  A    between atoms: N1_8  and  C5_10 
REMARK    4  A    between atoms: C5_10  and  C6_11 
REMARK    5  A    between atoms: C5_10  and  C7_17 
REMARK       I    between atoms: C6_11  and  N2_13 
REMARK    6  A    between atoms: N2_13  and  O4_15 
ROOT
HETATM    1  N1  UNL     1      11.671  19.757  26.970  1.00  0.00    -0.301 N 
ATOM      2  H1  UNL     1      12.055  20.378  26.257  1.00  0.00     0.173 HD
ENDROOT
BRANCH   1   3
HETATM    3  S1  UNL     1      12.648  18.644  27.755  1.00  0.00     0.259 S 
HETATM    4  O1  UNL     1      13.863  19.401  28.282  1.00  0.00    -0.201 OA
HETATM    5  O2  UNL     1      12.029  17.999  28.956  1.00  0.00    -0.201 OA
BRANCH   3   6
HETATM    6  C4  UNL     1      13.286  17.360  26.760  1.00  0.00     0.080 A 
HETATM    7  C3  UNL     1      12.648  16.831  25.676  1.00  0.00     0.035 A 
HETATM    8  C2  UNL     1      13.198  15.814  24.914  1.00  0.00    -0.022 A 
HETATM    9  C1  UNL     1      12.500  15.246  23.742  1.00  0.00     0.051 C 
HETATM   10  C14 UNL     1      14.428  15.319  25.259  1.00  0.00     0.122 A 
HETATM   11  C13 UNL     1      15.109  15.825  26.348  1.00  0.00     0.044 A 
HETATM   12  F1  UNL     1      15.000  14.310  24.524  1.00  0.00    -0.206 F 
HETATM   13  C12 UNL     1      14.528  16.851  27.097  1.00  0.00     0.028 A 
ENDBRANCH   3   6
ENDBRANCH   1   3
BRANCH   1  14
HETATM   14  C5  UNL     1      10.291  19.816  27.320  1.00  0.00     0.191 C 
BRANCH  14  15
HETATM   15  C6  UNL     1       9.868  21.084  27.920  1.00  0.00     0.264 C 
HETATM   16  O3  UNL     1       9.964  22.143  27.281  1.00  0.00    -0.269 OA
HETATM   17  N2  UNL     1       9.351  21.097  29.226  1.00  0.00    -0.236 N 
ATOM     18  H2  UNL     1       9.275  20.223  29.747  1.00  0.00     0.197 HD
BRANCH  17  19
HETATM   19  O4  UNL     1       8.948  22.272  29.809  1.00  0.00    -0.287 OA
ATOM     20  H4  UNL     1       9.117  22.441  30.729  1.00  0.00     0.244 HD
ENDBRANCH  17  19
ENDBRANCH  14  15
BRANCH  14  21
HETATM   21  C7  UNL     1       9.455  19.617  26.080  1.00  0.00     0.022 C 
HETATM   22  C8  UNL     1       9.670  18.244  25.475  1.00  0.00     0.033 C 
HETATM   23  C9  UNL     1       8.348  17.606  25.151  1.00  0.00     0.168 C 
HETATM   24  O5  UNL     1       7.483  18.434  24.472  1.00  0.00    -0.391 OA
HETATM   25  C10 UNL     1       7.263  19.653  25.061  1.00  0.00     0.168 C 
HETATM   26  C11 UNL     1       8.005  19.763  26.387  1.00  0.00     0.033 C 
ENDBRANCH  14  21
ENDBRANCH   1  14
TORSDOF 6
ENDMDL
