MODEL 1
REMARK VINA RESULT: -9.833296964      0.000      0.000
REMARK  6 active torsions:
REMARK  status: ('A' for Active; 'I' for Inactive)
REMARK    1  A    between atoms: C4_4  and  S1_5 
REMARK    2  A    between atoms: S1_5  and  N1_8 
REMARK    3  A    between atoms: N1_8  and  C5_10 
REMARK    4  A    between atoms: C5_10  and  C6_11 
REMARK    5  A    between atoms: C5_10  and  C7_17 
REMARK       I    between atoms: C6_11  and  N2_13 
REMARK    6  A    between atoms: N2_13  and  O4_15 
ROOT
HETATM    1  N1  UNL     1      10.578  17.925  26.255  1.00  0.00    -0.301 N 
ATOM      2  H1  UNL     1      10.178  16.988  26.273  1.00  0.00     0.173 HD
ENDROOT
BRANCH   1   3
HETATM    3  S1  UNL     1       9.594  19.276  26.127  1.00  0.00     0.259 S 
HETATM    4  O1  UNL     1      10.387  20.346  25.385  1.00  0.00    -0.201 OA
HETATM    5  O2  UNL     1       8.348  19.074  25.322  1.00  0.00    -0.201 OA
BRANCH   3   6
HETATM    6  C4  UNL     1       9.111  20.008  27.637  1.00  0.00     0.080 A 
HETATM    7  C3  UNL     1       8.210  19.466  28.506  1.00  0.00     0.035 A 
HETATM    8  C2  UNL     1       7.863  20.084  29.696  1.00  0.00    -0.022 A 
HETATM    9  C1  UNL     1       6.885  19.491  30.631  1.00  0.00     0.051 C 
HETATM   10  C14 UNL     1       8.444  21.283  30.014  1.00  0.00     0.122 A 
HETATM   11  C13 UNL     1       9.362  21.866  29.163  1.00  0.00     0.044 A 
HETATM   12  F1  UNL     1       8.121  21.921  31.187  1.00  0.00    -0.206 F 
HETATM   13  C12 UNL     1       9.691  21.219  27.971  1.00  0.00     0.028 A 
ENDBRANCH   3   6
ENDBRANCH   1   3
BRANCH   1  14
HETATM   14  C5  UNL     1      11.988  18.118  26.338  1.00  0.00     0.191 C 
BRANCH  14  15
HETATM   15  C6  UNL     1      12.470  18.528  27.659  1.00  0.00     0.264 C 
HETATM   16  O3  UNL     1      11.851  18.201  28.683  1.00  0.00    -0.269 OA
HETATM   17  N2  UNL     1      13.642  19.297  27.764  1.00  0.00    -0.236 N 
ATOM     18  H2  UNL     1      14.147  19.563  26.919  1.00  0.00     0.197 HD
BRANCH  17  19
HETATM   19  O4  UNL     1      14.114  19.692  28.990  1.00  0.00    -0.287 OA
ATOM     20  H4  UNL     1      14.563  20.523  29.093  1.00  0.00     0.244 HD
ENDBRANCH  17  19
ENDBRANCH  14  15
BRANCH  14  21
HETATM   21  C7  UNL     1      12.686  16.824  25.998  1.00  0.00     0.022 C 
HETATM   22  C8  UNL     1      11.829  15.941  25.114  1.00  0.00     0.033 C 
HETATM   23  C9  UNL     1      12.638  15.418  23.961  1.00  0.00     0.168 C 
HETATM   24  O5  UNL     1      13.859  14.897  24.328  1.00  0.00    -0.391 OA
HETATM   25  C10 UNL     1      14.641  15.730  25.087  1.00  0.00     0.168 C 
HETATM   26  C11 UNL     1      13.968  17.083  25.286  1.00  0.00     0.033 C 
ENDBRANCH  14  21
ENDBRANCH   1  14
TORSDOF 6
ENDMDL
