MODEL 3
REMARK VINA RESULT: -9.035945642      0.790      1.452
REMARK  6 active torsions:
REMARK  status: ('A' for Active; 'I' for Inactive)
REMARK    1  A    between atoms: C4_4  and  S1_5 
REMARK    2  A    between atoms: S1_5  and  N1_8 
REMARK    3  A    between atoms: N1_8  and  C5_10 
REMARK    4  A    between atoms: C5_10  and  C6_11 
REMARK    5  A    between atoms: C5_10  and  C7_17 
REMARK       I    between atoms: C6_11  and  N2_13 
REMARK    6  A    between atoms: N2_13  and  O4_15 
ROOT
HETATM    1  N1  UNL     1      10.475  17.935  26.438  1.00  0.00    -0.301 N 
ATOM      2  H1  UNL     1      10.002  17.036  26.532  1.00  0.00     0.173 HD
ENDROOT
BRANCH   1   3
HETATM    3  S1  UNL     1       9.603  19.366  26.419  1.00  0.00     0.259 S 
HETATM    4  O1  UNL     1      10.597  20.499  26.190  1.00  0.00    -0.201 OA
HETATM    5  O2  UNL     1       8.605  19.481  25.308  1.00  0.00    -0.201 OA
BRANCH   3   6
HETATM    6  C4  UNL     1       8.765  19.763  27.897  1.00  0.00     0.080 A 
HETATM    7  C3  UNL     1       9.012  20.872  28.653  1.00  0.00     0.035 A 
HETATM    8  C2  UNL     1       8.316  21.146  29.818  1.00  0.00    -0.022 A 
HETATM    9  C1  UNL     1       8.591  22.349  30.632  1.00  0.00     0.051 C 
HETATM   10  C14 UNL     1       7.342  20.274  30.229  1.00  0.00     0.122 A 
HETATM   11  C13 UNL     1       7.059  19.141  29.494  1.00  0.00     0.044 A 
HETATM   12  F1  UNL     1       6.634  20.519  31.380  1.00  0.00    -0.206 F 
HETATM   13  C12 UNL     1       7.778  18.892  28.324  1.00  0.00     0.028 A 
ENDBRANCH   3   6
ENDBRANCH   1   3
BRANCH   1  14
HETATM   14  C5  UNL     1      11.893  18.002  26.320  1.00  0.00     0.191 C 
BRANCH  14  15
HETATM   15  C6  UNL     1      12.597  18.278  27.575  1.00  0.00     0.264 C 
HETATM   16  O3  UNL     1      12.744  17.384  28.422  1.00  0.00    -0.269 OA
HETATM   17  N2  UNL     1      13.108  19.565  27.817  1.00  0.00    -0.236 N 
ATOM     18  H2  UNL     1      12.984  20.297  27.117  1.00  0.00     0.197 HD
BRANCH  17  19
HETATM   19  O4  UNL     1      13.771  19.847  28.985  1.00  0.00    -0.287 OA
ATOM     20  H4  UNL     1      14.479  20.481  29.000  1.00  0.00     0.244 HD
ENDBRANCH  17  19
ENDBRANCH  14  15
BRANCH  14  21
HETATM   21  C7  UNL     1      12.412  16.682  25.807  1.00  0.00     0.022 C 
HETATM   22  C8  UNL     1      11.536  16.127  24.702  1.00  0.00     0.033 C 
HETATM   23  C9  UNL     1      12.382  15.671  23.547  1.00  0.00     0.168 C 
HETATM   24  O5  UNL     1      13.452  14.887  23.917  1.00  0.00    -0.391 OA
HETATM   25  C10 UNL     1      14.261  15.427  24.883  1.00  0.00     0.168 C 
HETATM   26  C11 UNL     1      13.794  16.824  25.271  1.00  0.00     0.033 C 
ENDBRANCH  14  21
ENDBRANCH   1  14
TORSDOF 6
ENDMDL
